CHEMBL3695574
     RDKit          3D

  0  0  0  0  0  0  0  0  0  0999 V3000
M  V30 BEGIN CTAB
M  V30 COUNTS 79 84 0 0 0
M  V30 BEGIN ATOM
M  V30 1 C 0.660401 -7.584296 -3.317794 0
M  V30 2 N 1.555109 -6.439044 -3.296314 0
M  V30 3 S 0.753633 -5.177710 -2.427909 0
M  V30 4 O 1.590522 -3.928771 -2.381885 0
M  V30 5 O 0.472257 -5.656103 -1.044005 0
M  V30 6 C -0.727625 -4.788172 -3.325884 0
M  V30 7 C -1.519060 -3.716527 -2.692388 0
M  V30 8 C -1.352359 -2.374767 -2.974302 0
M  V30 9 C -2.153367 -1.451168 -2.317451 0
M  V30 10 C -3.108807 -1.878086 -1.389269 0
M  V30 11 N -3.810029 -0.768525 -0.842378 0
M  V30 12 N -4.620460 0.001685 -1.558965 0
M  V30 13 C -5.142195 0.971638 -0.773955 0
M  V30 14 C -6.092171 1.994832 -1.297279 0
M  V30 15 C -6.475846 2.921487 -0.160617 0
M  V30 16 C -5.446333 2.846171 -2.371668 0
M  V30 17 C -7.328854 1.305054 -1.826844 0
M  V30 18 C -4.641948 0.813377 0.502080 0
M  V30 19 C -3.811791 -0.283240 0.427387 0
M  V30 20 N -3.063385 -0.835854 1.505285 0
M  V30 21 C -1.736710 -0.434896 1.829148 0
M  V30 22 O -1.178912 0.465734 1.123077 0
M  V30 23 N -1.005365 -1.002311 2.914690 0
M  V30 24 C 0.302760 -0.468097 3.072594 0
M  V30 25 C 0.616504 0.634619 3.858177 0
M  V30 26 C 1.948504 1.079364 3.941291 0
M  V30 27 C 2.997540 0.435283 3.242786 0
M  V30 28 O 4.083795 1.126165 3.559700 0
M  V30 29 C 5.015543 1.927351 3.067347 0
M  V30 30 C 4.821800 3.095351 3.847461 0
M  V30 31 C 5.603195 4.258137 3.683235 0
M  V30 32 N 6.592926 4.289555 2.743464 0
M  V30 33 C 6.814272 3.220839 1.987268 0
M  V30 34 N 7.747346 3.111291 1.031358 0
M  V30 35 C 7.904861 1.970114 0.300601 0
M  V30 36 O 8.816104 1.948927 -0.589469 0
M  V30 37 C 7.108361 0.859675 0.506045 0
M  V30 38 N 6.208204 1.036467 1.464275 0
M  V30 39 C 6.038460 2.123369 2.179282 0
M  V30 40 C 2.570204 -0.638131 2.504658 0
M  V30 41 C 3.629125 -1.226388 1.879308 0
M  V30 42 C 3.479749 -2.336644 1.083983 0
M  V30 43 C 2.187943 -2.856850 0.931640 0
M  V30 44 C 1.144027 -2.238056 1.579730 0
M  V30 45 C 1.293588 -1.124928 2.378073 0
M  V30 46 C -3.260519 -3.220260 -1.121275 0
M  V30 47 C -2.472629 -4.151237 -1.765225 0
M  V30 48 H -0.212628 -7.438945 -2.671271 0
M  V30 49 H 1.212253 -8.493132 -2.991807 0
M  V30 50 H 0.274214 -7.686542 -4.357601 0
M  V30 51 H 2.488749 -6.668200 -2.912964 0
M  V30 52 H -1.317899 -5.698398 -3.430863 0
M  V30 53 H -0.384143 -4.510876 -4.357953 0
M  V30 54 H -0.604747 -2.099529 -3.694852 0
M  V30 55 H -1.942069 -0.425462 -2.610774 0
M  V30 56 H -5.499555 3.336231 0.218520 0
M  V30 57 H -7.061104 2.428078 0.619244 0
M  V30 58 H -7.007463 3.811049 -0.589053 0
M  V30 59 H -5.366014 2.307149 -3.344300 0
M  V30 60 H -4.385946 3.019293 -2.045654 0
M  V30 61 H -5.907682 3.834623 -2.469081 0
M  V30 62 H -7.142293 0.305863 -2.238977 0
M  V30 63 H -8.167833 1.293846 -1.097010 0
M  V30 64 H -7.702391 1.934922 -2.684927 0
M  V30 65 H -4.879608 1.436031 1.334912 0
M  V30 66 H -3.515934 -1.565685 2.076982 0
M  V30 67 H -1.441878 -1.742028 3.508369 0
M  V30 68 H -0.269429 1.028710 4.332393 0
M  V30 69 H 1.921716 1.937328 4.605561 0
M  V30 70 H 4.144876 3.386848 4.649120 0
M  V30 71 H 5.589067 5.217054 4.183619 0
M  V30 72 H 8.366449 3.936917 0.852674 0
M  V30 73 H 7.273106 -0.011621 -0.094905 0
M  V30 74 H 4.635789 -0.914126 1.961240 0
M  V30 75 H 4.264968 -2.863644 0.552038 0
M  V30 76 H 1.903845 -3.718775 0.343415 0
M  V30 77 H 0.109362 -2.606813 1.493739 0
M  V30 78 H -4.031408 -3.423048 -0.385767 0
M  V30 79 H -2.632286 -5.179826 -1.519336 0
M  V30 END ATOM
M  V30 BEGIN BOND
M  V30 1 1 1 2
M  V30 2 1 2 3
M  V30 3 2 3 4
M  V30 4 2 3 5
M  V30 5 1 3 6
M  V30 6 1 6 7
M  V30 7 2 7 8
M  V30 8 1 8 9
M  V30 9 2 9 10
M  V30 10 1 10 11
M  V30 11 1 11 12
M  V30 12 2 12 13
M  V30 13 1 13 14
M  V30 14 1 14 15
M  V30 15 1 14 16
M  V30 16 1 14 17
M  V30 17 1 13 18
M  V30 18 2 18 19
M  V30 19 1 19 20
M  V30 20 1 20 21
M  V30 21 2 21 22
M  V30 22 1 21 23
M  V30 23 1 23 24
M  V30 24 2 24 25
M  V30 25 1 25 26
M  V30 26 2 26 27
M  V30 27 1 27 28
M  V30 28 1 28 29
M  V30 29 2 29 30
M  V30 30 1 30 31
M  V30 31 2 31 32
M  V30 32 1 32 33
M  V30 33 1 33 34
M  V30 34 1 34 35
M  V30 35 2 35 36
M  V30 36 1 35 37
M  V30 37 2 37 38
M  V30 38 1 38 39
M  V30 39 1 27 40
M  V30 40 2 40 41
M  V30 41 1 41 42
M  V30 42 2 42 43
M  V30 43 1 43 44
M  V30 44 2 44 45
M  V30 45 1 10 46
M  V30 46 2 46 47
M  V30 47 1 47 7
M  V30 48 1 19 11
M  V30 49 1 45 24
M  V30 50 1 39 29
M  V30 51 1 45 40
M  V30 52 2 39 33
M  V30 53 1 1 48
M  V30 54 1 1 49
M  V30 55 1 1 50
M  V30 56 1 2 51
M  V30 57 1 6 52
M  V30 58 1 6 53
M  V30 59 1 8 54
M  V30 60 1 9 55
M  V30 61 1 15 56
M  V30 62 1 15 57
M  V30 63 1 15 58
M  V30 64 1 16 59
M  V30 65 1 16 60
M  V30 66 1 16 61
M  V30 67 1 17 62
M  V30 68 1 17 63
M  V30 69 1 17 64
M  V30 70 1 18 65
M  V30 71 1 20 66
M  V30 72 1 23 67
M  V30 73 1 25 68
M  V30 74 1 26 69
M  V30 75 1 30 70
M  V30 76 1 31 71
M  V30 77 1 34 72
M  V30 78 1 37 73
M  V30 79 1 41 74
M  V30 80 1 42 75
M  V30 81 1 43 76
M  V30 82 1 44 77
M  V30 83 1 46 78
M  V30 84 1 47 79
M  V30 END BOND
M  V30 END CTAB
M  END
>  <Dataset>  (1) 
ChEMBL_Kinases

>  <Ligand_Instance>  (1) 
nan

>  <PDB_ID>  (1) 
nan

>  <Standardized_SMILES>  (1) 
CNS(=O)(=O)Cc1ccc(-n2nc(C(C)(C)C)cc2NC(=O)Nc2ccc(Oc3ccnc4[nH]c(=O)cnc34)c3ccccc23)cc1

>  <Name>  (1) 
nan

>  <Pocket>  (1) 
nan

>  <ATP_Site>  (1) 
nan

>  <Peripheral>  (1) 
nan

>  <Num_H_Atoms_ProtBoundConf>  (1) 
nan

>  <Num_Resolved_Atoms>  (1) 
nan

>  <Num_Not_Resolved_Atoms>  (1) 
nan

$$$$
CHEMBL3695573
     RDKit          3D

  0  0  0  0  0  0  0  0  0  0999 V3000
M  V30 BEGIN CTAB
M  V30 COUNTS 72 77 0 0 0
M  V30 BEGIN ATOM
M  V30 1 C -0.931209 -7.780009 2.545729 0
M  V30 2 O 0.045951 -6.796150 2.263294 0
M  V30 3 C 0.031749 -6.085191 1.074343 0
M  V30 4 C 1.023408 -5.129392 0.857846 0
M  V30 5 C 1.015480 -4.407449 -0.340594 0
M  V30 6 C 0.034426 -4.634910 -1.307743 0
M  V30 7 N 0.245713 -3.782553 -2.421193 0
M  V30 8 N 1.073800 -3.946182 -3.442513 0
M  V30 9 C 0.978114 -2.912886 -4.290366 0
M  V30 10 C 1.664419 -2.590741 -5.572266 0
M  V30 11 C 2.638575 -3.663029 -5.939394 0
M  V30 12 C 0.635162 -2.440138 -6.671218 0
M  V30 13 C 2.382933 -1.261157 -5.435952 0
M  V30 14 C 0.025494 -2.058352 -3.749893 0
M  V30 15 C -0.437625 -2.618729 -2.558026 0
M  V30 16 N -1.423663 -1.989542 -1.755095 0
M  V30 17 C -1.160825 -1.084054 -0.721427 0
M  V30 18 O 0.063047 -0.886408 -0.579282 0
M  V30 19 N -2.089795 -0.421506 0.115197 0
M  V30 20 C -1.830103 0.490793 1.157361 0
M  V30 21 C -0.581322 0.904885 1.552459 0
M  V30 22 C -0.317378 1.795086 2.568337 0
M  V30 23 C -1.363156 2.345844 3.279651 0
M  V30 24 O -1.290836 3.249838 4.322377 0
M  V30 25 C -0.102914 3.772081 4.792605 0
M  V30 26 C 0.213551 3.483795 6.108117 0
M  V30 27 C 1.386883 3.975511 6.643766 0
M  V30 28 N 2.201256 4.733109 5.857794 0
M  V30 29 C 1.898647 5.016897 4.578231 0
M  V30 30 N 2.724692 5.775937 3.827840 0
M  V30 31 C 2.393938 6.055789 2.535086 0
M  V30 32 O 3.144582 6.755571 1.826085 0
M  V30 33 C 1.221658 5.582492 1.951604 0
M  V30 34 N 0.440541 4.833285 2.746106 0
M  V30 35 C 0.729997 4.540712 4.006908 0
M  V30 36 C -2.648415 1.939250 2.896090 0
M  V30 37 C -3.736452 2.460068 3.575948 0
M  V30 38 C -5.039225 2.125350 3.276976 0
M  V30 39 C -5.273730 1.233414 2.257229 0
M  V30 40 C -4.176346 0.719266 1.584508 0
M  V30 41 C -2.879618 1.030453 1.856526 0
M  V30 42 C -0.935759 -5.584793 -1.071683 0
M  V30 43 C -0.926141 -6.293751 0.107776 0
M  V30 44 H -0.792830 -8.185877 3.551198 0
M  V30 45 H -0.824450 -8.611560 1.793333 0
M  V30 46 H -1.946659 -7.319903 2.449993 0
M  V30 47 H 1.759712 -4.989954 1.635394 0
M  V30 48 H 1.839939 -3.695203 -0.384997 0
M  V30 49 H 2.859882 -4.359294 -5.108301 0
M  V30 50 H 2.239960 -4.302896 -6.775684 0
M  V30 51 H 3.556793 -3.203465 -6.370226 0
M  V30 52 H 1.084915 -2.440846 -7.671460 0
M  V30 53 H -0.089494 -3.266037 -6.600085 0
M  V30 54 H 0.072803 -1.499063 -6.450941 0
M  V30 55 H 1.715780 -0.569046 -4.916125 0
M  V30 56 H 2.570335 -0.901354 -6.460033 0
M  V30 57 H 3.320957 -1.350743 -4.872787 0
M  V30 58 H -0.317708 -1.101408 -4.173322 0
M  V30 59 H -2.424223 -2.202213 -1.930652 0
M  V30 60 H -3.034206 -0.728267 -0.174072 0
M  V30 61 H 0.302016 0.555420 1.085755 0
M  V30 62 H 0.658085 2.093710 2.859612 0
M  V30 63 H -0.418709 2.878918 6.765333 0
M  V30 64 H 1.662773 3.768701 7.666472 0
M  V30 65 H 3.603049 6.139477 4.240688 0
M  V30 66 H 1.001747 5.824957 0.938766 0
M  V30 67 H -3.609677 3.178503 4.401697 0
M  V30 68 H -5.852156 2.561696 3.839666 0
M  V30 69 H -6.307802 0.997184 2.053952 0
M  V30 70 H -4.489104 0.039685 0.816886 0
M  V30 71 H -1.625816 -5.665412 -1.882492 0
M  V30 72 H -1.703143 -7.016347 0.233918 0
M  V30 END ATOM
M  V30 BEGIN BOND
M  V30 1 1 1 2
M  V30 2 1 2 3
M  V30 3 2 3 4
M  V30 4 1 4 5
M  V30 5 2 5 6
M  V30 6 1 6 7
M  V30 7 1 7 8
M  V30 8 2 8 9
M  V30 9 1 9 10
M  V30 10 1 10 11
M  V30 11 1 10 12
M  V30 12 1 10 13
M  V30 13 1 9 14
M  V30 14 2 14 15
M  V30 15 1 15 16
M  V30 16 1 16 17
M  V30 17 2 17 18
M  V30 18 1 17 19
M  V30 19 1 19 20
M  V30 20 2 20 21
M  V30 21 1 21 22
M  V30 22 2 22 23
M  V30 23 1 23 24
M  V30 24 1 24 25
M  V30 25 2 25 26
M  V30 26 1 26 27
M  V30 27 2 27 28
M  V30 28 1 28 29
M  V30 29 1 29 30
M  V30 30 1 30 31
M  V30 31 2 31 32
M  V30 32 1 31 33
M  V30 33 2 33 34
M  V30 34 1 34 35
M  V30 35 1 23 36
M  V30 36 2 36 37
M  V30 37 1 37 38
M  V30 38 2 38 39
M  V30 39 1 39 40
M  V30 40 2 40 41
M  V30 41 1 6 42
M  V30 42 2 42 43
M  V30 43 1 43 3
M  V30 44 1 15 7
M  V30 45 1 41 20
M  V30 46 1 35 25
M  V30 47 1 41 36
M  V30 48 2 35 29
M  V30 49 1 1 44
M  V30 50 1 1 45
M  V30 51 1 1 46
M  V30 52 1 4 47
M  V30 53 1 5 48
M  V30 54 1 11 49
M  V30 55 1 11 50
M  V30 56 1 11 51
M  V30 57 1 12 52
M  V30 58 1 12 53
M  V30 59 1 12 54
M  V30 60 1 13 55
M  V30 61 1 13 56
M  V30 62 1 13 57
M  V30 63 1 14 58
M  V30 64 1 16 59
M  V30 65 1 19 60
M  V30 66 1 21 61
M  V30 67 1 22 62
M  V30 68 1 26 63
M  V30 69 1 27 64
M  V30 70 1 30 65
M  V30 71 1 33 66
M  V30 72 1 37 67
M  V30 73 1 38 68
M  V30 74 1 39 69
M  V30 75 1 40 70
M  V30 76 1 42 71
M  V30 77 1 43 72
M  V30 END BOND
M  V30 END CTAB
M  END
>  <Dataset>  (2) 
ChEMBL_Kinases

>  <Ligand_Instance>  (2) 
nan

>  <PDB_ID>  (2) 
nan

>  <Standardized_SMILES>  (2) 
COc1ccc(-n2nc(C(C)(C)C)cc2NC(=O)Nc2ccc(Oc3ccnc4[nH]c(=O)cnc34)c3ccccc23)cc1

>  <Name>  (2) 
nan

>  <Pocket>  (2) 
nan

>  <ATP_Site>  (2) 
nan

>  <Peripheral>  (2) 
nan

>  <Num_H_Atoms_ProtBoundConf>  (2) 
nan

>  <Num_Resolved_Atoms>  (2) 
nan

>  <Num_Not_Resolved_Atoms>  (2) 
nan

$$$$
CHEMBL3695572
     RDKit          3D

  0  0  0  0  0  0  0  0  0  0999 V3000
M  V30 BEGIN CTAB
M  V30 COUNTS 73 78 0 0 0
M  V30 BEGIN ATOM
M  V30 1 C 4.132694 -3.226861 6.285430 0
M  V30 2 O 4.976027 -3.163611 5.163199 0
M  V30 3 C 4.522293 -2.990843 3.883513 0
M  V30 4 C 5.399882 -2.937666 2.828968 0
M  V30 5 C 4.974292 -2.765120 1.530081 0
M  V30 6 C 3.617622 -2.632404 1.199778 0
M  V30 7 N 3.283132 -2.458746 -0.161978 0
M  V30 8 N 4.080583 -1.837045 -1.026654 0
M  V30 9 C 3.527886 -1.821949 -2.247891 0
M  V30 10 C 4.250432 -1.169733 -3.388346 0
M  V30 11 C 3.400156 -1.305131 -4.607705 0
M  V30 12 C 4.447732 0.310691 -3.122008 0
M  V30 13 C 5.621936 -1.771625 -3.549538 0
M  V30 14 C 2.309759 -2.465515 -2.174750 0
M  V30 15 C 2.200162 -2.845016 -0.854389 0
M  V30 16 N 1.040123 -3.551164 -0.426415 0
M  V30 17 C -0.096451 -2.780398 -0.034902 0
M  V30 18 O -0.019337 -1.506474 -0.087177 0
M  V30 19 N -1.365925 -3.273528 0.427991 0
M  V30 20 C -2.325288 -2.266943 0.750253 0
M  V30 21 C -2.396493 -1.764846 2.029820 0
M  V30 22 C -3.358122 -0.795517 2.208276 0
M  V30 23 C -4.258875 -0.264321 1.266216 0
M  V30 24 O -5.124939 0.681328 1.636750 0
M  V30 25 C -5.500667 1.913649 1.349790 0
M  V30 26 C -6.863453 1.994999 0.999410 0
M  V30 27 C -7.500007 3.183900 0.653756 0
M  V30 28 N -6.780388 4.317665 0.652568 0
M  V30 29 C -5.487575 4.339779 0.969587 0
M  V30 30 N -4.559108 5.307385 1.050042 0
M  V30 31 C -3.425881 4.710546 1.427863 0
M  V30 32 O -2.330721 5.306162 1.608819 0
M  V30 33 N -3.598646 3.380767 1.593874 0
M  V30 34 C -2.596775 2.452856 2.000081 0
M  V30 35 C -4.889087 3.147619 1.306606 0
M  V30 36 C -4.061102 -0.867290 0.041837 0
M  V30 37 C -4.871727 -0.450625 -0.990296 0
M  V30 38 C -4.782840 -0.965449 -2.261357 0
M  V30 39 C -3.863899 -1.940429 -2.574264 0
M  V30 40 C -3.043733 -2.367600 -1.546276 0
M  V30 41 C -3.142907 -1.842620 -0.274394 0
M  V30 42 C 2.796373 -2.693729 2.295281 0
M  V30 43 N 3.237235 -2.862759 3.549000 0
M  V30 44 H 4.239565 -4.202909 6.838691 0
M  V30 45 H 4.441135 -2.434456 7.014203 0
M  V30 46 H 3.094379 -3.105068 5.966061 0
M  V30 47 H 6.464776 -3.033908 3.034702 0
M  V30 48 H 5.743171 -2.734646 0.757234 0
M  V30 49 H 3.466865 -2.284563 -5.119519 0
M  V30 50 H 2.344295 -1.134398 -4.276715 0
M  V30 51 H 3.590662 -0.511637 -5.363086 0
M  V30 52 H 4.382546 0.464465 -2.022598 0
M  V30 53 H 5.403469 0.705669 -3.528146 0
M  V30 54 H 3.648554 0.922034 -3.601468 0
M  V30 55 H 6.084720 -1.812038 -2.548061 0
M  V30 56 H 5.604023 -2.789927 -3.972734 0
M  V30 57 H 6.191823 -1.043026 -4.197814 0
M  V30 58 H 1.667018 -2.590558 -3.018953 0
M  V30 59 H 0.851294 -4.580529 -0.339428 0
M  V30 60 H -1.448194 -4.301070 0.477585 0
M  V30 61 H -1.774246 -2.082967 2.827145 0
M  V30 62 H -3.421445 -0.389252 3.233080 0
M  V30 63 H -7.553420 1.136411 0.965226 0
M  V30 64 H -8.544944 3.235601 0.387463 0
M  V30 65 H -4.668736 6.323122 0.862634 0
M  V30 66 H -1.653724 3.015162 2.251746 0
M  V30 67 H -2.846981 1.910329 2.934646 0
M  V30 68 H -2.314202 1.822916 1.145690 0
M  V30 69 H -5.616858 0.307770 -0.838811 0
M  V30 70 H -5.408861 -0.658693 -3.109046 0
M  V30 71 H -3.732376 -2.394264 -3.547054 0
M  V30 72 H -2.308959 -3.131513 -1.750907 0
M  V30 73 H 1.741012 -2.596076 2.120911 0
M  V30 END ATOM
M  V30 BEGIN BOND
M  V30 1 1 1 2
M  V30 2 1 2 3
M  V30 3 2 3 4
M  V30 4 1 4 5
M  V30 5 2 5 6
M  V30 6 1 6 7
M  V30 7 1 7 8
M  V30 8 2 8 9
M  V30 9 1 9 10
M  V30 10 1 10 11
M  V30 11 1 10 12
M  V30 12 1 10 13
M  V30 13 1 9 14
M  V30 14 2 14 15
M  V30 15 1 15 16
M  V30 16 1 16 17
M  V30 17 2 17 18
M  V30 18 1 17 19
M  V30 19 1 19 20
M  V30 20 2 20 21
M  V30 21 1 21 22
M  V30 22 2 22 23
M  V30 23 1 23 24
M  V30 24 1 24 25
M  V30 25 2 25 26
M  V30 26 1 26 27
M  V30 27 2 27 28
M  V30 28 1 28 29
M  V30 29 1 29 30
M  V30 30 1 30 31
M  V30 31 2 31 32
M  V30 32 1 31 33
M  V30 33 1 33 34
M  V30 34 1 33 35
M  V30 35 1 23 36
M  V30 36 2 36 37
M  V30 37 1 37 38
M  V30 38 2 38 39
M  V30 39 1 39 40
M  V30 40 2 40 41
M  V30 41 1 6 42
M  V30 42 2 42 43
M  V30 43 1 43 3
M  V30 44 1 15 7
M  V30 45 1 41 20
M  V30 46 1 35 25
M  V30 47 1 41 36
M  V30 48 2 35 29
M  V30 49 1 1 44
M  V30 50 1 1 45
M  V30 51 1 1 46
M  V30 52 1 4 47
M  V30 53 1 5 48
M  V30 54 1 11 49
M  V30 55 1 11 50
M  V30 56 1 11 51
M  V30 57 1 12 52
M  V30 58 1 12 53
M  V30 59 1 12 54
M  V30 60 1 13 55
M  V30 61 1 13 56
M  V30 62 1 13 57
M  V30 63 1 14 58
M  V30 64 1 16 59
M  V30 65 1 19 60
M  V30 66 1 21 61
M  V30 67 1 22 62
M  V30 68 1 26 63
M  V30 69 1 27 64
M  V30 70 1 30 65
M  V30 71 1 34 66
M  V30 72 1 34 67
M  V30 73 1 34 68
M  V30 74 1 37 69
M  V30 75 1 38 70
M  V30 76 1 39 71
M  V30 77 1 40 72
M  V30 78 1 42 73
M  V30 END BOND
M  V30 END CTAB
M  END
>  <Dataset>  (3) 
ChEMBL_Kinases

>  <Ligand_Instance>  (3) 
nan

>  <PDB_ID>  (3) 
nan

>  <Standardized_SMILES>  (3) 
COc1ccc(-n2nc(C(C)(C)C)cc2NC(=O)Nc2ccc(Oc3ccnc4[nH]c(=O)n(C)c34)c3ccccc23)cn1

>  <Name>  (3) 
nan

>  <Pocket>  (3) 
nan

>  <ATP_Site>  (3) 
nan

>  <Peripheral>  (3) 
nan

>  <Num_H_Atoms_ProtBoundConf>  (3) 
nan

>  <Num_Resolved_Atoms>  (3) 
nan

>  <Num_Not_Resolved_Atoms>  (3) 
nan

$$$$
CHEMBL4459655
     RDKit          3D

  0  0  0  0  0  0  0  0  0  0999 V3000
M  V30 BEGIN CTAB
M  V30 COUNTS 52 55 0 0 0
M  V30 BEGIN ATOM
M  V30 1 C 4.334068 -2.886768 7.808739 0
M  V30 2 C 4.130118 -2.354743 6.434521 0
M  V30 3 C 4.347791 -1.024174 6.137174 0
M  V30 4 C 4.162190 -0.511330 4.859743 0
M  V30 5 C 3.744519 -1.379760 3.864640 0
M  V30 6 C 3.492680 -1.028785 2.451798 0
M  V30 7 O 3.110801 -1.834350 1.552001 0
M  V30 8 N 3.661141 0.297267 1.947143 0
M  V30 9 C 3.344244 0.330167 0.548932 0
M  V30 10 C 4.268313 0.112908 -0.435433 0
M  V30 11 C 3.894372 0.159384 -1.766694 0
M  V30 12 C 2.561399 0.432981 -2.007937 0
M  V30 13 C 1.585430 0.660441 -1.051510 0
M  V30 14 N 0.249869 0.933275 -1.347453 0
M  V30 15 C -0.489378 2.125853 -1.581476 0
M  V30 16 O -0.103604 3.301651 -1.580538 0
M  V30 17 C -1.930651 2.088953 -1.878547 0
M  V30 18 O -2.362348 0.763631 -1.878952 0
M  V30 19 C -3.621337 0.287034 -2.108539 0
M  V30 20 C -4.744969 1.066694 -2.394687 0
M  V30 21 C -5.995817 0.521542 -2.617963 0
M  V30 22 C -6.105982 -0.858751 -2.547800 0
M  V30 23 C -7.353443 -1.396178 -2.770893 0
M  V30 24 O -8.385395 -0.716300 -3.031260 0
M  V30 25 C -7.491158 -2.779388 -2.706258 0
M  V30 26 C -6.389284 -3.549458 -2.425275 0
M  V30 27 O -5.238686 -2.969949 -2.225159 0
M  V30 28 C -5.022370 -1.682191 -2.267019 0
M  V30 29 C -3.813844 -1.078587 -2.056483 0
M  V30 30 C 2.001912 0.604670 0.263981 0
M  V30 31 C 3.520745 -2.729913 4.153864 0
M  V30 32 C 3.712345 -3.225091 5.440768 0
M  V30 33 H 4.150927 -2.106097 8.575839 0
M  V30 34 H 3.627440 -3.715574 7.975161 0
M  V30 35 H 5.398782 -3.232804 7.869508 0
M  V30 36 H 4.672062 -0.344037 6.904182 0
M  V30 37 H 4.309305 0.498325 4.556221 0
M  V30 38 H 3.976561 1.056668 2.603058 0
M  V30 39 H 5.303238 -0.097536 -0.165790 0
M  V30 40 H 4.582660 -0.004303 -2.577422 0
M  V30 41 H 2.216363 0.480381 -3.047778 0
M  V30 42 H -0.212047 -0.003271 -1.380293 0
M  V30 43 H -2.476944 2.646611 -1.078644 0
M  V30 44 H -2.146958 2.625259 -2.825134 0
M  V30 45 H -4.591455 2.117575 -2.433626 0
M  V30 46 H -6.848112 1.161962 -2.838325 0
M  V30 47 H -8.405577 -3.322575 -2.859729 0
M  V30 48 H -6.313272 -4.623228 -2.337079 0
M  V30 49 H -2.960723 -1.737553 -1.834709 0
M  V30 50 H 1.284855 0.773315 1.030195 0
M  V30 51 H 3.190578 -3.463680 3.411125 0
M  V30 52 H 3.532986 -4.286713 5.653499 0
M  V30 END ATOM
M  V30 BEGIN BOND
M  V30 1 1 1 2
M  V30 2 2 2 3
M  V30 3 1 3 4
M  V30 4 2 4 5
M  V30 5 1 5 6
M  V30 6 2 6 7
M  V30 7 1 6 8
M  V30 8 1 8 9
M  V30 9 2 9 10
M  V30 10 1 10 11
M  V30 11 2 11 12
M  V30 12 1 12 13
M  V30 13 1 13 14
M  V30 14 1 14 15
M  V30 15 2 15 16
M  V30 16 1 15 17
M  V30 17 1 17 18
M  V30 18 1 18 19
M  V30 19 2 19 20
M  V30 20 1 20 21
M  V30 21 2 21 22
M  V30 22 1 22 23
M  V30 23 2 23 24
M  V30 24 1 23 25
M  V30 25 2 25 26
M  V30 26 1 26 27
M  V30 27 1 27 28
M  V30 28 2 28 29
M  V30 29 2 13 30
M  V30 30 1 5 31
M  V30 31 2 31 32
M  V30 32 1 32 2
M  V30 33 1 30 9
M  V30 34 1 29 19
M  V30 35 1 28 22
M  V30 36 1 1 33
M  V30 37 1 1 34
M  V30 38 1 1 35
M  V30 39 1 3 36
M  V30 40 1 4 37
M  V30 41 1 8 38
M  V30 42 1 10 39
M  V30 43 1 11 40
M  V30 44 1 12 41
M  V30 45 1 14 42
M  V30 46 1 17 43
M  V30 47 1 17 44
M  V30 48 1 20 45
M  V30 49 1 21 46
M  V30 50 1 25 47
M  V30 51 1 26 48
M  V30 52 1 29 49
M  V30 53 1 30 50
M  V30 54 1 31 51
M  V30 55 1 32 52
M  V30 END BOND
M  V30 END CTAB
M  END
>  <Dataset>  (4) 
ChEMBL_Kinases

>  <Ligand_Instance>  (4) 
nan

>  <PDB_ID>  (4) 
nan

>  <Standardized_SMILES>  (4) 
Cc1ccc(C(=O)Nc2cccc(NC(=O)COc3ccc4c(=O)ccoc4c3)c2)cc1

>  <Name>  (4) 
nan

>  <Pocket>  (4) 
nan

>  <ATP_Site>  (4) 
nan

>  <Peripheral>  (4) 
nan

>  <Num_H_Atoms_ProtBoundConf>  (4) 
nan

>  <Num_Resolved_Atoms>  (4) 
nan

>  <Num_Not_Resolved_Atoms>  (4) 
nan

$$$$
CHEMBL4569209
     RDKit          3D

  0  0  0  0  0  0  0  0  0  0999 V3000
M  V30 BEGIN CTAB
M  V30 COUNTS 45 47 0 0 0
M  V30 BEGIN ATOM
M  V30 1 C -1.115544 -5.851831 -0.689631 0
M  V30 2 C 0.181655 -5.467814 -0.091708 0
M  V30 3 N 1.019606 -6.115326 0.757456 0
M  V30 4 N 2.080979 -5.382112 1.031665 0
M  V30 5 C 1.966423 -4.211362 0.357298 0
M  V30 6 C 0.767243 -4.245546 -0.362274 0
M  V30 7 C 0.388557 -3.100253 -1.186658 0
M  V30 8 C -0.095493 -3.150501 -2.478659 0
M  V30 9 N -0.415848 -2.031168 -3.148265 0
M  V30 10 C -0.295979 -0.786521 -2.629793 0
M  V30 11 C 0.189771 -0.676544 -1.323683 0
M  V30 12 C 0.346553 0.648209 -0.686098 0
M  V30 13 C 0.662818 1.775671 -1.415337 0
M  V30 14 C 0.776201 2.946873 -0.696179 0
M  V30 15 C 0.589520 3.013211 0.668565 0
M  V30 16 C 0.730383 4.299109 1.339902 0
M  V30 17 N 1.050517 5.514835 0.680250 0
M  V30 18 O 0.579171 4.459416 2.592095 0
M  V30 19 C 0.275163 1.890542 1.391528 0
M  V30 20 O 0.105398 2.048638 2.756403 0
M  V30 21 C -0.208028 1.066464 3.685508 0
M  V30 22 C -1.492416 1.435093 4.424151 0
M  V30 23 C 0.888113 1.049811 4.730281 0
M  V30 24 C 0.161792 0.723274 0.677793 0
M  V30 25 C 0.522251 -1.828639 -0.627419 0
M  V30 26 H -1.873744 -5.061267 -0.548306 0
M  V30 27 H -0.966114 -6.094408 -1.755693 0
M  V30 28 H -1.436218 -6.787992 -0.170325 0
M  V30 29 H 0.756488 -7.073766 1.091012 0
M  V30 30 H 2.752907 -3.464476 0.455678 0
M  V30 31 H -0.200092 -4.127176 -2.911808 0
M  V30 32 H -0.550332 0.113325 -3.161024 0
M  V30 33 H 0.804588 1.707739 -2.473175 0
M  V30 34 H 1.026588 3.876538 -1.223328 0
M  V30 35 H 0.213443 5.956667 0.239603 0
M  V30 36 H 2.076482 5.728569 0.769803 0
M  V30 37 H -0.293892 0.060198 3.221744 0
M  V30 38 H -2.264910 0.688179 4.102754 0
M  V30 39 H -1.371946 1.373235 5.530876 0
M  V30 40 H -1.889975 2.412470 4.149499 0
M  V30 41 H 0.475691 1.018239 5.765620 0
M  V30 42 H 1.497115 1.974078 4.681693 0
M  V30 43 H 1.603204 0.217080 4.607417 0
M  V30 44 H -0.083214 -0.168918 1.219619 0
M  V30 45 H 0.893960 -1.744846 0.371293 0
M  V30 END ATOM
M  V30 BEGIN BOND
M  V30 1 1 1 2
M  V30 2 1 2 3
M  V30 3 1 3 4
M  V30 4 2 4 5
M  V30 5 1 5 6
M  V30 6 1 6 7
M  V30 7 2 7 8
M  V30 8 1 8 9
M  V30 9 2 9 10
M  V30 10 1 10 11
M  V30 11 1 11 12
M  V30 12 2 12 13
M  V30 13 1 13 14
M  V30 14 2 14 15
M  V30 15 1 15 16
M  V30 16 1 16 17
M  V30 17 2 16 18
M  V30 18 1 15 19
M  V30 19 1 19 20
M  V30 20 1 20 21
M  V30 21 1 21 22
M  V30 22 1 21 23
M  V30 23 2 19 24
M  V30 24 2 11 25
M  V30 25 2 6 2
M  V30 26 1 25 7
M  V30 27 1 24 12
M  V30 28 1 1 26
M  V30 29 1 1 27
M  V30 30 1 1 28
M  V30 31 1 3 29
M  V30 32 1 5 30
M  V30 33 1 8 31
M  V30 34 1 10 32
M  V30 35 1 13 33
M  V30 36 1 14 34
M  V30 37 1 17 35
M  V30 38 1 17 36
M  V30 39 1 21 37
M  V30 40 1 22 38
M  V30 41 1 22 39
M  V30 42 1 22 40
M  V30 43 1 23 41
M  V30 44 1 23 42
M  V30 45 1 23 43
M  V30 46 1 24 44
M  V30 47 1 25 45
M  V30 END BOND
M  V30 END CTAB
M  END
>  <Dataset>  (5) 
ChEMBL_Kinases

>  <Ligand_Instance>  (5) 
nan

>  <PDB_ID>  (5) 
nan

>  <Standardized_SMILES>  (5) 
Cc1[nH]ncc1-c1cncc(-c2ccc(C(N)=O)c(OC(C)C)c2)c1

>  <Name>  (5) 
nan

>  <Pocket>  (5) 
nan

>  <ATP_Site>  (5) 
nan

>  <Peripheral>  (5) 
nan

>  <Num_H_Atoms_ProtBoundConf>  (5) 
nan

>  <Num_Resolved_Atoms>  (5) 
nan

>  <Num_Not_Resolved_Atoms>  (5) 
nan

$$$$
CHEMBL3702135
     RDKit          3D

  0  0  0  0  0  0  0  0  0  0999 V3000
M  V30 BEGIN CTAB
M  V30 COUNTS 55 60 0 0 0
M  V30 BEGIN ATOM
M  V30 1 C -0.399456 0.879936 -2.984201 0
M  V30 2 C -0.655691 1.690690 -1.900012 0
M  V30 3 C 0.281315 1.940591 -0.912706 0
M  V30 4 C 1.542506 1.349308 -1.012784 0
M  V30 5 N 2.515085 1.582052 -0.029035 0
M  V30 6 C 3.614521 2.375622 -0.108447 0
M  V30 7 C 4.125077 3.177841 -1.119446 0
M  V30 8 N 5.274939 3.891419 -0.940976 0
M  V30 9 C 5.941529 3.826876 0.236621 0
M  V30 10 C 5.474401 3.037310 1.286458 0
M  V30 11 C 4.308676 2.323871 1.083110 0
M  V30 12 C 3.637455 1.478347 1.942579 0
M  V30 13 C 3.768110 1.000863 3.217685 0
M  V30 14 N 2.905338 0.146929 3.799480 0
M  V30 15 C 1.811237 -0.306860 3.123950 0
M  V30 16 N 0.860267 -1.203416 3.665534 0
M  V30 17 C -0.245274 -1.612197 2.869542 0
M  V30 18 C -0.069467 -2.748855 2.098029 0
M  V30 19 C -1.084429 -3.226623 1.290539 0
M  V30 20 C -2.296939 -2.621396 1.204779 0
M  V30 21 N -3.375456 -3.058612 0.399955 0
M  V30 22 C -4.675358 -2.418173 0.297218 0
M  V30 23 C -5.730245 -3.372704 0.771257 0
M  V30 24 N -5.393007 -4.725232 0.800784 0
M  V30 25 C -4.329950 -5.216350 0.045554 0
M  V30 26 C -3.300358 -4.230396 -0.434611 0
M  V30 27 C -2.417703 -1.495602 1.992635 0
M  V30 28 N -1.438499 -1.012951 2.787912 0
M  V30 29 C 1.678896 0.176600 1.832778 0
M  V30 30 C 2.549205 1.053614 1.210816 0
M  V30 31 C 1.758814 0.544254 -2.113860 0
M  V30 32 C 0.848825 0.270012 -3.121297 0
M  V30 33 H -1.137501 0.685555 -3.758073 0
M  V30 34 H -1.634714 2.170327 -1.790544 0
M  V30 35 H 0.026076 2.585781 -0.082931 0
M  V30 36 H 3.569783 3.208496 -2.048493 0
M  V30 37 H 6.850295 4.402780 0.350878 0
M  V30 38 H 5.990427 2.971000 2.234773 0
M  V30 39 H 4.643184 1.353407 3.781348 0
M  V30 40 H 1.027592 -1.526881 4.653105 0
M  V30 41 H 0.891193 -3.282817 2.125252 0
M  V30 42 H -0.877467 -4.105577 0.726042 0
M  V30 43 H -4.739340 -1.425177 0.731994 0
M  V30 44 H -4.866531 -2.269060 -0.806319 0
M  V30 45 H -6.666597 -3.192247 0.197936 0
M  V30 46 H -5.997300 -3.056084 1.819916 0
M  V30 47 H -5.679134 -5.269887 1.634649 0
M  V30 48 H -3.754643 -5.945690 0.687711 0
M  V30 49 H -4.644806 -5.828807 -0.824715 0
M  V30 50 H -3.627589 -3.907949 -1.468019 0
M  V30 51 H -2.315920 -4.662263 -0.574304 0
M  V30 52 H -3.307923 -0.888427 2.051999 0
M  V30 53 H 0.810558 -0.173925 1.274926 0
M  V30 54 H 2.761491 0.099539 -2.154339 0
M  V30 55 H 1.139587 -0.379797 -3.935386 0
M  V30 END ATOM
M  V30 BEGIN BOND
M  V30 1 2 1 2
M  V30 2 1 2 3
M  V30 3 2 3 4
M  V30 4 1 4 5
M  V30 5 1 5 6
M  V30 6 2 6 7
M  V30 7 1 7 8
M  V30 8 2 8 9
M  V30 9 1 9 10
M  V30 10 2 10 11
M  V30 11 1 11 12
M  V30 12 2 12 13
M  V30 13 1 13 14
M  V30 14 2 14 15
M  V30 15 1 15 16
M  V30 16 1 16 17
M  V30 17 2 17 18
M  V30 18 1 18 19
M  V30 19 2 19 20
M  V30 20 1 20 21
M  V30 21 1 21 22
M  V30 22 1 22 23
M  V30 23 1 23 24
M  V30 24 1 24 25
M  V30 25 1 25 26
M  V30 26 1 20 27
M  V30 27 2 27 28
M  V30 28 1 15 29
M  V30 29 2 29 30
M  V30 30 1 4 31
M  V30 31 2 31 32
M  V30 32 1 32 1
M  V30 33 1 30 5
M  V30 34 1 11 6
M  V30 35 1 30 12
M  V30 36 1 28 17
M  V30 37 1 26 21
M  V30 38 1 1 33
M  V30 39 1 2 34
M  V30 40 1 3 35
M  V30 41 1 7 36
M  V30 42 1 9 37
M  V30 43 1 10 38
M  V30 44 1 13 39
M  V30 45 1 16 40
M  V30 46 1 18 41
M  V30 47 1 19 42
M  V30 48 1 22 43
M  V30 49 1 22 44
M  V30 50 1 23 45
M  V30 51 1 23 46
M  V30 52 1 24 47
M  V30 53 1 25 48
M  V30 54 1 25 49
M  V30 55 1 26 50
M  V30 56 1 26 51
M  V30 57 1 27 52
M  V30 58 1 29 53
M  V30 59 1 31 54
M  V30 60 1 32 55
M  V30 END BOND
M  V30 END CTAB
M  END
>  <Dataset>  (6) 
ChEMBL_Kinases

>  <Ligand_Instance>  (6) 
nan

>  <PDB_ID>  (6) 
nan

>  <Standardized_SMILES>  (6) 
c1ccc(-n2c3cnccc3c3cnc(Nc4ccc(N5CCNCC5)cn4)cc32)cc1

>  <Name>  (6) 
nan

>  <Pocket>  (6) 
nan

>  <ATP_Site>  (6) 
nan

>  <Peripheral>  (6) 
nan

>  <Num_H_Atoms_ProtBoundConf>  (6) 
nan

>  <Num_Resolved_Atoms>  (6) 
nan

>  <Num_Not_Resolved_Atoms>  (6) 
nan

$$$$
CHEMBL2392355
     RDKit          3D

  0  0  0  0  0  0  0  0  0  0999 V3000
M  V30 BEGIN CTAB
M  V30 COUNTS 24 25 0 0 0
M  V30 BEGIN ATOM
M  V30 1 C 2.054102 -1.099880 4.154554 0
M  V30 2 O 1.901138 -2.181043 3.251114 0
M  V30 3 C 1.358777 -1.975844 1.990795 0
M  V30 4 C 1.222357 -3.060240 1.127366 0
M  V30 5 C 0.697321 -2.959546 -0.139819 0
M  V30 6 C 0.273886 -1.733670 -0.611193 0
M  V30 7 C 0.396016 -0.640245 0.220783 0
M  V30 8 C -0.029857 0.687448 -0.207654 0
M  V30 9 N 0.100920 1.726661 0.619985 0
M  V30 10 C -0.270931 2.981422 0.291868 0
M  V30 11 C -0.805355 3.140814 -0.970587 0
M  V30 12 C -0.962657 2.091931 -1.869348 0
M  V30 13 N -0.553665 0.870089 -1.432318 0
M  V30 14 C 0.920788 -0.755489 1.480294 0
M  V30 15 H 2.159587 -1.446115 5.199820 0
M  V30 16 H 1.123061 -0.475653 4.076089 0
M  V30 17 H 2.921135 -0.456945 3.928402 0
M  V30 18 H 1.542257 -4.054490 1.450765 0
M  V30 19 H 0.598935 -3.818388 -0.799457 0
M  V30 20 H -0.149382 -1.570671 -1.593390 0
M  V30 21 H -0.160205 3.826418 0.975815 0
M  V30 22 H -1.114623 4.141477 -1.264122 0
M  V30 23 H -1.385122 2.264017 -2.845192 0
M  V30 24 H 1.013656 0.089688 2.119441 0
M  V30 END ATOM
M  V30 BEGIN BOND
M  V30 1 1 1 2
M  V30 2 1 2 3
M  V30 3 2 3 4
M  V30 4 1 4 5
M  V30 5 2 5 6
M  V30 6 1 6 7
M  V30 7 1 7 8
M  V30 8 2 8 9
M  V30 9 1 9 10
M  V30 10 2 10 11
M  V30 11 1 11 12
M  V30 12 2 12 13
M  V30 13 2 7 14
M  V30 14 1 14 3
M  V30 15 1 13 8
M  V30 16 1 1 15
M  V30 17 1 1 16
M  V30 18 1 1 17
M  V30 19 1 4 18
M  V30 20 1 5 19
M  V30 21 1 6 20
M  V30 22 1 10 21
M  V30 23 1 11 22
M  V30 24 1 12 23
M  V30 25 1 14 24
M  V30 END BOND
M  V30 END CTAB
M  END
>  <Dataset>  (7) 
ChEMBL_Kinases

>  <Ligand_Instance>  (7) 
nan

>  <PDB_ID>  (7) 
nan

>  <Standardized_SMILES>  (7) 
COc1cccc(-c2ncccn2)c1

>  <Name>  (7) 
nan

>  <Pocket>  (7) 
nan

>  <ATP_Site>  (7) 
nan

>  <Peripheral>  (7) 
nan

>  <Num_H_Atoms_ProtBoundConf>  (7) 
nan

>  <Num_Resolved_Atoms>  (7) 
nan

>  <Num_Not_Resolved_Atoms>  (7) 
nan

$$$$
CHEMBL2392229
     RDKit          3D

  0  0  0  0  0  0  0  0  0  0999 V3000
M  V30 BEGIN CTAB
M  V30 COUNTS 38 41 0 0 0
M  V30 BEGIN ATOM
M  V30 1 Cl -2.053322 -1.084108 4.360577 0
M  V30 2 C -0.923952 -1.976730 3.374573 0
M  V30 3 C -1.333944 -2.473515 2.138429 0
M  V30 4 C -0.492665 -3.183405 1.316293 0
M  V30 5 C 0.814412 -3.396608 1.767025 0
M  V30 6 C 1.663545 -4.172754 0.821470 0
M  V30 7 N 2.349775 -3.274400 -0.098431 0
M  V30 8 C 1.481590 -2.462052 -0.905561 0
M  V30 9 C 1.152339 -1.222823 -0.344663 0
M  V30 10 C 0.326167 -0.352640 -1.021252 0
M  V30 11 C -0.075937 0.957554 -0.526421 0
M  V30 12 C -0.910116 1.712703 -1.324238 0
M  V30 13 C -1.317392 2.977366 -0.883475 0
M  V30 14 C -0.899261 3.484173 0.336779 0
M  V30 15 C -0.064534 2.728148 1.134812 0
M  V30 16 C 0.325948 1.484044 0.683066 0
M  V30 17 O 0.175326 3.489711 2.271102 0
M  V30 18 C -0.130696 4.856553 1.990952 0
M  V30 19 O -1.152167 4.694007 1.003834 0
M  V30 20 N -0.139523 -0.738768 -2.218440 0
M  V30 21 C 0.183007 -1.948342 -2.763787 0
M  V30 22 N 0.993889 -2.826476 -2.122109 0
M  V30 23 C 1.207431 -2.904285 2.983228 0
M  V30 24 C 0.384676 -2.199431 3.807847 0
M  V30 25 H -2.356327 -2.305112 1.789311 0
M  V30 26 H -0.855998 -3.550674 0.362921 0
M  V30 27 H 1.064787 -4.891623 0.237801 0
M  V30 28 H 2.394496 -4.755855 1.426323 0
M  V30 29 H 3.333029 -3.026021 -0.365863 0
M  V30 30 H 1.535840 -0.926220 0.621397 0
M  V30 31 H -1.302205 1.421623 -2.297757 0
M  V30 32 H -1.969165 3.601576 -1.475120 0
M  V30 33 H 0.978244 0.904289 1.316861 0
M  V30 34 H 0.804146 5.256835 1.514451 0
M  V30 35 H -0.458049 5.412078 2.866136 0
M  V30 36 H -0.222643 -2.195603 -3.723676 0
M  V30 37 H 2.232787 -3.108947 3.264109 0
M  V30 38 H 0.731180 -1.825400 4.763675 0
M  V30 END ATOM
M  V30 BEGIN BOND
M  V30 1 1 1 2
M  V30 2 2 2 3
M  V30 3 1 3 4
M  V30 4 2 4 5
M  V30 5 1 5 6
M  V30 6 1 6 7
M  V30 7 1 7 8
M  V30 8 2 8 9
M  V30 9 1 9 10
M  V30 10 1 10 11
M  V30 11 2 11 12
M  V30 12 1 12 13
M  V30 13 2 13 14
M  V30 14 1 14 15
M  V30 15 2 15 16
M  V30 16 1 15 17
M  V30 17 1 17 18
M  V30 18 1 18 19
M  V30 19 2 10 20
M  V30 20 1 20 21
M  V30 21 2 21 22
M  V30 22 1 5 23
M  V30 23 2 23 24
M  V30 24 1 24 2
M  V30 25 1 22 8
M  V30 26 1 16 11
M  V30 27 1 19 14
M  V30 28 1 3 25
M  V30 29 1 4 26
M  V30 30 1 6 27
M  V30 31 1 6 28
M  V30 32 1 7 29
M  V30 33 1 9 30
M  V30 34 1 12 31
M  V30 35 1 13 32
M  V30 36 1 16 33
M  V30 37 1 18 34
M  V30 38 1 18 35
M  V30 39 1 21 36
M  V30 40 1 23 37
M  V30 41 1 24 38
M  V30 END BOND
M  V30 END CTAB
M  END
>  <Dataset>  (8) 
ChEMBL_Kinases

>  <Ligand_Instance>  (8) 
nan

>  <PDB_ID>  (8) 
nan

>  <Standardized_SMILES>  (8) 
Clc1ccc(CNc2cc(-c3ccc4c(c3)OCO4)ncn2)cc1

>  <Name>  (8) 
nan

>  <Pocket>  (8) 
nan

>  <ATP_Site>  (8) 
nan

>  <Peripheral>  (8) 
nan

>  <Num_H_Atoms_ProtBoundConf>  (8) 
nan

>  <Num_Resolved_Atoms>  (8) 
nan

>  <Num_Not_Resolved_Atoms>  (8) 
nan

$$$$
CHEMBL2391125
     RDKit          3D

  0  0  0  0  0  0  0  0  0  0999 V3000
M  V30 BEGIN CTAB
M  V30 COUNTS 52 56 0 0 0
M  V30 BEGIN ATOM
M  V30 1 C 1.889995 -7.087435 0.766018 0
M  V30 2 O 1.034472 -6.000266 1.075857 0
M  V30 3 C 1.464069 -4.729879 0.712053 0
M  V30 4 C 0.649693 -3.655029 1.002694 0
M  V30 5 C 0.990220 -2.356326 0.681042 0
M  V30 6 C 2.212302 -2.144623 0.036014 0
M  V30 7 C 2.483443 -0.743467 -0.263931 0
M  V30 8 C 2.958864 -0.350959 -1.499339 0
M  V30 9 C 3.213513 0.975521 -1.771666 0
M  V30 10 C 2.980948 1.900744 -0.777874 0
M  V30 11 C 3.188555 3.382067 -0.861710 0
M  V30 12 S 1.640331 4.164659 -1.454207 0
M  V30 13 C 0.352782 3.959277 -0.224477 0
M  V30 14 N -0.081542 4.666786 0.852594 0
M  V30 15 N -1.087388 3.974287 1.359831 0
M  V30 16 C -1.294422 2.859737 0.635583 0
M  V30 17 C -2.294617 1.785379 0.811004 0
M  V30 18 C -2.285027 0.758314 -0.078990 0
M  V30 19 C -3.205043 -0.273812 0.046315 0
M  V30 20 C -4.106433 -0.208246 1.091098 0
M  V30 21 C -4.083575 0.843867 1.966892 0
M  V30 22 C -3.180419 1.871921 1.856543 0
M  V30 23 O -5.051896 0.758501 2.955967 0
M  V30 24 C -5.441841 -0.462509 3.547661 0
M  V30 25 C -5.524371 -1.585614 2.543088 0
M  V30 26 O -5.049322 -1.207521 1.269419 0
M  V30 27 O -0.398740 2.872192 -0.331211 0
M  V30 28 C 2.500980 1.504660 0.469150 0
M  V30 29 C 2.244247 0.187888 0.751068 0
M  V30 30 C 3.030620 -3.215311 -0.257095 0
M  V30 31 C 4.267980 -2.922349 -0.917575 0
M  V30 32 N 5.265727 -2.671857 -1.446737 0
M  V30 33 C 2.679759 -4.508713 0.069172 0
M  V30 34 H 2.924117 -6.865942 1.150535 0
M  V30 35 H 1.487984 -8.048768 1.152135 0
M  V30 36 H 1.991419 -7.107771 -0.352229 0
M  V30 37 H -0.308746 -3.837973 1.510701 0
M  V30 38 H 0.302739 -1.549662 0.937842 0
M  V30 39 H 3.146439 -1.051052 -2.286037 0
M  V30 40 H 3.585094 1.384012 -2.701614 0
M  V30 41 H 3.925258 3.558809 -1.674510 0
M  V30 42 H 3.544791 3.801121 0.078151 0
M  V30 43 H -1.600916 0.662199 -0.911730 0
M  V30 44 H -3.205893 -1.106379 -0.665747 0
M  V30 45 H -3.207292 2.677882 2.576301 0
M  V30 46 H -6.442417 -0.333588 3.998372 0
M  V30 47 H -4.722568 -0.694259 4.371653 0
M  V30 48 H -6.564115 -1.953829 2.423888 0
M  V30 49 H -4.941608 -2.450869 2.913314 0
M  V30 50 H 2.295450 2.189054 1.301098 0
M  V30 51 H 1.868379 -0.173425 1.709908 0
M  V30 52 H 3.322357 -5.337987 -0.162594 0
M  V30 END ATOM
M  V30 BEGIN BOND
M  V30 1 1 1 2
M  V30 2 1 2 3
M  V30 3 2 3 4
M  V30 4 1 4 5
M  V30 5 2 5 6
M  V30 6 1 6 7
M  V30 7 2 7 8
M  V30 8 1 8 9
M  V30 9 2 9 10
M  V30 10 1 10 11
M  V30 11 1 11 12
M  V30 12 1 12 13
M  V30 13 2 13 14
M  V30 14 1 14 15
M  V30 15 2 15 16
M  V30 16 1 16 17
M  V30 17 2 17 18
M  V30 18 1 18 19
M  V30 19 2 19 20
M  V30 20 1 20 21
M  V30 21 2 21 22
M  V30 22 1 21 23
M  V30 23 1 23 24
M  V30 24 1 24 25
M  V30 25 1 25 26
M  V30 26 1 16 27
M  V30 27 1 10 28
M  V30 28 2 28 29
M  V30 29 1 6 30
M  V30 30 1 30 31
M  V30 31 3 31 32
M  V30 32 2 30 33
M  V30 33 1 33 3
M  V30 34 1 29 7
M  V30 35 1 27 13
M  V30 36 1 22 17
M  V30 37 1 26 20
M  V30 38 1 1 34
M  V30 39 1 1 35
M  V30 40 1 1 36
M  V30 41 1 4 37
M  V30 42 1 5 38
M  V30 43 1 8 39
M  V30 44 1 9 40
M  V30 45 1 11 41
M  V30 46 1 11 42
M  V30 47 1 18 43
M  V30 48 1 19 44
M  V30 49 1 22 45
M  V30 50 1 24 46
M  V30 51 1 24 47
M  V30 52 1 25 48
M  V30 53 1 25 49
M  V30 54 1 28 50
M  V30 55 1 29 51
M  V30 56 1 33 52
M  V30 END BOND
M  V30 END CTAB
M  END
>  <Dataset>  (9) 
ChEMBL_Kinases

>  <Ligand_Instance>  (9) 
nan

>  <PDB_ID>  (9) 
nan

>  <Standardized_SMILES>  (9) 
COc1ccc(-c2ccc(CSc3nnc(-c4ccc5c(c4)OCCO5)o3)cc2)c(C#N)c1

>  <Name>  (9) 
nan

>  <Pocket>  (9) 
nan

>  <ATP_Site>  (9) 
nan

>  <Peripheral>  (9) 
nan

>  <Num_H_Atoms_ProtBoundConf>  (9) 
nan

>  <Num_Resolved_Atoms>  (9) 
nan

>  <Num_Not_Resolved_Atoms>  (9) 
nan

$$$$
CHEMBL3695584
     RDKit          3D

  0  0  0  0  0  0  0  0  0  0999 V3000
M  V30 BEGIN CTAB
M  V30 COUNTS 77 82 0 0 0
M  V30 BEGIN ATOM
M  V30 1 C 2.548805 0.085342 -1.854076 0
M  V30 2 C 2.729948 0.965912 -3.038583 0
M  V30 3 N 4.101874 1.391705 -3.122046 0
M  V30 4 C 5.121951 0.779213 -3.791085 0
M  V30 5 O 4.954911 -0.297144 -4.442359 0
M  V30 6 N 6.269367 1.436330 -3.673331 0
M  V30 7 C 6.002021 2.508465 -2.908148 0
M  V30 8 N 6.735830 3.531085 -2.443519 0
M  V30 9 C 6.231024 4.497567 -1.682677 0
M  V30 10 C 4.886559 4.435853 -1.361093 0
M  V30 11 C 4.016620 3.407733 -1.792434 0
M  V30 12 O 2.801200 3.577466 -1.352808 0
M  V30 13 C 1.768210 3.150447 -0.677759 0
M  V30 14 C 0.499012 3.003854 -1.229018 0
M  V30 15 C -0.663582 2.567843 -0.636132 0
M  V30 16 C -0.510361 2.238454 0.693015 0
M  V30 17 N -1.662065 1.780995 1.390576 0
M  V30 18 C -1.889769 0.392073 1.361412 0
M  V30 19 O -1.131917 -0.377931 0.763957 0
M  V30 20 N -2.891440 -0.406846 1.917164 0
M  V30 21 C -3.349837 -1.718651 2.046102 0
M  V30 22 C -4.452777 -2.191403 2.724740 0
M  V30 23 C -4.440248 -3.550998 2.527384 0
M  V30 24 C -5.522374 -4.386792 3.142873 0
M  V30 25 C -6.701389 -4.531627 2.227298 0
M  V30 26 C -5.945847 -3.814179 4.462362 0
M  V30 27 C -4.994245 -5.788332 3.437149 0
M  V30 28 N -3.381421 -3.849958 1.771153 0
M  V30 29 N -2.706344 -2.735398 1.470472 0
M  V30 30 C -1.594841 -3.084586 0.670091 0
M  V30 31 C -1.899383 -3.102724 -0.698769 0
M  V30 32 C -0.991595 -3.429477 -1.683296 0
M  V30 33 C 0.284126 -3.754215 -1.279221 0
M  V30 34 O 1.301837 -4.103373 -2.155923 0
M  V30 35 C 1.105665 -4.154277 -3.556312 0
M  V30 36 C 0.624263 -3.748944 0.050240 0
M  V30 37 C -0.282498 -3.422467 1.035094 0
M  V30 38 C 0.681346 2.330804 1.375243 0
M  V30 39 C 0.748055 1.980522 2.699220 0
M  V30 40 C 1.945761 2.068848 3.392377 0
M  V30 41 C 3.068551 2.515045 2.726988 0
M  V30 42 C 2.936035 2.850696 1.400408 0
M  V30 43 C 1.772661 2.781870 0.666742 0
M  V30 44 C 4.667113 2.476511 -2.571003 0
M  V30 45 H 3.174969 0.532559 -1.028402 0
M  V30 46 H 1.498682 -0.048110 -1.527229 0
M  V30 47 H 2.969816 -0.920837 -2.023935 0
M  V30 48 H 2.594296 0.276360 -3.935761 0
M  V30 49 H 2.005534 1.749218 -3.215211 0
M  V30 50 H 7.205527 1.213443 -4.068729 0
M  V30 51 H 6.901193 5.270834 -1.362690 0
M  V30 52 H 4.590945 5.290618 -0.728829 0
M  V30 53 H 0.416246 3.278768 -2.293151 0
M  V30 54 H -1.576642 2.510558 -1.208646 0
M  V30 55 H -2.374187 2.316351 1.926972 0
M  V30 56 H -3.496899 0.283948 2.405026 0
M  V30 57 H -5.153546 -1.569076 3.283865 0
M  V30 58 H -7.324859 -5.363969 2.627572 0
M  V30 59 H -7.321952 -3.601028 2.236269 0
M  V30 60 H -6.369623 -4.773807 1.187060 0
M  V30 61 H -6.569413 -2.900312 4.375767 0
M  V30 62 H -6.591675 -4.579037 4.971312 0
M  V30 63 H -5.087995 -3.629907 5.132943 0
M  V30 64 H -5.333320 -6.493830 2.649150 0
M  V30 65 H -3.887623 -5.792343 3.485375 0
M  V30 66 H -5.352349 -6.185967 4.402835 0
M  V30 67 H -2.891610 -2.856628 -1.101512 0
M  V30 68 H -1.231838 -3.441473 -2.729062 0
M  V30 69 H 1.165808 -3.156914 -4.008655 0
M  V30 70 H 1.878165 -4.820820 -4.024728 0
M  V30 71 H 0.104057 -4.625530 -3.715810 0
M  V30 72 H 1.611584 -3.994394 0.443956 0
M  V30 73 H -0.157550 -3.377003 2.101358 0
M  V30 74 H -0.139930 1.635122 3.197612 0
M  V30 75 H 1.992527 1.790652 4.439070 0
M  V30 76 H 3.980744 2.575274 3.279128 0
M  V30 77 H 3.841843 3.188979 0.930287 0
M  V30 END ATOM
M  V30 BEGIN BOND
M  V30 1 1 1 2
M  V30 2 1 2 3
M  V30 3 1 3 4
M  V30 4 2 4 5
M  V30 5 1 4 6
M  V30 6 1 6 7
M  V30 7 2 7 8
M  V30 8 1 8 9
M  V30 9 2 9 10
M  V30 10 1 10 11
M  V30 11 1 11 12
M  V30 12 1 12 13
M  V30 13 2 13 14
M  V30 14 1 14 15
M  V30 15 2 15 16
M  V30 16 1 16 17
M  V30 17 1 17 18
M  V30 18 2 18 19
M  V30 19 1 18 20
M  V30 20 1 20 21
M  V30 21 2 21 22
M  V30 22 1 22 23
M  V30 23 1 23 24
M  V30 24 1 24 25
M  V30 25 1 24 26
M  V30 26 1 24 27
M  V30 27 2 23 28
M  V30 28 1 28 29
M  V30 29 1 29 30
M  V30 30 2 30 31
M  V30 31 1 31 32
M  V30 32 2 32 33
M  V30 33 1 33 34
M  V30 34 1 34 35
M  V30 35 1 33 36
M  V30 36 2 36 37
M  V30 37 1 16 38
M  V30 38 2 38 39
M  V30 39 1 39 40
M  V30 40 2 40 41
M  V30 41 1 41 42
M  V30 42 2 42 43
M  V30 43 2 11 44
M  V30 44 1 44 3
M  V30 45 1 44 7
M  V30 46 1 43 13
M  V30 47 1 29 21
M  V30 48 1 37 30
M  V30 49 1 43 38
M  V30 50 1 1 45
M  V30 51 1 1 46
M  V30 52 1 1 47
M  V30 53 1 2 48
M  V30 54 1 2 49
M  V30 55 1 6 50
M  V30 56 1 9 51
M  V30 57 1 10 52
M  V30 58 1 14 53
M  V30 59 1 15 54
M  V30 60 1 17 55
M  V30 61 1 20 56
M  V30 62 1 22 57
M  V30 63 1 25 58
M  V30 64 1 25 59
M  V30 65 1 25 60
M  V30 66 1 26 61
M  V30 67 1 26 62
M  V30 68 1 26 63
M  V30 69 1 27 64
M  V30 70 1 27 65
M  V30 71 1 27 66
M  V30 72 1 31 67
M  V30 73 1 32 68
M  V30 74 1 35 69
M  V30 75 1 35 70
M  V30 76 1 35 71
M  V30 77 1 36 72
M  V30 78 1 37 73
M  V30 79 1 39 74
M  V30 80 1 40 75
M  V30 81 1 41 76
M  V30 82 1 42 77
M  V30 END BOND
M  V30 END CTAB
M  END
>  <Dataset>  (10) 
ChEMBL_Kinases

>  <Ligand_Instance>  (10) 
nan

>  <PDB_ID>  (10) 
nan

>  <Standardized_SMILES>  (10) 
CCn1c(=O)[nH]c2nccc(Oc3ccc(NC(=O)Nc4cc(C(C)(C)C)nn4-c4ccc(OC)cc4)c4ccccc34)c21

>  <Name>  (10) 
nan

>  <Pocket>  (10) 
nan

>  <ATP_Site>  (10) 
nan

>  <Peripheral>  (10) 
nan

>  <Num_H_Atoms_ProtBoundConf>  (10) 
nan

>  <Num_Resolved_Atoms>  (10) 
nan

>  <Num_Not_Resolved_Atoms>  (10) 
nan

$$$$
CHEMBL3695583
     RDKit          3D

  0  0  0  0  0  0  0  0  0  0999 V3000
M  V30 BEGIN CTAB
M  V30 COUNTS 74 79 0 0 0
M  V30 BEGIN ATOM
M  V30 1 C 3.797885 -3.293137 6.466948 0
M  V30 2 O 3.216665 -2.281459 5.660783 0
M  V30 3 C 3.283299 -2.364623 4.273053 0
M  V30 4 C 3.904334 -3.411733 3.607510 0
M  V30 5 C 3.924985 -3.416289 2.220252 0
M  V30 6 C 3.345746 -2.409502 1.480992 0
M  V30 7 N 3.323770 -2.340521 0.063814 0
M  V30 8 N 4.292931 -1.800996 -0.656818 0
M  V30 9 C 3.986634 -1.884073 -1.972528 0
M  V30 10 C 4.782615 -1.408993 -3.128627 0
M  V30 11 C 5.706421 -2.485911 -3.610086 0
M  V30 12 C 5.542281 -0.133855 -2.810126 0
M  V30 13 C 3.858768 -1.052821 -4.296256 0
M  V30 14 C 2.745238 -2.515617 -2.100353 0
M  V30 15 C 2.371206 -2.781834 -0.798476 0
M  V30 16 N 1.157737 -3.430771 -0.365899 0
M  V30 17 C 0.046119 -2.587821 -0.112674 0
M  V30 18 O 0.136933 -1.337485 -0.264645 0
M  V30 19 N -1.244878 -3.058118 0.325636 0
M  V30 20 C -2.246402 -2.063650 0.530359 0
M  V30 21 C -2.341827 -1.502236 1.787002 0
M  V30 22 C -3.331490 -0.549987 1.906951 0
M  V30 23 C -4.232966 -0.092543 0.928983 0
M  V30 24 O -5.122980 0.830477 1.211327 0
M  V30 25 C -5.581913 2.024508 0.899716 0
M  V30 26 C -6.940028 2.042443 0.530188 0
M  V30 27 C -7.632290 3.176984 0.164136 0
M  V30 28 N -6.966702 4.344898 0.159512 0
M  V30 29 C -5.669413 4.454771 0.492708 0
M  V30 30 N -4.782413 5.462472 0.575105 0
M  V30 31 C -3.614411 4.930756 0.976146 0
M  V30 32 O -2.551463 5.578435 1.163028 0
M  V30 33 N -3.764549 3.606155 1.143821 0
M  V30 34 C -2.708618 2.722523 1.576604 0
M  V30 35 C -5.032165 3.286714 0.849277 0
M  V30 36 C -3.999813 -0.759348 -0.272235 0
M  V30 37 C -4.804524 -0.423274 -1.339820 0
M  V30 38 C -4.737075 -0.961663 -2.605889 0
M  V30 39 C -3.759352 -1.939773 -2.822709 0
M  V30 40 C -2.932430 -2.298707 -1.762045 0
M  V30 41 C -3.053486 -1.726414 -0.536573 0
M  V30 42 C 2.743669 -1.395908 2.196292 0
M  V30 43 C 2.686870 -1.329145 3.565548 0
M  V30 44 H 4.853847 -3.487530 6.232449 0
M  V30 45 H 3.646259 -2.970553 7.538148 0
M  V30 46 H 3.209272 -4.247174 6.334375 0
M  V30 47 H 4.361796 -4.206599 4.180023 0
M  V30 48 H 4.401676 -4.219494 1.685634 0
M  V30 49 H 6.552816 -2.673664 -2.914972 0
M  V30 50 H 5.126171 -3.418883 -3.732140 0
M  V30 51 H 6.169182 -2.148021 -4.572487 0
M  V30 52 H 4.809405 0.670733 -2.589301 0
M  V30 53 H 6.293987 -0.266063 -2.025893 0
M  V30 54 H 6.062110 0.159051 -3.751835 0
M  V30 55 H 3.001307 -0.457740 -3.917063 0
M  V30 56 H 4.432408 -0.353667 -4.949960 0
M  V30 57 H 3.559218 -1.972700 -4.834954 0
M  V30 58 H 2.182621 -2.753995 -3.002863 0
M  V30 59 H 0.951044 -4.439282 -0.202853 0
M  V30 60 H -1.353366 -4.088310 0.461080 0
M  V30 61 H -1.726071 -1.751099 2.623404 0
M  V30 62 H -3.425525 -0.092110 2.898730 0
M  V30 63 H -7.557109 1.149570 0.504554 0
M  V30 64 H -8.671950 3.173471 -0.116070 0
M  V30 65 H -4.975063 6.469391 0.364279 0
M  V30 66 H -1.802988 3.301715 1.907615 0
M  V30 67 H -3.074535 2.240237 2.501001 0
M  V30 68 H -2.355845 2.072665 0.783944 0
M  V30 69 H -5.571674 0.322637 -1.230519 0
M  V30 70 H -5.376144 -0.678338 -3.409969 0
M  V30 71 H -3.618782 -2.426775 -3.773986 0
M  V30 72 H -2.149783 -3.047843 -1.845821 0
M  V30 73 H 2.275801 -0.583888 1.653035 0
M  V30 74 H 2.203209 -0.513877 4.093950 0
M  V30 END ATOM
M  V30 BEGIN BOND
M  V30 1 1 1 2
M  V30 2 1 2 3
M  V30 3 2 3 4
M  V30 4 1 4 5
M  V30 5 2 5 6
M  V30 6 1 6 7
M  V30 7 1 7 8
M  V30 8 2 8 9
M  V30 9 1 9 10
M  V30 10 1 10 11
M  V30 11 1 10 12
M  V30 12 1 10 13
M  V30 13 1 9 14
M  V30 14 2 14 15
M  V30 15 1 15 16
M  V30 16 1 16 17
M  V30 17 2 17 18
M  V30 18 1 17 19
M  V30 19 1 19 20
M  V30 20 2 20 21
M  V30 21 1 21 22
M  V30 22 2 22 23
M  V30 23 1 23 24
M  V30 24 1 24 25
M  V30 25 2 25 26
M  V30 26 1 26 27
M  V30 27 2 27 28
M  V30 28 1 28 29
M  V30 29 1 29 30
M  V30 30 1 30 31
M  V30 31 2 31 32
M  V30 32 1 31 33
M  V30 33 1 33 34
M  V30 34 1 33 35
M  V30 35 1 23 36
M  V30 36 2 36 37
M  V30 37 1 37 38
M  V30 38 2 38 39
M  V30 39 1 39 40
M  V30 40 2 40 41
M  V30 41 1 6 42
M  V30 42 2 42 43
M  V30 43 1 43 3
M  V30 44 1 15 7
M  V30 45 1 41 20
M  V30 46 1 35 25
M  V30 47 1 41 36
M  V30 48 2 35 29
M  V30 49 1 1 44
M  V30 50 1 1 45
M  V30 51 1 1 46
M  V30 52 1 4 47
M  V30 53 1 5 48
M  V30 54 1 11 49
M  V30 55 1 11 50
M  V30 56 1 11 51
M  V30 57 1 12 52
M  V30 58 1 12 53
M  V30 59 1 12 54
M  V30 60 1 13 55
M  V30 61 1 13 56
M  V30 62 1 13 57
M  V30 63 1 14 58
M  V30 64 1 16 59
M  V30 65 1 19 60
M  V30 66 1 21 61
M  V30 67 1 22 62
M  V30 68 1 26 63
M  V30 69 1 27 64
M  V30 70 1 30 65
M  V30 71 1 34 66
M  V30 72 1 34 67
M  V30 73 1 34 68
M  V30 74 1 37 69
M  V30 75 1 38 70
M  V30 76 1 39 71
M  V30 77 1 40 72
M  V30 78 1 42 73
M  V30 79 1 43 74
M  V30 END BOND
M  V30 END CTAB
M  END
>  <Dataset>  (11) 
ChEMBL_Kinases

>  <Ligand_Instance>  (11) 
nan

>  <PDB_ID>  (11) 
nan

>  <Standardized_SMILES>  (11) 
COc1ccc(-n2nc(C(C)(C)C)cc2NC(=O)Nc2ccc(Oc3ccnc4[nH]c(=O)n(C)c34)c3ccccc23)cc1

>  <Name>  (11) 
nan

>  <Pocket>  (11) 
nan

>  <ATP_Site>  (11) 
nan

>  <Peripheral>  (11) 
nan

>  <Num_H_Atoms_ProtBoundConf>  (11) 
nan

>  <Num_Resolved_Atoms>  (11) 
nan

>  <Num_Not_Resolved_Atoms>  (11) 
nan

$$$$
CHEMBL2391126
     RDKit          3D

  0  0  0  0  0  0  0  0  0  0999 V3000
M  V30 BEGIN CTAB
M  V30 COUNTS 51 55 0 0 0
M  V30 BEGIN ATOM
M  V30 1 C 4.178763 -4.319930 6.641093 0
M  V30 2 O 3.120752 -3.873451 5.829523 0
M  V30 3 C 3.253167 -3.048480 4.734701 0
M  V30 4 C 4.431477 -2.512774 4.236568 0
M  V30 5 C 4.432088 -1.692226 3.122319 0
M  V30 6 C 3.244548 -1.375523 2.460730 0
M  V30 7 C 3.208562 -0.515521 1.284515 0
M  V30 8 C 4.051294 0.540075 1.005697 0
M  V30 9 C 3.918714 1.281364 -0.149280 0
M  V30 10 C 2.931956 1.005207 -1.091226 0
M  V30 11 C 2.881200 1.857137 -2.302794 0
M  V30 12 S 1.840452 3.291702 -1.949482 0
M  V30 13 C 0.165746 2.729622 -1.711017 0
M  V30 14 N -0.681275 3.768249 -1.443148 0
M  V30 15 N -1.897652 3.243936 -1.282616 0
M  V30 16 C -1.818340 1.917992 -1.444408 0
M  V30 17 C -2.854247 0.894996 -1.371657 0
M  V30 18 C -2.485722 -0.420208 -1.572210 0
M  V30 19 C -3.394631 -1.477164 -1.524983 0
M  V30 20 C -4.708182 -1.153071 -1.264301 0
M  V30 21 C -5.060837 0.176681 -1.065222 0
M  V30 22 C -4.172768 1.208198 -1.111268 0
M  V30 23 O -6.426794 0.375400 -0.809115 0
M  V30 24 C -7.343116 -0.621337 -1.286120 0
M  V30 25 C -6.878133 -1.907503 -0.597412 0
M  V30 26 O -5.621032 -2.219281 -1.217126 0
M  V30 27 O -0.563715 1.648132 -1.700137 0
M  V30 28 C 2.113540 -0.047998 -0.783698 0
M  V30 29 C 2.214433 -0.807453 0.353823 0
M  V30 30 C 2.097972 -1.925311 2.984432 0
M  V30 31 C 2.066861 -2.746468 4.093659 0
M  V30 32 H 4.610974 -5.280572 6.246159 0
M  V30 33 H 3.843881 -4.505741 7.683601 0
M  V30 34 H 5.013758 -3.605596 6.662930 0
M  V30 35 H 5.332921 -2.780877 4.776341 0
M  V30 36 H 5.377081 -1.283274 2.751849 0
M  V30 37 H 4.794231 0.702252 1.775014 0
M  V30 38 H 4.623682 2.099348 -0.296496 0
M  V30 39 H 3.891791 2.131779 -2.667814 0
M  V30 40 H 2.318736 1.264989 -3.080715 0
M  V30 41 H -1.463132 -0.717062 -1.779499 0
M  V30 42 H -3.102081 -2.509272 -1.682381 0
M  V30 43 H -4.483756 2.227263 -0.951349 0
M  V30 44 H -8.359439 -0.333990 -1.028896 0
M  V30 45 H -7.233696 -0.730902 -2.392963 0
M  V30 46 H -6.650121 -1.626467 0.443313 0
M  V30 47 H -7.611443 -2.719350 -0.712019 0
M  V30 48 H 1.345092 -0.286502 -1.495066 0
M  V30 49 H 1.502716 -1.624387 0.488928 0
M  V30 50 H 1.143478 -1.698362 2.492208 0
M  V30 51 H 1.107950 -3.124975 4.421674 0
M  V30 END ATOM
M  V30 BEGIN BOND
M  V30 1 1 1 2
M  V30 2 1 2 3
M  V30 3 2 3 4
M  V30 4 1 4 5
M  V30 5 2 5 6
M  V30 6 1 6 7
M  V30 7 2 7 8
M  V30 8 1 8 9
M  V30 9 2 9 10
M  V30 10 1 10 11
M  V30 11 1 11 12
M  V30 12 1 12 13
M  V30 13 2 13 14
M  V30 14 1 14 15
M  V30 15 2 15 16
M  V30 16 1 16 17
M  V30 17 2 17 18
M  V30 18 1 18 19
M  V30 19 2 19 20
M  V30 20 1 20 21
M  V30 21 2 21 22
M  V30 22 1 21 23
M  V30 23 1 23 24
M  V30 24 1 24 25
M  V30 25 1 25 26
M  V30 26 1 16 27
M  V30 27 1 10 28
M  V30 28 2 28 29
M  V30 29 1 6 30
M  V30 30 2 30 31
M  V30 31 1 31 3
M  V30 32 1 29 7
M  V30 33 1 27 13
M  V30 34 1 22 17
M  V30 35 1 26 20
M  V30 36 1 1 32
M  V30 37 1 1 33
M  V30 38 1 1 34
M  V30 39 1 4 35
M  V30 40 1 5 36
M  V30 41 1 8 37
M  V30 42 1 9 38
M  V30 43 1 11 39
M  V30 44 1 11 40
M  V30 45 1 18 41
M  V30 46 1 19 42
M  V30 47 1 22 43
M  V30 48 1 24 44
M  V30 49 1 24 45
M  V30 50 1 25 46
M  V30 51 1 25 47
M  V30 52 1 28 48
M  V30 53 1 29 49
M  V30 54 1 30 50
M  V30 55 1 31 51
M  V30 END BOND
M  V30 END CTAB
M  END
>  <Dataset>  (12) 
ChEMBL_Kinases

>  <Ligand_Instance>  (12) 
nan

>  <PDB_ID>  (12) 
nan

>  <Standardized_SMILES>  (12) 
COc1ccc(-c2ccc(CSc3nnc(-c4ccc5c(c4)OCCO5)o3)cc2)cc1

>  <Name>  (12) 
nan

>  <Pocket>  (12) 
nan

>  <ATP_Site>  (12) 
nan

>  <Peripheral>  (12) 
nan

>  <Num_H_Atoms_ProtBoundConf>  (12) 
nan

>  <Num_Resolved_Atoms>  (12) 
nan

>  <Num_Not_Resolved_Atoms>  (12) 
nan

$$$$
CHEMBL3695582
     RDKit          3D

  0  0  0  0  0  0  0  0  0  0999 V3000
M  V30 BEGIN CTAB
M  V30 COUNTS 71 76 0 0 0
M  V30 BEGIN ATOM
M  V30 1 C 2.950420 -5.066493 5.480891 0
M  V30 2 O 2.185990 -4.791433 4.334225 0
M  V30 3 C 2.447858 -3.786749 3.430072 0
M  V30 4 C 3.509565 -2.901553 3.527183 0
M  V30 5 C 3.664626 -1.926073 2.542541 0
M  V30 6 C 2.763671 -1.847930 1.481257 0
M  V30 7 N 3.119225 -0.781961 0.605488 0
M  V30 8 N 3.985127 -0.886398 -0.398839 0
M  V30 9 C 4.113498 0.289188 -1.045473 0
M  V30 10 C 4.974086 0.597222 -2.215604 0
M  V30 11 C 5.704586 -0.693002 -2.560168 0
M  V30 12 C 4.148975 0.950467 -3.436477 0
M  V30 13 C 5.930060 1.721606 -1.943922 0
M  V30 14 C 3.266842 1.132924 -0.373399 0
M  V30 15 C 2.627004 0.481333 0.673281 0
M  V30 16 N 1.681582 1.016037 1.594100 0
M  V30 17 C 0.274429 0.965860 1.292343 0
M  V30 18 O -0.035181 0.424415 0.177552 0
M  V30 19 N -0.774604 1.458938 2.115925 0
M  V30 20 C -2.086372 1.289740 1.592589 0
M  V30 21 C -2.680889 2.238512 0.801602 0
M  V30 22 C -3.959286 2.045656 0.306392 0
M  V30 23 C -4.703926 0.888365 0.582032 0
M  V30 24 O -5.928717 0.941229 -0.021130 0
M  V30 25 C -6.438014 0.075916 -0.948788 0
M  V30 26 C -7.615318 -0.672531 -0.824989 0
M  V30 27 C -8.126270 -1.543462 -1.761043 0
M  V30 28 N -7.461309 -1.717530 -2.912668 0
M  V30 29 C -6.324563 -1.046793 -3.126477 0
M  V30 30 N -5.524644 -1.082500 -4.199597 0
M  V30 31 C -4.504654 -0.244349 -3.965048 0
M  V30 32 O -3.530077 0.001839 -4.747018 0
M  V30 33 N -4.707360 0.286277 -2.746958 0
M  V30 34 C -5.829941 -0.179177 -2.175934 0
M  V30 35 C -4.062596 -0.024301 1.376008 0
M  V30 36 C -4.832178 -1.138391 1.622414 0
M  V30 37 C -4.353390 -2.164894 2.406193 0
M  V30 38 C -3.062587 -2.001951 2.922624 0
M  V30 39 C -2.300643 -0.872533 2.664780 0
M  V30 40 C -2.799381 0.144590 1.876923 0
M  V30 41 C 1.710075 -2.735660 1.395880 0
M  V30 42 C 1.562126 -3.698454 2.373191 0
M  V30 43 H 4.002649 -4.761740 5.396716 0
M  V30 44 H 2.875470 -6.167607 5.703809 0
M  V30 45 H 2.517233 -4.579014 6.397951 0
M  V30 46 H 4.182561 -3.003949 4.371922 0
M  V30 47 H 4.524176 -1.293670 2.720611 0
M  V30 48 H 6.526251 -0.771461 -1.795036 0
M  V30 49 H 6.094614 -0.713027 -3.584024 0
M  V30 50 H 5.004962 -1.529428 -2.351172 0
M  V30 51 H 4.798548 0.709775 -4.325151 0
M  V30 52 H 3.234020 0.359022 -3.519734 0
M  V30 53 H 3.992579 2.046403 -3.503248 0
M  V30 54 H 6.903607 1.276626 -1.622469 0
M  V30 55 H 5.540364 2.430696 -1.193642 0
M  V30 56 H 6.080530 2.305463 -2.893845 0
M  V30 57 H 3.079742 2.182312 -0.585471 0
M  V30 58 H 1.908857 1.463605 2.511483 0
M  V30 59 H -0.473596 1.897694 3.026530 0
M  V30 60 H -2.079091 3.112684 0.611743 0
M  V30 61 H -4.282929 2.883433 -0.297590 0
M  V30 62 H -8.172377 -0.539409 0.116679 0
M  V30 63 H -9.046061 -2.064143 -1.548180 0
M  V30 64 H -5.625776 -1.632852 -5.070317 0
M  V30 65 H -4.040756 0.974944 -2.340053 0
M  V30 66 H -5.819339 -1.284288 1.244878 0
M  V30 67 H -4.880903 -3.072078 2.653162 0
M  V30 68 H -2.663375 -2.809708 3.549689 0
M  V30 69 H -1.311601 -0.776992 3.076585 0
M  V30 70 H 1.086807 -2.568360 0.528016 0
M  V30 71 H 0.702263 -4.350357 2.217802 0
M  V30 END ATOM
M  V30 BEGIN BOND
M  V30 1 1 1 2
M  V30 2 1 2 3
M  V30 3 2 3 4
M  V30 4 1 4 5
M  V30 5 2 5 6
M  V30 6 1 6 7
M  V30 7 1 7 8
M  V30 8 2 8 9
M  V30 9 1 9 10
M  V30 10 1 10 11
M  V30 11 1 10 12
M  V30 12 1 10 13
M  V30 13 1 9 14
M  V30 14 2 14 15
M  V30 15 1 15 16
M  V30 16 1 16 17
M  V30 17 2 17 18
M  V30 18 1 17 19
M  V30 19 1 19 20
M  V30 20 2 20 21
M  V30 21 1 21 22
M  V30 22 2 22 23
M  V30 23 1 23 24
M  V30 24 1 24 25
M  V30 25 2 25 26
M  V30 26 1 26 27
M  V30 27 2 27 28
M  V30 28 1 28 29
M  V30 29 1 29 30
M  V30 30 1 30 31
M  V30 31 2 31 32
M  V30 32 1 31 33
M  V30 33 1 33 34
M  V30 34 1 23 35
M  V30 35 2 35 36
M  V30 36 1 36 37
M  V30 37 2 37 38
M  V30 38 1 38 39
M  V30 39 2 39 40
M  V30 40 1 6 41
M  V30 41 2 41 42
M  V30 42 1 42 3
M  V30 43 1 15 7
M  V30 44 1 40 20
M  V30 45 1 34 25
M  V30 46 1 40 35
M  V30 47 2 34 29
M  V30 48 1 1 43
M  V30 49 1 1 44
M  V30 50 1 1 45
M  V30 51 1 4 46
M  V30 52 1 5 47
M  V30 53 1 11 48
M  V30 54 1 11 49
M  V30 55 1 11 50
M  V30 56 1 12 51
M  V30 57 1 12 52
M  V30 58 1 12 53
M  V30 59 1 13 54
M  V30 60 1 13 55
M  V30 61 1 13 56
M  V30 62 1 14 57
M  V30 63 1 16 58
M  V30 64 1 19 59
M  V30 65 1 21 60
M  V30 66 1 22 61
M  V30 67 1 26 62
M  V30 68 1 27 63
M  V30 69 1 30 64
M  V30 70 1 33 65
M  V30 71 1 36 66
M  V30 72 1 37 67
M  V30 73 1 38 68
M  V30 74 1 39 69
M  V30 75 1 41 70
M  V30 76 1 42 71
M  V30 END BOND
M  V30 END CTAB
M  END
>  <Dataset>  (13) 
ChEMBL_Kinases

>  <Ligand_Instance>  (13) 
nan

>  <PDB_ID>  (13) 
nan

>  <Standardized_SMILES>  (13) 
COc1ccc(-n2nc(C(C)(C)C)cc2NC(=O)Nc2ccc(Oc3ccnc4[nH]c(=O)[nH]c34)c3ccccc23)cc1

>  <Name>  (13) 
nan

>  <Pocket>  (13) 
nan

>  <ATP_Site>  (13) 
nan

>  <Peripheral>  (13) 
nan

>  <Num_H_Atoms_ProtBoundConf>  (13) 
nan

>  <Num_Resolved_Atoms>  (13) 
nan

>  <Num_Not_Resolved_Atoms>  (13) 
nan

$$$$
CHEMBL2391127
     RDKit          3D

  0  0  0  0  0  0  0  0  0  0999 V3000
M  V30 BEGIN CTAB
M  V30 COUNTS 48 52 0 0 0
M  V30 BEGIN ATOM
M  V30 1 N -4.793031 -4.472641 6.354775 0
M  V30 2 C -3.876512 -3.846624 6.006595 0
M  V30 3 C -2.741417 -3.062663 5.559752 0
M  V30 4 C -2.530998 -2.769782 4.225819 0
M  V30 5 C -1.430175 -2.016271 3.857428 0
M  V30 6 C -0.515043 -1.533388 4.770108 0
M  V30 7 C 0.594609 -0.749217 4.202555 0
M  V30 8 C 1.190990 0.286634 4.919737 0
M  V30 9 C 2.240868 1.025200 4.375287 0
M  V30 10 C 2.711652 0.734043 3.094556 0
M  V30 11 C 3.835529 1.535801 2.537476 0
M  V30 12 S 3.142456 2.964567 1.692222 0
M  V30 13 C 2.201606 2.493939 0.256266 0
M  V30 14 N 1.650421 3.497076 -0.431327 0
M  V30 15 N 0.981733 3.030365 -1.467840 0
M  V30 16 C 1.112465 1.708304 -1.435333 0
M  V30 17 C 0.580544 0.681409 -2.338907 0
M  V30 18 C 0.877024 -0.641530 -2.065111 0
M  V30 19 C 0.407120 -1.681228 -2.876213 0
M  V30 20 C -0.356083 -1.248963 -3.938452 0
M  V30 21 C -0.690520 0.051385 -4.270738 0
M  V30 22 C -0.195748 1.043058 -3.429051 0
M  V30 23 O -1.462762 0.382721 -5.358529 0
M  V30 24 C -2.140357 -0.545058 -6.184663 0
M  V30 25 C -2.142611 -1.877099 -5.500324 0
M  V30 26 O -0.911439 -2.157816 -4.857716 0
M  V30 27 O 1.848240 1.408593 -0.392566 0
M  V30 28 C 2.101330 -0.296906 2.409399 0
M  V30 29 C 1.065625 -1.030096 2.938910 0
M  V30 30 C -0.709301 -1.813623 6.085271 0
M  V30 31 C -1.807806 -2.566985 6.464758 0
M  V30 32 H -3.274282 -3.169589 3.550441 0
M  V30 33 H -1.407120 -1.874278 2.775797 0
M  V30 34 H 0.816191 0.503244 5.913547 0
M  V30 35 H 2.690857 1.836348 4.965632 0
M  V30 36 H 4.580494 1.791439 3.292331 0
M  V30 37 H 4.353789 0.923156 1.741292 0
M  V30 38 H 1.489564 -0.959698 -1.209440 0
M  V30 39 H 0.602086 -2.718022 -2.716117 0
M  V30 40 H -0.385682 2.077816 -3.582404 0
M  V30 41 H -1.593018 -0.670621 -7.165079 0
M  V30 42 H -3.179493 -0.210160 -6.360863 0
M  V30 43 H -2.295976 -2.668482 -6.260703 0
M  V30 44 H -2.987188 -1.964036 -4.770156 0
M  V30 45 H 2.436084 -0.552965 1.423259 0
M  V30 46 H 0.595687 -1.832675 2.397114 0
M  V30 47 H 0.016026 -1.427095 6.774716 0
M  V30 48 H -1.952401 -2.784802 7.521218 0
M  V30 END ATOM
M  V30 BEGIN BOND
M  V30 1 3 1 2
M  V30 2 1 2 3
M  V30 3 2 3 4
M  V30 4 1 4 5
M  V30 5 2 5 6
M  V30 6 1 6 7
M  V30 7 2 7 8
M  V30 8 1 8 9
M  V30 9 2 9 10
M  V30 10 1 10 11
M  V30 11 1 11 12
M  V30 12 1 12 13
M  V30 13 2 13 14
M  V30 14 1 14 15
M  V30 15 2 15 16
M  V30 16 1 16 17
M  V30 17 2 17 18
M  V30 18 1 18 19
M  V30 19 2 19 20
M  V30 20 1 20 21
M  V30 21 2 21 22
M  V30 22 1 21 23
M  V30 23 1 23 24
M  V30 24 1 24 25
M  V30 25 1 25 26
M  V30 26 1 16 27
M  V30 27 1 10 28
M  V30 28 2 28 29
M  V30 29 1 6 30
M  V30 30 2 30 31
M  V30 31 1 31 3
M  V30 32 1 29 7
M  V30 33 1 27 13
M  V30 34 1 22 17
M  V30 35 1 26 20
M  V30 36 1 4 32
M  V30 37 1 5 33
M  V30 38 1 8 34
M  V30 39 1 9 35
M  V30 40 1 11 36
M  V30 41 1 11 37
M  V30 42 1 18 38
M  V30 43 1 19 39
M  V30 44 1 22 40
M  V30 45 1 24 41
M  V30 46 1 24 42
M  V30 47 1 25 43
M  V30 48 1 25 44
M  V30 49 1 28 45
M  V30 50 1 29 46
M  V30 51 1 30 47
M  V30 52 1 31 48
M  V30 END BOND
M  V30 END CTAB
M  END
>  <Dataset>  (14) 
ChEMBL_Kinases

>  <Ligand_Instance>  (14) 
nan

>  <PDB_ID>  (14) 
nan

>  <Standardized_SMILES>  (14) 
N#Cc1ccc(-c2ccc(CSc3nnc(-c4ccc5c(c4)OCCO5)o3)cc2)cc1

>  <Name>  (14) 
nan

>  <Pocket>  (14) 
nan

>  <ATP_Site>  (14) 
nan

>  <Peripheral>  (14) 
nan

>  <Num_H_Atoms_ProtBoundConf>  (14) 
nan

>  <Num_Resolved_Atoms>  (14) 
nan

>  <Num_Not_Resolved_Atoms>  (14) 
nan

$$$$
CHEMBL3695581
     RDKit          3D

  0  0  0  0  0  0  0  0  0  0999 V3000
M  V30 BEGIN CTAB
M  V30 COUNTS 72 77 0 0 0
M  V30 BEGIN ATOM
M  V30 1 C -0.474263 -7.448459 3.302051 0
M  V30 2 S 0.677038 -7.912140 1.970348 0
M  V30 3 C 0.522141 -6.685375 0.679800 0
M  V30 4 C 1.297015 -5.527444 0.636797 0
M  V30 5 C 1.135797 -4.611171 -0.385207 0
M  V30 6 C 0.208153 -4.800158 -1.400350 0
M  V30 7 N 0.030161 -3.877271 -2.449658 0
M  V30 8 N 0.640136 -3.696737 -3.607212 0
M  V30 9 C 0.114076 -2.666404 -4.295165 0
M  V30 10 C 0.518915 -2.148581 -5.629361 0
M  V30 11 C 1.661023 -2.955044 -6.169695 0
M  V30 12 C -0.691092 -2.157162 -6.563666 0
M  V30 13 C 0.982785 -0.700634 -5.565371 0
M  V30 14 C -0.898950 -2.176863 -3.495029 0
M  V30 15 C -0.940836 -2.952304 -2.330672 0
M  V30 16 N -1.940889 -2.598643 -1.356478 0
M  V30 17 C -1.607927 -1.648358 -0.340741 0
M  V30 18 O -0.457925 -1.129897 -0.300159 0
M  V30 19 N -2.543466 -1.234732 0.674448 0
M  V30 20 C -2.062624 -0.281916 1.615047 0
M  V30 21 C -1.433371 -0.617817 2.820275 0
M  V30 22 C -0.997544 0.413688 3.672110 0
M  V30 23 C -1.168504 1.784376 3.360775 0
M  V30 24 O -0.634578 2.428988 4.391119 0
M  V30 25 C 0.366656 3.219367 4.742825 0
M  V30 26 C 1.015722 2.427981 5.724352 0
M  V30 27 C 2.172315 2.856416 6.410134 0
M  V30 28 N 2.701464 4.085473 6.126550 0
M  V30 29 C 2.142676 4.873981 5.219702 0
M  V30 30 N 2.557879 6.092878 4.850291 0
M  V30 31 C 1.901809 6.821518 3.899714 0
M  V30 32 O 2.400866 7.962174 3.643190 0
M  V30 33 C 0.757351 6.337300 3.256006 0
M  V30 34 N 0.424044 5.133727 3.682647 0
M  V30 35 C 1.025379 4.401260 4.591255 0
M  V30 36 C -1.798080 1.976595 2.158007 0
M  V30 37 C -1.953146 3.319233 1.932881 0
M  V30 38 C -2.569239 3.806447 0.803462 0
M  V30 39 C -3.037055 2.860637 -0.115587 0
M  V30 40 C -2.863159 1.519067 0.149671 0
M  V30 41 C -2.254299 1.037528 1.267441 0
M  V30 42 C -0.565720 -5.959649 -1.354675 0
M  V30 43 C -0.400065 -6.874806 -0.328007 0
M  V30 44 H -0.431834 -8.201510 4.117356 0
M  V30 45 H -0.281280 -6.422875 3.690545 0
M  V30 46 H -1.496842 -7.471009 2.872056 0
M  V30 47 H 2.006351 -5.385681 1.415475 0
M  V30 48 H 1.758375 -3.723756 -0.381525 0
M  V30 49 H 2.150832 -3.618519 -5.437950 0
M  V30 50 H 1.297470 -3.529787 -7.068163 0
M  V30 51 H 2.482877 -2.307034 -6.582504 0
M  V30 52 H -0.376693 -1.815345 -7.560494 0
M  V30 53 H -1.212018 -3.120204 -6.552464 0
M  V30 54 H -1.408317 -1.413969 -6.161980 0
M  V30 55 H 0.139888 0.016369 -5.584167 0
M  V30 56 H 1.640998 -0.547011 -6.447878 0
M  V30 57 H 1.644153 -0.540889 -4.671536 0
M  V30 58 H -1.510165 -1.317914 -3.813543 0
M  V30 59 H -2.931970 -2.945150 -1.265589 0
M  V30 60 H -3.498819 -1.642745 0.669103 0
M  V30 61 H -1.369285 -1.677196 2.929187 0
M  V30 62 H -0.550869 -0.102589 4.524918 0
M  V30 63 H 0.849678 1.439993 6.161694 0
M  V30 64 H 2.783469 2.393843 7.170900 0
M  V30 65 H 3.413730 6.468023 5.324130 0
M  V30 66 H 0.277901 6.950477 2.514696 0
M  V30 67 H -1.645728 4.096523 2.600307 0
M  V30 68 H -2.729392 4.852242 0.552776 0
M  V30 69 H -3.538894 3.115524 -1.044208 0
M  V30 70 H -3.226831 0.763421 -0.564735 0
M  V30 71 H -1.306904 -6.147549 -2.132894 0
M  V30 72 H -1.008277 -7.780881 -0.296746 0
M  V30 END ATOM
M  V30 BEGIN BOND
M  V30 1 1 1 2
M  V30 2 1 2 3
M  V30 3 2 3 4
M  V30 4 1 4 5
M  V30 5 2 5 6
M  V30 6 1 6 7
M  V30 7 1 7 8
M  V30 8 2 8 9
M  V30 9 1 9 10
M  V30 10 1 10 11
M  V30 11 1 10 12
M  V30 12 1 10 13
M  V30 13 1 9 14
M  V30 14 2 14 15
M  V30 15 1 15 16
M  V30 16 1 16 17
M  V30 17 2 17 18
M  V30 18 1 17 19
M  V30 19 1 19 20
M  V30 20 2 20 21
M  V30 21 1 21 22
M  V30 22 2 22 23
M  V30 23 1 23 24
M  V30 24 1 24 25
M  V30 25 2 25 26
M  V30 26 1 26 27
M  V30 27 2 27 28
M  V30 28 1 28 29
M  V30 29 1 29 30
M  V30 30 1 30 31
M  V30 31 2 31 32
M  V30 32 1 31 33
M  V30 33 2 33 34
M  V30 34 1 34 35
M  V30 35 1 23 36
M  V30 36 2 36 37
M  V30 37 1 37 38
M  V30 38 2 38 39
M  V30 39 1 39 40
M  V30 40 2 40 41
M  V30 41 1 6 42
M  V30 42 2 42 43
M  V30 43 1 43 3
M  V30 44 1 15 7
M  V30 45 1 41 20
M  V30 46 1 35 25
M  V30 47 1 41 36
M  V30 48 2 35 29
M  V30 49 1 1 44
M  V30 50 1 1 45
M  V30 51 1 1 46
M  V30 52 1 4 47
M  V30 53 1 5 48
M  V30 54 1 11 49
M  V30 55 1 11 50
M  V30 56 1 11 51
M  V30 57 1 12 52
M  V30 58 1 12 53
M  V30 59 1 12 54
M  V30 60 1 13 55
M  V30 61 1 13 56
M  V30 62 1 13 57
M  V30 63 1 14 58
M  V30 64 1 16 59
M  V30 65 1 19 60
M  V30 66 1 21 61
M  V30 67 1 22 62
M  V30 68 1 26 63
M  V30 69 1 27 64
M  V30 70 1 30 65
M  V30 71 1 33 66
M  V30 72 1 37 67
M  V30 73 1 38 68
M  V30 74 1 39 69
M  V30 75 1 40 70
M  V30 76 1 42 71
M  V30 77 1 43 72
M  V30 END BOND
M  V30 END CTAB
M  END
>  <Dataset>  (15) 
ChEMBL_Kinases

>  <Ligand_Instance>  (15) 
nan

>  <PDB_ID>  (15) 
nan

>  <Standardized_SMILES>  (15) 
CSc1ccc(-n2nc(C(C)(C)C)cc2NC(=O)Nc2ccc(Oc3ccnc4[nH]c(=O)cnc34)c3ccccc23)cc1

>  <Name>  (15) 
nan

>  <Pocket>  (15) 
nan

>  <ATP_Site>  (15) 
nan

>  <Peripheral>  (15) 
nan

>  <Num_H_Atoms_ProtBoundConf>  (15) 
nan

>  <Num_Resolved_Atoms>  (15) 
nan

>  <Num_Not_Resolved_Atoms>  (15) 
nan

$$$$
CHEMBL3695580
     RDKit          3D

  0  0  0  0  0  0  0  0  0  0999 V3000
M  V30 BEGIN CTAB
M  V30 COUNTS 68 73 0 0 0
M  V30 BEGIN ATOM
M  V30 1 C 1.272699 -1.914899 6.614181 0
M  V30 2 C 2.000995 -2.765582 5.594648 0
M  V30 3 C 3.212080 -3.360392 6.287835 0
M  V30 4 C 1.079916 -3.866440 5.111448 0
M  V30 5 C 2.481959 -1.931440 4.483445 0
M  V30 6 C 1.863601 -1.581186 3.283024 0
M  V30 7 C 2.687544 -0.773383 2.528839 0
M  V30 8 N 2.464769 -0.191639 1.252429 0
M  V30 9 C 1.309172 -0.346168 0.483555 0
M  V30 10 O 0.366215 -1.049166 0.918186 0
M  V30 11 N 1.111513 0.253591 -0.801112 0
M  V30 12 C -0.113781 0.022476 -1.496033 0
M  V30 13 C -0.140901 -1.072831 -2.329526 0
M  V30 14 C -1.325039 -1.284313 -2.993405 0
M  V30 15 C -2.479877 -0.544537 -2.930941 0
M  V30 16 O -3.688143 -0.613924 -3.498430 0
M  V30 17 C -4.347371 -1.384267 -4.356324 0
M  V30 18 C -4.071077 -2.515798 -5.085305 0
M  V30 19 C -4.885533 -3.204973 -5.948871 0
M  V30 20 N -6.116543 -2.696127 -6.093356 0
M  V30 21 C -6.511188 -1.601364 -5.442261 0
M  V30 22 N -7.776429 -1.239854 -5.711769 0
M  V30 23 C -8.271549 -0.139451 -5.099498 0
M  V30 24 O -9.426232 0.291594 -5.269952 0
M  V30 25 C -7.448595 0.535951 -4.242653 0
M  V30 26 N -6.191687 0.145566 -3.998260 0
M  V30 27 C -5.660372 -0.919994 -4.569042 0
M  V30 28 C -2.368866 0.550123 -2.062042 0
M  V30 29 C -3.381811 1.452967 -1.816267 0
M  V30 30 C -3.306165 2.536095 -0.970731 0
M  V30 31 C -2.119950 2.746721 -0.306632 0
M  V30 32 C -1.053045 1.894681 -0.491306 0
M  V30 33 C -1.214647 0.835598 -1.355401 0
M  V30 34 N 3.785074 -0.647441 3.278737 0
M  V30 35 C 4.978111 0.078131 3.006287 0
M  V30 36 C 5.682968 -0.043031 1.822578 0
M  V30 37 C 6.851185 0.683206 1.585898 0
M  V30 38 C 7.231299 1.515123 2.617367 0
M  V30 39 Cl 8.700205 2.442341 2.345985 0
M  V30 40 C 6.594125 1.699399 3.826366 0
M  V30 41 Cl 7.214335 2.797497 5.026527 0
M  V30 42 C 5.443868 0.950592 3.996787 0
M  V30 43 N 3.666661 -1.318492 4.411877 0
M  V30 44 H 0.871179 -0.997926 6.121334 0
M  V30 45 H 1.985229 -1.594742 7.392898 0
M  V30 46 H 0.489246 -2.526669 7.090083 0
M  V30 47 H 3.836274 -3.830894 5.525437 0
M  V30 48 H 3.780869 -2.525104 6.765919 0
M  V30 49 H 2.913896 -4.029306 7.111865 0
M  V30 50 H 1.004733 -4.683210 5.847868 0
M  V30 51 H 1.535236 -4.261409 4.170547 0
M  V30 52 H 0.112720 -3.406916 4.877193 0
M  V30 53 H 0.871491 -1.916358 3.014250 0
M  V30 54 H 3.204993 0.406086 0.826439 0
M  V30 55 H 1.921530 0.838947 -1.138208 0
M  V30 56 H 0.680668 -1.742779 -2.481431 0
M  V30 57 H -1.366766 -2.135121 -3.650415 0
M  V30 58 H -3.076854 -2.902397 -4.950439 0
M  V30 59 H -4.511761 -4.085166 -6.448360 0
M  V30 60 H -8.401715 -1.756959 -6.365714 0
M  V30 61 H -7.730993 1.437398 -3.688635 0
M  V30 62 H -4.328423 1.322311 -2.317691 0
M  V30 63 H -4.151040 3.198658 -0.834027 0
M  V30 64 H -2.041285 3.588027 0.358785 0
M  V30 65 H -0.127930 2.074221 0.037927 0
M  V30 66 H 5.309724 -0.729876 1.051969 0
M  V30 67 H 7.412970 0.605632 0.678586 0
M  V30 68 H 4.889293 1.047728 4.931705 0
M  V30 END ATOM
M  V30 BEGIN BOND
M  V30 1 1 1 2
M  V30 2 1 2 3
M  V30 3 1 2 4
M  V30 4 1 2 5
M  V30 5 1 5 6
M  V30 6 2 6 7
M  V30 7 1 7 8
M  V30 8 1 8 9
M  V30 9 2 9 10
M  V30 10 1 9 11
M  V30 11 1 11 12
M  V30 12 2 12 13
M  V30 13 1 13 14
M  V30 14 2 14 15
M  V30 15 1 15 16
M  V30 16 1 16 17
M  V30 17 2 17 18
M  V30 18 1 18 19
M  V30 19 2 19 20
M  V30 20 1 20 21
M  V30 21 1 21 22
M  V30 22 1 22 23
M  V30 23 2 23 24
M  V30 24 1 23 25
M  V30 25 2 25 26
M  V30 26 1 26 27
M  V30 27 1 15 28
M  V30 28 2 28 29
M  V30 29 1 29 30
M  V30 30 2 30 31
M  V30 31 1 31 32
M  V30 32 2 32 33
M  V30 33 1 7 34
M  V30 34 1 34 35
M  V30 35 2 35 36
M  V30 36 1 36 37
M  V30 37 2 37 38
M  V30 38 1 38 39
M  V30 39 1 38 40
M  V30 40 1 40 41
M  V30 41 2 40 42
M  V30 42 1 34 43
M  V30 43 2 43 5
M  V30 44 1 33 12
M  V30 45 1 42 35
M  V30 46 1 27 17
M  V30 47 1 33 28
M  V30 48 2 27 21
M  V30 49 1 1 44
M  V30 50 1 1 45
M  V30 51 1 1 46
M  V30 52 1 3 47
M  V30 53 1 3 48
M  V30 54 1 3 49
M  V30 55 1 4 50
M  V30 56 1 4 51
M  V30 57 1 4 52
M  V30 58 1 6 53
M  V30 59 1 8 54
M  V30 60 1 11 55
M  V30 61 1 13 56
M  V30 62 1 14 57
M  V30 63 1 18 58
M  V30 64 1 19 59
M  V30 65 1 22 60
M  V30 66 1 25 61
M  V30 67 1 29 62
M  V30 68 1 30 63
M  V30 69 1 31 64
M  V30 70 1 32 65
M  V30 71 1 36 66
M  V30 72 1 37 67
M  V30 73 1 42 68
M  V30 END BOND
M  V30 END CTAB
M  END
>  <Dataset>  (16) 
ChEMBL_Kinases

>  <Ligand_Instance>  (16) 
nan

>  <PDB_ID>  (16) 
nan

>  <Standardized_SMILES>  (16) 
CC(C)(C)c1cc(NC(=O)Nc2ccc(Oc3ccnc4[nH]c(=O)cnc34)c3ccccc23)n(-c2ccc(Cl)c(Cl)c2)n1

>  <Name>  (16) 
nan

>  <Pocket>  (16) 
nan

>  <ATP_Site>  (16) 
nan

>  <Peripheral>  (16) 
nan

>  <Num_H_Atoms_ProtBoundConf>  (16) 
nan

>  <Num_Resolved_Atoms>  (16) 
nan

>  <Num_Not_Resolved_Atoms>  (16) 
nan

$$$$
CHEMBL3695579
     RDKit          3D

  0  0  0  0  0  0  0  0  0  0999 V3000
M  V30 BEGIN CTAB
M  V30 COUNTS 74 79 0 0 0
M  V30 BEGIN ATOM
M  V30 1 C -0.261061 -6.514018 0.619478 0
M  V30 2 C 1.260755 -6.435707 0.510831 0
M  V30 3 C 1.828134 -6.920086 1.820722 0
M  V30 4 C 1.678896 -7.421688 -0.546416 0
M  V30 5 C 1.707938 -5.083640 0.145950 0
M  V30 6 C 2.047656 -3.984874 0.920252 0
M  V30 7 C 2.402565 -2.950674 0.049275 0
M  V30 8 N 2.808922 -1.664686 0.558078 0
M  V30 9 C 1.742301 -0.711040 0.748808 0
M  V30 10 O 0.537739 -1.034814 0.470505 0
M  V30 11 N 1.885894 0.636008 1.243178 0
M  V30 12 C 0.679690 1.390002 1.344704 0
M  V30 13 C 0.118810 2.192157 0.370627 0
M  V30 14 C -1.064351 2.865613 0.618783 0
M  V30 15 C -1.717929 2.751847 1.853778 0
M  V30 16 O -2.870695 3.502743 1.879783 0
M  V30 17 C -4.161594 3.104363 2.038876 0
M  V30 18 C -4.754520 1.845593 2.209258 0
M  V30 19 C -6.109172 1.684357 2.353108 0
M  V30 20 N -6.917062 2.748619 2.333971 0
M  V30 21 C -6.412693 3.992238 2.173368 0
M  V30 22 N -7.339077 4.967228 2.173570 0
M  V30 23 C -6.909405 6.232327 2.018136 0
M  V30 24 O -7.723549 7.188603 2.009304 0
M  V30 25 C -5.560993 6.480686 1.867001 0
M  V30 26 N -4.695118 5.452612 1.877384 0
M  V30 27 C -5.050166 4.187983 2.025655 0
M  V30 28 C -1.138729 1.945382 2.812220 0
M  V30 29 C -1.849391 1.903953 3.988205 0
M  V30 30 C -1.356618 1.127894 5.022114 0
M  V30 31 C -0.163490 0.429396 4.813561 0
M  V30 32 C 0.505944 0.510534 3.610746 0
M  V30 33 C 0.040370 1.274996 2.562659 0
M  V30 34 N 2.273780 -3.431949 -1.200587 0
M  V30 35 C 2.571582 -2.588878 -2.298522 0
M  V30 36 C 1.486252 -2.099174 -2.998160 0
M  V30 37 C 1.745701 -1.271744 -4.077285 0
M  V30 38 C 3.034716 -0.951484 -4.436454 0
M  V30 39 S 3.347577 0.101258 -5.810211 0
M  V30 40 C 3.504443 -0.882319 -7.297003 0
M  V30 41 O 4.618815 0.860745 -5.617201 0
M  V30 42 O 2.192028 1.057246 -5.931527 0
M  V30 43 C 4.107477 -1.440264 -3.738647 0
M  V30 44 C 3.871273 -2.270434 -2.654787 0
M  V30 45 N 1.864398 -4.688427 -1.134994 0
M  V30 46 H -0.747282 -5.995954 -0.219139 0
M  V30 47 H -0.488125 -7.617004 0.534270 0
M  V30 48 H -0.616162 -6.201391 1.611840 0
M  V30 49 H 2.781706 -7.445527 1.608496 0
M  V30 50 H 1.123342 -7.672145 2.232727 0
M  V30 51 H 1.981875 -6.047910 2.473453 0
M  V30 52 H 1.580337 -8.474088 -0.191861 0
M  V30 53 H 1.089446 -7.354256 -1.485581 0
M  V30 54 H 2.742677 -7.256297 -0.783748 0
M  V30 55 H 1.999644 -4.058916 2.011924 0
M  V30 56 H 3.764085 -1.293492 0.819164 0
M  V30 57 H 2.864631 0.911661 1.473618 0
M  V30 58 H 0.664026 2.243334 -0.561121 0
M  V30 59 H -1.397967 3.463325 -0.232963 0
M  V30 60 H -3.974004 1.069033 2.204534 0
M  V30 61 H -6.414165 0.635017 2.477101 0
M  V30 62 H -8.358743 4.779718 2.287843 0
M  V30 63 H -5.182905 7.500471 1.738645 0
M  V30 64 H -2.761222 2.439627 4.163016 0
M  V30 65 H -1.805194 1.004249 5.987868 0
M  V30 66 H 0.307502 -0.206577 5.558151 0
M  V30 67 H 1.446294 -0.037746 3.441677 0
M  V30 68 H 0.454501 -2.318416 -2.759644 0
M  V30 69 H 0.950513 -0.845538 -4.678818 0
M  V30 70 H 2.756651 -1.701848 -7.218072 0
M  V30 71 H 3.333161 -0.253712 -8.184616 0
M  V30 72 H 4.538746 -1.274020 -7.358913 0
M  V30 73 H 5.142064 -1.204726 -3.998523 0
M  V30 74 H 4.652736 -2.690562 -2.061955 0
M  V30 END ATOM
M  V30 BEGIN BOND
M  V30 1 1 1 2
M  V30 2 1 2 3
M  V30 3 1 2 4
M  V30 4 1 2 5
M  V30 5 1 5 6
M  V30 6 2 6 7
M  V30 7 1 7 8
M  V30 8 1 8 9
M  V30 9 2 9 10
M  V30 10 1 9 11
M  V30 11 1 11 12
M  V30 12 2 12 13
M  V30 13 1 13 14
M  V30 14 2 14 15
M  V30 15 1 15 16
M  V30 16 1 16 17
M  V30 17 2 17 18
M  V30 18 1 18 19
M  V30 19 2 19 20
M  V30 20 1 20 21
M  V30 21 1 21 22
M  V30 22 1 22 23
M  V30 23 2 23 24
M  V30 24 1 23 25
M  V30 25 2 25 26
M  V30 26 1 26 27
M  V30 27 1 15 28
M  V30 28 2 28 29
M  V30 29 1 29 30
M  V30 30 2 30 31
M  V30 31 1 31 32
M  V30 32 2 32 33
M  V30 33 1 7 34
M  V30 34 1 34 35
M  V30 35 2 35 36
M  V30 36 1 36 37
M  V30 37 2 37 38
M  V30 38 1 38 39
M  V30 39 1 39 40
M  V30 40 2 39 41
M  V30 41 2 39 42
M  V30 42 1 38 43
M  V30 43 2 43 44
M  V30 44 1 34 45
M  V30 45 2 45 5
M  V30 46 1 33 12
M  V30 47 1 44 35
M  V30 48 1 27 17
M  V30 49 1 33 28
M  V30 50 2 27 21
M  V30 51 1 1 46
M  V30 52 1 1 47
M  V30 53 1 1 48
M  V30 54 1 3 49
M  V30 55 1 3 50
M  V30 56 1 3 51
M  V30 57 1 4 52
M  V30 58 1 4 53
M  V30 59 1 4 54
M  V30 60 1 6 55
M  V30 61 1 8 56
M  V30 62 1 11 57
M  V30 63 1 13 58
M  V30 64 1 14 59
M  V30 65 1 18 60
M  V30 66 1 19 61
M  V30 67 1 22 62
M  V30 68 1 25 63
M  V30 69 1 29 64
M  V30 70 1 30 65
M  V30 71 1 31 66
M  V30 72 1 32 67
M  V30 73 1 36 68
M  V30 74 1 37 69
M  V30 75 1 40 70
M  V30 76 1 40 71
M  V30 77 1 40 72
M  V30 78 1 43 73
M  V30 79 1 44 74
M  V30 END BOND
M  V30 END CTAB
M  END
>  <Dataset>  (17) 
ChEMBL_Kinases

>  <Ligand_Instance>  (17) 
nan

>  <PDB_ID>  (17) 
nan

>  <Standardized_SMILES>  (17) 
CC(C)(C)c1cc(NC(=O)Nc2ccc(Oc3ccnc4[nH]c(=O)cnc34)c3ccccc23)n(-c2ccc(S(C)(=O)=O)cc2)n1

>  <Name>  (17) 
nan

>  <Pocket>  (17) 
nan

>  <ATP_Site>  (17) 
nan

>  <Peripheral>  (17) 
nan

>  <Num_H_Atoms_ProtBoundConf>  (17) 
nan

>  <Num_Resolved_Atoms>  (17) 
nan

>  <Num_Not_Resolved_Atoms>  (17) 
nan

$$$$
CHEMBL2392104
     RDKit          3D

  0  0  0  0  0  0  0  0  0  0999 V3000
M  V30 BEGIN CTAB
M  V30 COUNTS 72 78 0 0 0
M  V30 BEGIN ATOM
M  V30 1 O 3.673901 -3.210487 5.070178 0
M  V30 2 C 3.155468 -3.696720 4.047089 0
M  V30 3 N 2.923310 -2.974158 2.845564 0
M  V30 4 C 3.143548 -1.651083 2.397489 0
M  V30 5 C 2.110191 -0.754936 2.621644 0
M  V30 6 C 2.226272 0.553102 2.223602 0
M  V30 7 C 3.358833 1.016548 1.595288 0
M  V30 8 S 3.735869 2.638322 0.997176 0
M  V30 9 C 2.423293 3.813271 1.271068 0
M  V30 10 N 2.681242 5.058798 0.825424 0
M  V30 11 C 1.797658 6.065116 0.952573 0
M  V30 12 Cl 2.093838 7.697762 0.386904 0
M  V30 13 C 0.575546 5.886622 1.545220 0
M  V30 14 C 0.327025 4.606340 1.995927 0
M  V30 15 N -0.843204 4.119500 2.648043 0
M  V30 16 C -1.291795 2.889013 3.173971 0
M  V30 17 C -1.576496 2.797368 4.539191 0
M  V30 18 N -1.971563 1.526157 4.730893 0
M  V30 19 N -1.930809 0.902986 3.585978 0
M  V30 20 C -1.519019 1.685854 2.575924 0
M  V30 21 C -1.387860 1.297982 1.187656 0
M  V30 22 N -1.646514 0.056780 0.746033 0
M  V30 23 C -1.464989 -0.062195 -0.578417 0
M  V30 24 C -1.620754 -1.151902 -1.408403 0
M  V30 25 C -1.368160 -1.030219 -2.776413 0
M  V30 26 C -1.507601 -2.141066 -3.742956 0
M  V30 27 N -2.788053 -2.198432 -4.332711 0
M  V30 28 C -2.984584 -3.270685 -5.266237 0
M  V30 29 C -3.146512 -4.554935 -4.486310 0
M  V30 30 C -3.633195 -4.373645 -3.087617 0
M  V30 31 C -4.454017 -3.145328 -2.873382 0
M  V30 32 C -3.918823 -1.907515 -3.524901 0
M  V30 33 C -0.963011 0.239465 -3.198804 0
M  V30 34 C -0.809323 1.324854 -2.363141 0
M  V30 35 C -1.067501 1.164897 -1.023274 0
M  V30 36 N -1.037775 1.941063 0.072059 0
M  V30 37 N 1.237122 3.626690 1.849830 0
M  V30 38 C 4.401571 0.113881 1.368683 0
M  V30 39 C 4.291287 -1.214871 1.769620 0
M  V30 40 C 2.707827 -5.125104 3.961068 0
M  V30 41 C 1.497034 -5.447221 3.139954 0
M  V30 42 C 2.844074 -5.846402 2.670167 0
M  V30 43 H 2.487795 -3.374000 1.978813 0
M  V30 44 H 1.158054 -0.959496 3.100906 0
M  V30 45 H 1.483285 1.317649 2.353114 0
M  V30 46 H -0.220139 6.583605 1.715291 0
M  V30 47 H -1.541205 4.901384 2.751940 0
M  V30 48 H -1.517308 3.545126 5.339498 0
M  V30 49 H -2.261934 1.100598 5.630722 0
M  V30 50 H -1.935181 -2.100379 -1.019898 0
M  V30 51 H -0.775563 -1.898873 -4.572072 0
M  V30 52 H -1.137463 -3.104349 -3.335184 0
M  V30 53 H -3.865969 -3.119485 -5.920930 0
M  V30 54 H -2.056086 -3.354147 -5.856590 0
M  V30 55 H -2.154571 -5.070878 -4.413949 0
M  V30 56 H -3.818874 -5.214563 -5.072863 0
M  V30 57 H -4.303340 -5.245912 -2.852941 0
M  V30 58 H -2.819343 -4.462538 -2.310931 0
M  V30 59 H -4.496323 -2.971788 -1.763816 0
M  V30 60 H -5.505932 -3.347060 -3.171132 0
M  V30 61 H -3.637744 -1.155036 -2.761013 0
M  V30 62 H -4.761331 -1.443862 -4.092434 0
M  V30 63 H -0.762401 0.354161 -4.255221 0
M  V30 64 H -0.499505 2.290270 -2.695098 0
M  V30 65 H -0.768826 2.939031 0.015436 0
M  V30 66 H 5.356546 0.316861 0.888587 0
M  V30 67 H 5.073422 -1.953188 1.615924 0
M  V30 68 H 2.884511 -5.691355 4.889645 0
M  V30 69 H 0.807219 -6.206338 3.529070 0
M  V30 70 H 0.961086 -4.610936 2.609497 0
M  V30 71 H 3.040398 -6.938901 2.651845 0
M  V30 72 H 3.195641 -5.309195 1.762764 0
M  V30 END ATOM
M  V30 BEGIN BOND
M  V30 1 2 1 2
M  V30 2 1 2 3
M  V30 3 1 3 4
M  V30 4 2 4 5
M  V30 5 1 5 6
M  V30 6 2 6 7
M  V30 7 1 7 8
M  V30 8 1 8 9
M  V30 9 2 9 10
M  V30 10 1 10 11
M  V30 11 1 11 12
M  V30 12 2 11 13
M  V30 13 1 13 14
M  V30 14 1 14 15
M  V30 15 1 15 16
M  V30 16 2 16 17
M  V30 17 1 17 18
M  V30 18 1 18 19
M  V30 19 2 19 20
M  V30 20 1 20 21
M  V30 21 2 21 22
M  V30 22 1 22 23
M  V30 23 2 23 24
M  V30 24 1 24 25
M  V30 25 1 25 26
M  V30 26 1 26 27
M  V30 27 1 27 28
M  V30 28 1 28 29
M  V30 29 1 29 30
M  V30 30 1 30 31
M  V30 31 1 31 32
M  V30 32 2 25 33
M  V30 33 1 33 34
M  V30 34 2 34 35
M  V30 35 1 35 36
M  V30 36 2 14 37
M  V30 37 1 7 38
M  V30 38 2 38 39
M  V30 39 1 2 40
M  V30 40 1 40 41
M  V30 41 1 41 42
M  V30 42 1 39 4
M  V30 43 1 42 40
M  V30 44 1 37 9
M  V30 45 1 20 16
M  V30 46 1 36 21
M  V30 47 1 35 23
M  V30 48 1 32 27
M  V30 49 1 3 43
M  V30 50 1 5 44
M  V30 51 1 6 45
M  V30 52 1 13 46
M  V30 53 1 15 47
M  V30 54 1 17 48
M  V30 55 1 18 49
M  V30 56 1 24 50
M  V30 57 1 26 51
M  V30 58 1 26 52
M  V30 59 1 28 53
M  V30 60 1 28 54
M  V30 61 1 29 55
M  V30 62 1 29 56
M  V30 63 1 30 57
M  V30 64 1 30 58
M  V30 65 1 31 59
M  V30 66 1 31 60
M  V30 67 1 32 61
M  V30 68 1 32 62
M  V30 69 1 33 63
M  V30 70 1 34 64
M  V30 71 1 36 65
M  V30 72 1 38 66
M  V30 73 1 39 67
M  V30 74 1 40 68
M  V30 75 1 41 69
M  V30 76 1 41 70
M  V30 77 1 42 71
M  V30 78 1 42 72
M  V30 END BOND
M  V30 END CTAB
M  END
>  <Dataset>  (18) 
ChEMBL_Kinases

>  <Ligand_Instance>  (18) 
nan

>  <PDB_ID>  (18) 
nan

>  <Standardized_SMILES>  (18) 
O=C(Nc1ccc(Sc2nc(Cl)cc(Nc3c[nH]nc3-c3nc4cc(CN5CCCCC5)ccc4[nH]3)n2)cc1)C1CC1

>  <Name>  (18) 
nan

>  <Pocket>  (18) 
nan

>  <ATP_Site>  (18) 
nan

>  <Peripheral>  (18) 
nan

>  <Num_H_Atoms_ProtBoundConf>  (18) 
nan

>  <Num_Resolved_Atoms>  (18) 
nan

>  <Num_Not_Resolved_Atoms>  (18) 
nan

$$$$
CHEMBL2391129
     RDKit          3D

  0  0  0  0  0  0  0  0  0  0999 V3000
M  V30 BEGIN CTAB
M  V30 COUNTS 49 53 0 0 0
M  V30 BEGIN ATOM
M  V30 1 O 5.979738 -0.170293 3.061582 0
M  V30 2 N 5.276550 -0.030843 2.048990 0 CHG=1 VAL=4
M  V30 3 O 4.092431 -0.036220 2.733191 0 CHG=-1 VAL=1
M  V30 4 C 5.805320 0.072592 0.736437 0
M  V30 5 C 7.026131 -0.567654 0.561951 0
M  V30 6 C 7.572072 -0.500282 -0.700288 0
M  V30 7 C 6.929215 0.170361 -1.725421 0
M  V30 8 C 5.721521 0.801886 -1.545233 0
M  V30 9 C 5.178185 0.733903 -0.284623 0
M  V30 10 C 3.905987 1.409166 -0.071046 0
M  V30 11 C 3.690037 2.261454 0.999255 0
M  V30 12 C 2.453545 2.881011 1.166428 0
M  V30 13 C 1.409842 2.666791 0.275875 0
M  V30 14 C 0.156590 3.389247 0.575503 0
M  V30 15 S -0.978720 2.504858 1.631768 0
M  V30 16 C -1.611402 1.045681 0.818542 0
M  V30 17 N -1.455753 0.442390 -0.375523 0
M  V30 18 N -2.233827 -0.646870 -0.354200 0
M  V30 19 C -2.858993 -0.711165 0.838129 0
M  V30 20 C -3.812790 -1.748320 1.296368 0
M  V30 21 C -4.314346 -1.576869 2.571660 0
M  V30 22 C -5.207837 -2.515989 3.048715 0
M  V30 23 C -5.568486 -3.584052 2.247401 0
M  V30 24 C -5.025955 -3.691886 0.980231 0
M  V30 25 C -4.125716 -2.786098 0.441611 0
M  V30 26 O -5.452719 -4.789523 0.272752 0
M  V30 27 C -6.655234 -5.496239 0.482867 0
M  V30 28 C -7.240850 -5.345217 1.846211 0
M  V30 29 O -6.452882 -4.528223 2.698349 0
M  V30 30 O -2.462006 0.329453 1.529745 0
M  V30 31 C 1.644462 1.812504 -0.787013 0
M  V30 32 C 2.867876 1.195659 -0.957674 0
M  V30 33 H 7.536812 -1.092284 1.348101 0
M  V30 34 H 8.512556 -0.955373 -0.963415 0
M  V30 35 H 7.363801 0.218718 -2.713592 0
M  V30 36 H 5.254216 1.313770 -2.369787 0
M  V30 37 H 4.477893 2.463250 1.718749 0
M  V30 38 H 2.344643 3.538503 2.024944 0
M  V30 39 H -0.359701 3.686934 -0.379245 0
M  V30 40 H 0.386029 4.366504 1.069100 0
M  V30 41 H -4.032996 -0.745559 3.194775 0
M  V30 42 H -5.589173 -2.367503 4.044937 0
M  V30 43 H -3.725856 -2.898234 -0.540212 0
M  V30 44 H -7.389188 -5.065532 -0.255931 0
M  V30 45 H -6.548558 -6.569721 0.190236 0
M  V30 46 H -7.397862 -6.350192 2.287745 0
M  V30 47 H -8.240819 -4.855045 1.817789 0
M  V30 48 H 0.813329 1.667399 -1.461708 0
M  V30 49 H 2.935785 0.545703 -1.829428 0
M  V30 END ATOM
M  V30 BEGIN BOND
M  V30 1 2 1 2
M  V30 2 1 2 3
M  V30 3 1 2 4
M  V30 4 2 4 5
M  V30 5 1 5 6
M  V30 6 2 6 7
M  V30 7 1 7 8
M  V30 8 2 8 9
M  V30 9 1 9 10
M  V30 10 2 10 11
M  V30 11 1 11 12
M  V30 12 2 12 13
M  V30 13 1 13 14
M  V30 14 1 14 15
M  V30 15 1 15 16
M  V30 16 2 16 17
M  V30 17 1 17 18
M  V30 18 2 18 19
M  V30 19 1 19 20
M  V30 20 2 20 21
M  V30 21 1 21 22
M  V30 22 2 22 23
M  V30 23 1 23 24
M  V30 24 2 24 25
M  V30 25 1 24 26
M  V30 26 1 26 27
M  V30 27 1 27 28
M  V30 28 1 28 29
M  V30 29 1 19 30
M  V30 30 1 13 31
M  V30 31 2 31 32
M  V30 32 1 9 4
M  V30 33 1 32 10
M  V30 34 1 30 16
M  V30 35 1 25 20
M  V30 36 1 29 23
M  V30 37 1 5 33
M  V30 38 1 6 34
M  V30 39 1 7 35
M  V30 40 1 8 36
M  V30 41 1 11 37
M  V30 42 1 12 38
M  V30 43 1 14 39
M  V30 44 1 14 40
M  V30 45 1 21 41
M  V30 46 1 22 42
M  V30 47 1 25 43
M  V30 48 1 27 44
M  V30 49 1 27 45
M  V30 50 1 28 46
M  V30 51 1 28 47
M  V30 52 1 31 48
M  V30 53 1 32 49
M  V30 END BOND
M  V30 END CTAB
M  END
>  <Dataset>  (19) 
ChEMBL_Kinases

>  <Ligand_Instance>  (19) 
nan

>  <PDB_ID>  (19) 
nan

>  <Standardized_SMILES>  (19) 
O=[N+]([O-])c1ccccc1-c1ccc(CSc2nnc(-c3ccc4c(c3)OCCO4)o2)cc1

>  <Name>  (19) 
nan

>  <Pocket>  (19) 
nan

>  <ATP_Site>  (19) 
nan

>  <Peripheral>  (19) 
nan

>  <Num_H_Atoms_ProtBoundConf>  (19) 
nan

>  <Num_Resolved_Atoms>  (19) 
nan

>  <Num_Not_Resolved_Atoms>  (19) 
nan

$$$$
CHEMBL2391130
     RDKit          3D

  0  0  0  0  0  0  0  0  0  0999 V3000
M  V30 BEGIN CTAB
M  V30 COUNTS 48 52 0 0 0
M  V30 BEGIN ATOM
M  V30 1 N 2.257444 -5.391916 -1.379083 0
M  V30 2 C 2.835488 -4.420404 -1.609732 0
M  V30 3 C 3.543623 -3.200466 -1.883791 0
M  V30 4 C 4.715203 -3.211162 -2.617444 0
M  V30 5 C 5.376732 -2.026556 -2.867168 0
M  V30 6 C 4.891003 -0.822498 -2.397234 0
M  V30 7 C 3.711652 -0.767973 -1.652701 0
M  V30 8 C 3.148581 0.474737 -1.128756 0
M  V30 9 C 3.847825 1.576764 -0.724438 0
M  V30 10 C 3.172448 2.694511 -0.244744 0
M  V30 11 C 1.781322 2.749197 -0.153001 0
M  V30 12 C 1.188805 4.004486 0.374113 0
M  V30 13 S 1.063006 3.884045 2.177937 0
M  V30 14 C -0.119253 2.617332 2.603772 0
M  V30 15 N -0.255467 2.478984 3.942643 0
M  V30 16 N -1.155652 1.513761 4.169164 0
M  V30 17 C -1.566157 1.065930 2.971433 0
M  V30 18 C -2.539007 0.019507 2.689574 0
M  V30 19 C -2.838509 -0.306944 1.384285 0
M  V30 20 C -3.760702 -1.301157 1.052212 0
M  V30 21 C -4.381357 -1.966277 2.113914 0
M  V30 22 C -4.050681 -1.606169 3.414928 0
M  V30 23 C -3.137837 -0.622165 3.736019 0
M  V30 24 O -4.753733 -2.360731 4.340405 0
M  V30 25 C -5.116317 -3.707648 4.124532 0
M  V30 26 C -5.739673 -3.923618 2.769625 0
M  V30 27 O -5.295445 -2.951435 1.841644 0
M  V30 28 O -0.921799 1.752507 2.060288 0
M  V30 29 C 1.116352 1.618561 -0.570580 0
M  V30 30 C 1.780535 0.513027 -1.044767 0
M  V30 31 C 3.068541 -1.983944 -1.418780 0
M  V30 32 H 5.045466 -4.187169 -2.958788 0
M  V30 33 H 6.289107 -2.054990 -3.441298 0
M  V30 34 H 5.376041 0.114762 -2.570758 0
M  V30 35 H 4.919576 1.523464 -0.799641 0
M  V30 36 H 3.817547 3.528683 0.055527 0
M  V30 37 H 0.121988 4.064496 0.011145 0
M  V30 38 H 1.738101 4.899657 0.048870 0
M  V30 39 H -2.349663 0.217151 0.579613 0
M  V30 40 H -3.985631 -1.546336 0.032312 0
M  V30 41 H -2.950810 -0.417645 4.768362 0
M  V30 42 H -5.857175 -4.009049 4.887759 0
M  V30 43 H -4.229962 -4.361542 4.250599 0
M  V30 44 H -6.844929 -3.728040 2.882317 0
M  V30 45 H -5.537059 -4.933038 2.359941 0
M  V30 46 H 0.038794 1.663656 -0.501083 0
M  V30 47 H 1.145121 -0.306895 -1.339697 0
M  V30 48 H 2.140540 -2.026662 -0.844724 0
M  V30 END ATOM
M  V30 BEGIN BOND
M  V30 1 3 1 2
M  V30 2 1 2 3
M  V30 3 2 3 4
M  V30 4 1 4 5
M  V30 5 2 5 6
M  V30 6 1 6 7
M  V30 7 1 7 8
M  V30 8 2 8 9
M  V30 9 1 9 10
M  V30 10 2 10 11
M  V30 11 1 11 12
M  V30 12 1 12 13
M  V30 13 1 13 14
M  V30 14 2 14 15
M  V30 15 1 15 16
M  V30 16 2 16 17
M  V30 17 1 17 18
M  V30 18 2 18 19
M  V30 19 1 19 20
M  V30 20 2 20 21
M  V30 21 1 21 22
M  V30 22 2 22 23
M  V30 23 1 22 24
M  V30 24 1 24 25
M  V30 25 1 25 26
M  V30 26 1 26 27
M  V30 27 1 17 28
M  V30 28 1 11 29
M  V30 29 2 29 30
M  V30 30 2 7 31
M  V30 31 1 31 3
M  V30 32 1 30 8
M  V30 33 1 28 14
M  V30 34 1 23 18
M  V30 35 1 27 21
M  V30 36 1 4 32
M  V30 37 1 5 33
M  V30 38 1 6 34
M  V30 39 1 9 35
M  V30 40 1 10 36
M  V30 41 1 12 37
M  V30 42 1 12 38
M  V30 43 1 19 39
M  V30 44 1 20 40
M  V30 45 1 23 41
M  V30 46 1 25 42
M  V30 47 1 25 43
M  V30 48 1 26 44
M  V30 49 1 26 45
M  V30 50 1 29 46
M  V30 51 1 30 47
M  V30 52 1 31 48
M  V30 END BOND
M  V30 END CTAB
M  END
>  <Dataset>  (20) 
ChEMBL_Kinases

>  <Ligand_Instance>  (20) 
nan

>  <PDB_ID>  (20) 
nan

>  <Standardized_SMILES>  (20) 
N#Cc1cccc(-c2ccc(CSc3nnc(-c4ccc5c(c4)OCCO5)o3)cc2)c1

>  <Name>  (20) 
nan

>  <Pocket>  (20) 
nan

>  <ATP_Site>  (20) 
nan

>  <Peripheral>  (20) 
nan

>  <Num_H_Atoms_ProtBoundConf>  (20) 
nan

>  <Num_Resolved_Atoms>  (20) 
nan

>  <Num_Not_Resolved_Atoms>  (20) 
nan

$$$$
CHEMBL2391131
     RDKit          3D

  0  0  0  0  0  0  0  0  0  0999 V3000
M  V30 BEGIN CTAB
M  V30 COUNTS 44 47 0 0 0
M  V30 BEGIN ATOM
M  V30 1 C -1.302535 -6.608913 2.475236 0
M  V30 2 O -0.103041 -6.616344 1.687120 0
M  V30 3 C 0.419488 -5.433744 1.181020 0
M  V30 4 C 1.579929 -5.428325 0.417449 0
M  V30 5 C 2.126900 -4.268064 -0.101493 0
M  V30 6 C 1.521934 -3.049478 0.128686 0
M  V30 7 C 1.971598 -1.743617 -0.343431 0
M  V30 8 C 1.020126 -0.756629 -0.617008 0
M  V30 9 C 1.380124 0.501506 -1.063186 0
M  V30 10 C 2.723020 0.829269 -1.256883 0
M  V30 11 C 3.008733 2.213447 -1.733657 0
M  V30 12 S 3.267620 3.352244 -0.380465 0
M  V30 13 C 1.802151 3.622123 0.610468 0
M  V30 14 N 1.919265 4.466006 1.652505 0
M  V30 15 N 0.761746 4.529625 2.242263 0
M  V30 16 C -0.111214 3.726772 1.584224 0
M  V30 17 C -1.507426 3.442707 1.827110 0
M  V30 18 C -2.157981 2.577795 0.979531 0
M  V30 19 C -3.505517 2.284301 1.189160 0
M  V30 20 N -4.194942 2.836526 2.217999 0
M  V30 21 C -3.570184 3.681647 3.051092 0
M  V30 22 C -2.240738 3.984371 2.861447 0
M  V30 23 O 0.578380 3.207426 0.609180 0
M  V30 24 C 3.667672 -0.141301 -0.988369 0
M  V30 25 C 3.282344 -1.367407 -0.551337 0
M  V30 26 C 0.357153 -3.062305 0.896055 0
M  V30 27 C -0.204447 -4.220694 1.424345 0
M  V30 28 H -1.441795 -7.564990 2.997282 0
M  V30 29 H -1.198864 -5.821578 3.269943 0
M  V30 30 H -2.146077 -6.298825 1.840312 0
M  V30 31 H 2.081046 -6.374149 0.217169 0
M  V30 32 H 3.025966 -4.236429 -0.696830 0
M  V30 33 H -0.048313 -0.962300 -0.482331 0
M  V30 34 H 0.603975 1.209643 -1.256954 0
M  V30 35 H 2.237542 2.565286 -2.448808 0
M  V30 36 H 3.949149 2.159695 -2.317652 0
M  V30 37 H -1.676542 2.086178 0.120532 0
M  V30 38 H -4.066619 1.609082 0.549611 0
M  V30 39 H -4.099139 4.138517 3.885753 0
M  V30 40 H -1.730575 4.660203 3.524088 0
M  V30 41 H 4.699436 0.131924 -1.144448 0
M  V30 42 H 4.027891 -2.138970 -0.338515 0
M  V30 43 H -0.215386 -2.167913 1.149859 0
M  V30 44 H -1.093968 -4.225138 2.009518 0
M  V30 END ATOM
M  V30 BEGIN BOND
M  V30 1 1 1 2
M  V30 2 1 2 3
M  V30 3 2 3 4
M  V30 4 1 4 5
M  V30 5 2 5 6
M  V30 6 1 6 7
M  V30 7 2 7 8
M  V30 8 1 8 9
M  V30 9 2 9 10
M  V30 10 1 10 11
M  V30 11 1 11 12
M  V30 12 1 12 13
M  V30 13 2 13 14
M  V30 14 1 14 15
M  V30 15 2 15 16
M  V30 16 1 16 17
M  V30 17 2 17 18
M  V30 18 1 18 19
M  V30 19 2 19 20
M  V30 20 1 20 21
M  V30 21 2 21 22
M  V30 22 1 16 23
M  V30 23 1 10 24
M  V30 24 2 24 25
M  V30 25 1 6 26
M  V30 26 2 26 27
M  V30 27 1 27 3
M  V30 28 1 25 7
M  V30 29 1 23 13
M  V30 30 1 22 17
M  V30 31 1 1 28
M  V30 32 1 1 29
M  V30 33 1 1 30
M  V30 34 1 4 31
M  V30 35 1 5 32
M  V30 36 1 8 33
M  V30 37 1 9 34
M  V30 38 1 11 35
M  V30 39 1 11 36
M  V30 40 1 18 37
M  V30 41 1 19 38
M  V30 42 1 21 39
M  V30 43 1 22 40
M  V30 44 1 24 41
M  V30 45 1 25 42
M  V30 46 1 26 43
M  V30 47 1 27 44
M  V30 END BOND
M  V30 END CTAB
M  END
>  <Dataset>  (21) 
ChEMBL_Kinases

>  <Ligand_Instance>  (21) 
nan

>  <PDB_ID>  (21) 
nan

>  <Standardized_SMILES>  (21) 
COc1ccc(-c2ccc(CSc3nnc(-c4ccncc4)o3)cc2)cc1

>  <Name>  (21) 
nan

>  <Pocket>  (21) 
nan

>  <ATP_Site>  (21) 
nan

>  <Peripheral>  (21) 
nan

>  <Num_H_Atoms_ProtBoundConf>  (21) 
nan

>  <Num_Resolved_Atoms>  (21) 
nan

>  <Num_Not_Resolved_Atoms>  (21) 
nan

$$$$
CHEMBL3695578
     RDKit          3D

  0  0  0  0  0  0  0  0  0  0999 V3000
M  V30 BEGIN CTAB
M  V30 COUNTS 68 73 0 0 0
M  V30 BEGIN ATOM
M  V30 1 C 5.109478 -3.964969 2.443166 0
M  V30 2 C 4.639433 -3.162376 1.279784 0
M  V30 3 C 3.459158 -3.517016 0.652891 0
M  V30 4 C 2.991890 -2.798687 -0.427112 0
M  V30 5 C 3.721769 -1.716019 -0.875619 0
M  V30 6 N 3.441826 -0.831482 -1.962390 0
M  V30 7 N 3.619539 -1.294581 -3.209407 0
M  V30 8 C 3.299903 -0.303533 -4.082347 0
M  V30 9 C 3.334615 -0.331005 -5.570865 0
M  V30 10 C 4.699764 -0.771835 -6.052095 0
M  V30 11 C 2.377581 -1.457283 -5.981155 0
M  V30 12 C 2.911978 0.809418 -3.375248 0
M  V30 13 C 3.013630 0.441063 -2.048502 0
M  V30 14 N 2.760048 1.128089 -0.805860 0
M  V30 15 C 1.412612 0.925625 -0.417471 0
M  V30 16 O 0.480376 0.265805 -0.986601 0
M  V30 17 N 0.900249 1.511080 0.798434 0
M  V30 18 C -0.438262 1.365591 1.275438 0
M  V30 19 C -1.507821 2.190768 0.982499 0
M  V30 20 C -2.754128 1.928935 1.517830 0
M  V30 21 C -3.001453 0.844223 2.363921 0
M  V30 22 O -4.286458 0.778533 2.769165 0
M  V30 23 C -5.302356 -0.075297 2.668454 0
M  V30 24 C -5.387883 -1.323523 2.031501 0
M  V30 25 C -6.491688 -2.122849 1.990729 0
M  V30 26 N -7.586594 -1.696982 2.601376 0
M  V30 27 C -7.599867 -0.506324 3.242114 0
M  V30 28 N -8.771324 -0.193307 3.818977 0
M  V30 29 C -8.893535 0.969461 4.482677 0
M  V30 30 O -9.937021 1.375274 5.064332 0
M  V30 31 C -7.767897 1.773455 4.518372 0
M  V30 32 N -6.583427 1.483698 3.949367 0
M  V30 33 C -6.475868 0.320085 3.290311 0
M  V30 34 C -1.921113 0.030641 2.645969 0
M  V30 35 C -2.219542 -1.020523 3.487293 0
M  V30 36 C -1.192642 -1.885724 3.824991 0
M  V30 37 C 0.095879 -1.684035 3.320632 0
M  V30 38 C 0.307639 -0.602749 2.482324 0
M  V30 39 C -0.673991 0.291493 2.111130 0
M  V30 40 C 4.901025 -1.353841 -0.256774 0
M  V30 41 C 5.390799 -2.069876 0.839464 0
M  V30 42 H 5.910426 -3.433814 2.986307 0
M  V30 43 H 5.482217 -4.938522 2.011158 0
M  V30 44 H 4.258759 -4.249656 3.107592 0
M  V30 45 H 2.851697 -4.349333 0.959810 0
M  V30 46 H 2.090568 -2.969904 -1.002225 0
M  V30 47 H 3.026453 0.628801 -6.033920 0
M  V30 48 H 4.577107 -1.365347 -6.984861 0
M  V30 49 H 5.140625 -1.482348 -5.302526 0
M  V30 50 H 5.384840 0.057758 -6.252294 0
M  V30 51 H 2.413600 -2.240222 -5.202123 0
M  V30 52 H 2.700529 -1.951299 -6.918000 0
M  V30 53 H 1.323138 -1.082029 -6.032992 0
M  V30 54 H 2.582712 1.798397 -3.645830 0
M  V30 55 H 3.398678 1.704602 -0.215171 0
M  V30 56 H 1.508432 2.098107 1.420308 0
M  V30 57 H -1.297668 3.023842 0.326905 0
M  V30 58 H -3.510974 2.661767 1.203457 0
M  V30 59 H -4.441139 -1.612352 1.546143 0
M  V30 60 H -6.437036 -3.072227 1.464573 0
M  V30 61 H -9.609177 -0.813789 3.780898 0
M  V30 62 H -7.818049 2.725574 5.044603 0
M  V30 63 H -3.206899 -1.191697 3.891216 0
M  V30 64 H -1.348860 -2.725297 4.474103 0
M  V30 65 H 0.939859 -2.336971 3.556234 0
M  V30 66 H 1.313622 -0.446593 2.089400 0
M  V30 67 H 5.561582 -0.534104 -0.507549 0
M  V30 68 H 6.311416 -1.833626 1.367854 0
M  V30 END ATOM
M  V30 BEGIN BOND
M  V30 1 1 1 2
M  V30 2 2 2 3
M  V30 3 1 3 4
M  V30 4 2 4 5
M  V30 5 1 5 6
M  V30 6 1 6 7
M  V30 7 2 7 8
M  V30 8 1 8 9
M  V30 9 1 9 10
M  V30 10 1 9 11
M  V30 11 1 8 12
M  V30 12 2 12 13
M  V30 13 1 13 14
M  V30 14 1 14 15
M  V30 15 2 15 16
M  V30 16 1 15 17
M  V30 17 1 17 18
M  V30 18 2 18 19
M  V30 19 1 19 20
M  V30 20 2 20 21
M  V30 21 1 21 22
M  V30 22 1 22 23
M  V30 23 2 23 24
M  V30 24 1 24 25
M  V30 25 2 25 26
M  V30 26 1 26 27
M  V30 27 1 27 28
M  V30 28 1 28 29
M  V30 29 2 29 30
M  V30 30 1 29 31
M  V30 31 2 31 32
M  V30 32 1 32 33
M  V30 33 1 21 34
M  V30 34 2 34 35
M  V30 35 1 35 36
M  V30 36 2 36 37
M  V30 37 1 37 38
M  V30 38 2 38 39
M  V30 39 1 5 40
M  V30 40 2 40 41
M  V30 41 1 41 2
M  V30 42 1 13 6
M  V30 43 1 39 18
M  V30 44 1 33 23
M  V30 45 1 39 34
M  V30 46 2 33 27
M  V30 47 1 1 42
M  V30 48 1 1 43
M  V30 49 1 1 44
M  V30 50 1 3 45
M  V30 51 1 4 46
M  V30 52 1 9 47
M  V30 53 1 10 48
M  V30 54 1 10 49
M  V30 55 1 10 50
M  V30 56 1 11 51
M  V30 57 1 11 52
M  V30 58 1 11 53
M  V30 59 1 12 54
M  V30 60 1 14 55
M  V30 61 1 17 56
M  V30 62 1 19 57
M  V30 63 1 20 58
M  V30 64 1 24 59
M  V30 65 1 25 60
M  V30 66 1 28 61
M  V30 67 1 31 62
M  V30 68 1 35 63
M  V30 69 1 36 64
M  V30 70 1 37 65
M  V30 71 1 38 66
M  V30 72 1 40 67
M  V30 73 1 41 68
M  V30 END BOND
M  V30 END CTAB
M  END
>  <Dataset>  (22) 
ChEMBL_Kinases

>  <Ligand_Instance>  (22) 
nan

>  <PDB_ID>  (22) 
nan

>  <Standardized_SMILES>  (22) 
Cc1ccc(-n2nc(C(C)C)cc2NC(=O)Nc2ccc(Oc3ccnc4[nH]c(=O)cnc34)c3ccccc23)cc1

>  <Name>  (22) 
nan

>  <Pocket>  (22) 
nan

>  <ATP_Site>  (22) 
nan

>  <Peripheral>  (22) 
nan

>  <Num_H_Atoms_ProtBoundConf>  (22) 
nan

>  <Num_Resolved_Atoms>  (22) 
nan

>  <Num_Not_Resolved_Atoms>  (22) 
nan

$$$$
CHEMBL2391132
     RDKit          3D

  0  0  0  0  0  0  0  0  0  0999 V3000
M  V30 BEGIN CTAB
M  V30 COUNTS 41 44 0 0 0
M  V30 BEGIN ATOM
M  V30 1 N 1.793047 -6.893765 1.193539 0
M  V30 2 C 2.299655 -5.898727 0.830423 0
M  V30 3 C 2.910755 -4.688108 0.365353 0
M  V30 4 C 4.287487 -4.583915 0.373840 0
M  V30 5 C 4.882067 -3.421131 -0.071793 0
M  V30 6 C 4.067258 -2.391509 -0.515472 0
M  V30 7 C 2.681333 -2.472242 -0.533696 0
M  V30 8 C 1.842159 -1.373152 -1.004556 0
M  V30 9 C 2.173438 -0.465519 -1.992331 0
M  V30 10 C 1.281973 0.529074 -2.342069 0
M  V30 11 C 0.038027 0.679656 -1.747477 0
M  V30 12 C -0.891035 1.752701 -2.146507 0
M  V30 13 S -0.664841 3.283715 -1.198006 0
M  V30 14 C -1.098869 3.055467 0.519227 0
M  V30 15 N -0.975427 4.134541 1.346907 0
M  V30 16 N -1.351328 3.726154 2.559244 0
M  V30 17 C -1.700308 2.430405 2.495734 0
M  V30 18 C -2.175742 1.554768 3.563889 0
M  V30 19 C -2.460778 0.247704 3.208337 0
M  V30 20 C -2.913177 -0.608625 4.191340 0
M  V30 21 N -3.061628 -0.160953 5.439854 0
M  V30 22 C -2.786246 1.103670 5.785635 0
M  V30 23 C -2.326338 2.025120 4.850570 0
M  V30 24 O -1.529493 2.076028 1.244119 0
M  V30 25 C -0.274369 -0.249497 -0.752017 0
M  V30 26 C 0.603121 -1.254066 -0.385405 0
M  V30 27 C 2.099405 -3.644188 -0.083946 0
M  V30 28 H 4.857250 -5.434487 0.737030 0
M  V30 29 H 5.963074 -3.339477 -0.065206 0
M  V30 30 H 4.538765 -1.487794 -0.861920 0
M  V30 31 H 3.142102 -0.600067 -2.440667 0
M  V30 32 H 1.567177 1.221951 -3.114780 0
M  V30 33 H -0.919679 1.932548 -3.225030 0
M  V30 34 H -1.930661 1.393841 -1.882311 0
M  V30 35 H -2.344254 -0.137801 2.185438 0
M  V30 36 H -3.159915 -1.652729 3.994403 0
M  V30 37 H -2.925609 1.418900 6.826337 0
M  V30 38 H -2.099437 3.050037 5.115549 0
M  V30 39 H -1.210036 -0.204405 -0.246958 0
M  V30 40 H 0.301478 -1.949463 0.399194 0
M  V30 41 H 1.022434 -3.800709 -0.060733 0
M  V30 END ATOM
M  V30 BEGIN BOND
M  V30 1 3 1 2
M  V30 2 1 2 3
M  V30 3 2 3 4
M  V30 4 1 4 5
M  V30 5 2 5 6
M  V30 6 1 6 7
M  V30 7 1 7 8
M  V30 8 2 8 9
M  V30 9 1 9 10
M  V30 10 2 10 11
M  V30 11 1 11 12
M  V30 12 1 12 13
M  V30 13 1 13 14
M  V30 14 2 14 15
M  V30 15 1 15 16
M  V30 16 2 16 17
M  V30 17 1 17 18
M  V30 18 2 18 19
M  V30 19 1 19 20
M  V30 20 2 20 21
M  V30 21 1 21 22
M  V30 22 2 22 23
M  V30 23 1 17 24
M  V30 24 1 11 25
M  V30 25 2 25 26
M  V30 26 2 7 27
M  V30 27 1 27 3
M  V30 28 1 26 8
M  V30 29 1 24 14
M  V30 30 1 23 18
M  V30 31 1 4 28
M  V30 32 1 5 29
M  V30 33 1 6 30
M  V30 34 1 9 31
M  V30 35 1 10 32
M  V30 36 1 12 33
M  V30 37 1 12 34
M  V30 38 1 19 35
M  V30 39 1 20 36
M  V30 40 1 22 37
M  V30 41 1 23 38
M  V30 42 1 25 39
M  V30 43 1 26 40
M  V30 44 1 27 41
M  V30 END BOND
M  V30 END CTAB
M  END
>  <Dataset>  (23) 
ChEMBL_Kinases

>  <Ligand_Instance>  (23) 
nan

>  <PDB_ID>  (23) 
nan

>  <Standardized_SMILES>  (23) 
N#Cc1cccc(-c2ccc(CSc3nnc(-c4ccncc4)o3)cc2)c1

>  <Name>  (23) 
nan

>  <Pocket>  (23) 
nan

>  <ATP_Site>  (23) 
nan

>  <Peripheral>  (23) 
nan

>  <Num_H_Atoms_ProtBoundConf>  (23) 
nan

>  <Num_Resolved_Atoms>  (23) 
nan

>  <Num_Not_Resolved_Atoms>  (23) 
nan

$$$$
CHEMBL3695577
     RDKit          3D

  0  0  0  0  0  0  0  0  0  0999 V3000
M  V30 BEGIN CTAB
M  V30 COUNTS 69 75 0 0 0
M  V30 BEGIN ATOM
M  V30 1 C -2.929516 4.908946 2.487658 0
M  V30 2 C -1.925174 4.435946 1.527027 0
M  V30 3 C -1.070998 5.274465 0.821728 0
M  V30 4 C -0.186246 4.630093 -0.044870 0
M  V30 5 C -0.121150 3.264039 -0.227503 0
M  V30 6 N 0.860502 2.835630 -1.163047 0
M  V30 7 N 1.000081 3.387031 -2.367014 0
M  V30 8 C 1.982797 2.813663 -3.045015 0
M  V30 9 C 2.384494 3.209112 -4.418326 0
M  V30 10 C 3.530939 2.392963 -4.979280 0
M  V30 11 C 1.188534 3.376033 -5.359784 0
M  V30 12 C 2.062435 4.534866 -4.967359 0
M  V30 13 C 2.523968 1.827300 -2.244928 0
M  V30 14 C 1.794745 1.873522 -1.078210 0
M  V30 15 N 2.002945 1.031655 0.045189 0
M  V30 16 C 1.472746 -0.214830 0.380654 0
M  V30 17 O 0.670574 -0.655518 -0.479972 0
M  V30 18 N 1.833793 -0.878634 1.584760 0
M  V30 19 C 1.212202 -2.144344 1.799076 0
M  V30 20 C 0.015049 -2.119836 2.484084 0
M  V30 21 C -0.658117 -3.294981 2.737108 0
M  V30 22 C -0.208385 -4.536628 2.342268 0
M  V30 23 O -0.780598 -5.778412 2.528444 0
M  V30 24 C -1.978779 -5.927297 3.154941 0
M  V30 25 C -2.132647 -6.632144 4.333736 0
M  V30 26 C -3.346480 -6.768922 4.943072 0
M  V30 27 N -4.435142 -6.213828 4.403272 0
M  V30 28 C -4.327317 -5.514096 3.246869 0
M  V30 29 N -5.497849 -5.003878 2.792815 0
M  V30 30 C -5.497686 -4.300613 1.651565 0
M  V30 31 O -6.585740 -3.827950 1.232091 0
M  V30 32 C -4.292020 -4.139738 1.005736 0
M  V30 33 N -3.119998 -4.630092 1.427565 0
M  V30 34 C -3.112484 -5.346112 2.587287 0
M  V30 35 C 1.010077 -4.504721 1.651536 0
M  V30 36 C 1.563730 -5.706806 1.202967 0
M  V30 37 C 2.768135 -5.705223 0.517755 0
M  V30 38 C 3.452176 -4.538898 0.258027 0
M  V30 39 C 2.912753 -3.357768 0.696084 0
M  V30 40 C 1.717709 -3.355007 1.376381 0
M  V30 41 C -0.995296 2.481053 0.500988 0
M  V30 42 C -1.889209 3.072384 1.371299 0
M  V30 43 H -2.788824 5.950182 2.834518 0
M  V30 44 H -3.013607 4.239283 3.381206 0
M  V30 45 H -3.966192 4.881701 2.040962 0
M  V30 46 H -1.128328 6.325232 0.968139 0
M  V30 47 H 0.465250 5.324637 -0.577819 0
M  V30 48 H 4.485090 2.726611 -4.497957 0
M  V30 49 H 3.573478 2.403237 -6.072763 0
M  V30 50 H 3.379401 1.345239 -4.639097 0
M  V30 51 H 0.175382 3.443173 -4.969750 0
M  V30 52 H 1.245620 2.961115 -6.381549 0
M  V30 53 H 1.712142 5.316857 -4.292557 0
M  V30 54 H 2.744841 4.885097 -5.763164 0
M  V30 55 H 3.344625 1.164545 -2.490455 0
M  V30 56 H 2.691576 1.520861 0.678062 0
M  V30 57 H 2.523918 -0.436821 2.261009 0
M  V30 58 H -0.458189 -1.219576 2.853884 0
M  V30 59 H -1.591831 -3.291220 3.279904 0
M  V30 60 H -1.204437 -7.055667 4.713281 0
M  V30 61 H -3.314035 -7.345632 5.858008 0
M  V30 62 H -6.394371 -5.134607 3.290864 0
M  V30 63 H -4.313207 -3.559453 0.070605 0
M  V30 64 H 1.056727 -6.665986 1.384767 0
M  V30 65 H 3.143670 -6.668884 0.197754 0
M  V30 66 H 4.397668 -4.556952 -0.281278 0
M  V30 67 H 3.425572 -2.408044 0.509522 0
M  V30 68 H -0.914435 1.428051 0.331066 0
M  V30 69 H -2.538218 2.368817 1.900489 0
M  V30 END ATOM
M  V30 BEGIN BOND
M  V30 1 1 1 2
M  V30 2 2 2 3
M  V30 3 1 3 4
M  V30 4 2 4 5
M  V30 5 1 5 6
M  V30 6 1 6 7
M  V30 7 2 7 8
M  V30 8 1 8 9
M  V30 9 1 9 10
M  V30 10 1 9 11
M  V30 11 1 11 12
M  V30 12 1 8 13
M  V30 13 2 13 14
M  V30 14 1 14 15
M  V30 15 1 15 16
M  V30 16 2 16 17
M  V30 17 1 16 18
M  V30 18 1 18 19
M  V30 19 2 19 20
M  V30 20 1 20 21
M  V30 21 2 21 22
M  V30 22 1 22 23
M  V30 23 1 23 24
M  V30 24 2 24 25
M  V30 25 1 25 26
M  V30 26 2 26 27
M  V30 27 1 27 28
M  V30 28 1 28 29
M  V30 29 1 29 30
M  V30 30 2 30 31
M  V30 31 1 30 32
M  V30 32 2 32 33
M  V30 33 1 33 34
M  V30 34 1 22 35
M  V30 35 2 35 36
M  V30 36 1 36 37
M  V30 37 2 37 38
M  V30 38 1 38 39
M  V30 39 2 39 40
M  V30 40 1 5 41
M  V30 41 2 41 42
M  V30 42 1 42 2
M  V30 43 1 14 6
M  V30 44 1 40 19
M  V30 45 1 12 9
M  V30 46 1 34 24
M  V30 47 1 40 35
M  V30 48 2 34 28
M  V30 49 1 1 43
M  V30 50 1 1 44
M  V30 51 1 1 45
M  V30 52 1 3 46
M  V30 53 1 4 47
M  V30 54 1 10 48
M  V30 55 1 10 49
M  V30 56 1 10 50
M  V30 57 1 11 51
M  V30 58 1 11 52
M  V30 59 1 12 53
M  V30 60 1 12 54
M  V30 61 1 13 55
M  V30 62 1 15 56
M  V30 63 1 18 57
M  V30 64 1 20 58
M  V30 65 1 21 59
M  V30 66 1 25 60
M  V30 67 1 26 61
M  V30 68 1 29 62
M  V30 69 1 32 63
M  V30 70 1 36 64
M  V30 71 1 37 65
M  V30 72 1 38 66
M  V30 73 1 39 67
M  V30 74 1 41 68
M  V30 75 1 42 69
M  V30 END BOND
M  V30 END CTAB
M  END
>  <Dataset>  (24) 
ChEMBL_Kinases

>  <Ligand_Instance>  (24) 
nan

>  <PDB_ID>  (24) 
nan

>  <Standardized_SMILES>  (24) 
Cc1ccc(-n2nc(C3(C)CC3)cc2NC(=O)Nc2ccc(Oc3ccnc4[nH]c(=O)cnc34)c3ccccc23)cc1

>  <Name>  (24) 
nan

>  <Pocket>  (24) 
nan

>  <ATP_Site>  (24) 
nan

>  <Peripheral>  (24) 
nan

>  <Num_H_Atoms_ProtBoundConf>  (24) 
nan

>  <Num_Resolved_Atoms>  (24) 
nan

>  <Num_Not_Resolved_Atoms>  (24) 
nan

$$$$
CHEMBL2392101
     RDKit          3D

  0  0  0  0  0  0  0  0  0  0999 V3000
M  V30 BEGIN CTAB
M  V30 COUNTS 51 55 0 0 0
M  V30 BEGIN ATOM
M  V30 1 C 4.363510 -3.612317 2.605747 0
M  V30 2 C 5.047920 -2.482394 1.900399 0
M  V30 3 N 6.190374 -2.453140 1.219770 0
M  V30 4 C 6.666194 -1.348301 0.645892 0
M  V30 5 Cl 8.185338 -1.529253 -0.200485 0
M  V30 6 C 5.913103 -0.169378 0.777407 0
M  V30 7 C 4.720071 -0.189266 1.484346 0
M  V30 8 N 4.144357 1.100441 1.484696 0
M  V30 9 C 3.404548 1.995162 0.709370 0
M  V30 10 C 4.081876 3.200339 0.488787 0
M  V30 11 N 3.290514 3.975179 -0.275060 0
M  V30 12 N 2.190481 3.297143 -0.515518 0
M  V30 13 C 2.202952 2.086995 0.056972 0
M  V30 14 C 1.233882 1.022886 0.065756 0
M  V30 15 N 0.076853 1.174350 -0.600865 0
M  V30 16 C -0.707548 0.093668 -0.491358 0
M  V30 17 C -1.946077 -0.248883 -0.969601 0
M  V30 18 C -2.536241 -1.466941 -0.699423 0
M  V30 19 C -3.876614 -1.808946 -1.228767 0
M  V30 20 N -4.971901 -1.476767 -0.398745 0
M  V30 21 C -5.144698 -0.113632 -0.040313 0
M  V30 22 C -5.981669 -0.062670 1.230054 0
M  V30 23 O -5.254469 -0.621067 2.279653 0
M  V30 24 C -4.820883 -1.913023 1.996515 0
M  V30 25 C -5.258518 -2.393309 0.651128 0
M  V30 26 C -1.801056 -2.342232 0.094944 0
M  V30 27 C -0.543024 -2.049882 0.607152 0
M  V30 28 C -0.018455 -0.813359 0.293500 0
M  V30 29 N 1.137384 -0.190983 0.592879 0
M  V30 30 N 4.353457 -1.361981 2.011499 0
M  V30 31 H 5.053830 -4.462714 2.659062 0
M  V30 32 H 3.372962 -3.843384 2.183818 0
M  V30 33 H 4.152385 -3.285907 3.666060 0
M  V30 34 H 6.372222 0.673099 0.283343 0
M  V30 35 H 4.465354 1.340781 2.471228 0
M  V30 36 H 5.033430 3.675464 0.749164 0
M  V30 37 H 3.374902 4.934290 -0.681618 0
M  V30 38 H -2.446708 0.505477 -1.584343 0
M  V30 39 H -3.957530 -2.888399 -1.481965 0
M  V30 40 H -3.997319 -1.272427 -2.200027 0
M  V30 41 H -4.189070 0.414521 0.212539 0
M  V30 42 H -5.637768 0.476612 -0.819649 0
M  V30 43 H -6.941402 -0.590895 1.116277 0
M  V30 44 H -6.125980 1.014051 1.479008 0
M  V30 45 H -5.333372 -2.570869 2.758407 0
M  V30 46 H -3.750071 -2.017492 2.211249 0
M  V30 47 H -4.818668 -3.399887 0.504693 0
M  V30 48 H -6.379946 -2.504900 0.711294 0
M  V30 49 H -2.244355 -3.296761 0.318538 0
M  V30 50 H 0.027408 -2.724623 1.220562 0
M  V30 51 H 1.875734 -0.601183 1.170687 0
M  V30 END ATOM
M  V30 BEGIN BOND
M  V30 1 1 1 2
M  V30 2 2 2 3
M  V30 3 1 3 4
M  V30 4 1 4 5
M  V30 5 2 4 6
M  V30 6 1 6 7
M  V30 7 1 7 8
M  V30 8 1 8 9
M  V30 9 2 9 10
M  V30 10 1 10 11
M  V30 11 1 11 12
M  V30 12 2 12 13
M  V30 13 1 13 14
M  V30 14 2 14 15
M  V30 15 1 15 16
M  V30 16 2 16 17
M  V30 17 1 17 18
M  V30 18 1 18 19
M  V30 19 1 19 20
M  V30 20 1 20 21
M  V30 21 1 21 22
M  V30 22 1 22 23
M  V30 23 1 23 24
M  V30 24 1 24 25
M  V30 25 2 18 26
M  V30 26 1 26 27
M  V30 27 2 27 28
M  V30 28 1 28 29
M  V30 29 2 7 30
M  V30 30 1 30 2
M  V30 31 1 13 9
M  V30 32 1 29 14
M  V30 33 1 28 16
M  V30 34 1 25 20
M  V30 35 1 1 31
M  V30 36 1 1 32
M  V30 37 1 1 33
M  V30 38 1 6 34
M  V30 39 1 8 35
M  V30 40 1 10 36
M  V30 41 1 11 37
M  V30 42 1 17 38
M  V30 43 1 19 39
M  V30 44 1 19 40
M  V30 45 1 21 41
M  V30 46 1 21 42
M  V30 47 1 22 43
M  V30 48 1 22 44
M  V30 49 1 24 45
M  V30 50 1 24 46
M  V30 51 1 25 47
M  V30 52 1 25 48
M  V30 53 1 26 49
M  V30 54 1 27 50
M  V30 55 1 29 51
M  V30 END BOND
M  V30 END CTAB
M  END
>  <Dataset>  (25) 
ChEMBL_Kinases

>  <Ligand_Instance>  (25) 
nan

>  <PDB_ID>  (25) 
nan

>  <Standardized_SMILES>  (25) 
Cc1nc(Cl)cc(Nc2c[nH]nc2-c2nc3cc(CN4CCOCC4)ccc3[nH]2)n1

>  <Name>  (25) 
nan

>  <Pocket>  (25) 
nan

>  <ATP_Site>  (25) 
nan

>  <Peripheral>  (25) 
nan

>  <Num_H_Atoms_ProtBoundConf>  (25) 
nan

>  <Num_Resolved_Atoms>  (25) 
nan

>  <Num_Not_Resolved_Atoms>  (25) 
nan

$$$$
CHEMBL2392102
     RDKit          3D

  0  0  0  0  0  0  0  0  0  0999 V3000
M  V30 BEGIN CTAB
M  V30 COUNTS 52 56 0 0 0
M  V30 BEGIN ATOM
M  V30 1 C 0.029936 -0.263634 4.292886 0
M  V30 2 S 0.834814 1.305429 4.782047 0
M  V30 3 C 2.481412 1.370941 4.100032 0
M  V30 4 N 3.520143 0.869254 4.812390 0
M  V30 5 C 4.767777 0.889490 4.357367 0
M  V30 6 Cl 6.135013 0.251443 5.248073 0
M  V30 7 C 5.099041 1.418382 3.134855 0
M  V30 8 C 4.045755 1.929641 2.407142 0
M  V30 9 N 4.056498 2.538429 1.122580 0
M  V30 10 C 3.107367 3.105264 0.242552 0
M  V30 11 C 3.236050 4.449306 -0.092888 0
M  V30 12 N 2.215301 4.710150 -0.925321 0
M  V30 13 N 1.525299 3.610646 -1.080465 0
M  V30 14 C 2.012437 2.576140 -0.392842 0
M  V30 15 C 1.504239 1.221990 -0.358453 0
M  V30 16 N 0.416868 0.844459 -1.026499 0
M  V30 17 C 0.126358 -0.456533 -0.864646 0
M  V30 18 C -0.884192 -1.255817 -1.358323 0
M  V30 19 C -0.956181 -2.594894 -1.029971 0
M  V30 20 C -1.997157 -3.500102 -1.514147 0
M  V30 21 N -3.157913 -3.615103 -0.716160 0
M  V30 22 C -3.931424 -2.457015 -0.470363 0
M  V30 23 C -5.225451 -2.556855 -1.276629 0
M  V30 24 O -5.989710 -3.603529 -0.828326 0
M  V30 25 C -5.259594 -4.628297 -0.234049 0
M  V30 26 C -3.911954 -4.812735 -0.900335 0
M  V30 27 C 0.049013 -3.052804 -0.183700 0
M  V30 28 C 1.064199 -2.276624 0.319817 0
M  V30 29 C 1.103918 -0.951812 -0.027477 0
M  V30 30 N 1.899540 0.097612 0.241887 0
M  V30 31 N 2.798013 1.885356 2.912838 0
M  V30 32 H -0.303654 -0.207208 3.224023 0
M  V30 33 H 0.686927 -1.118900 4.477314 0
M  V30 34 H -0.878817 -0.369048 4.909922 0
M  V30 35 H 6.049419 1.506237 2.635847 0
M  V30 36 H 5.056327 2.554314 0.757452 0
M  V30 37 H 3.929426 5.240375 0.162908 0
M  V30 38 H 1.871301 5.566474 -1.451325 0
M  V30 39 H -1.612308 -0.820217 -2.001849 0
M  V30 40 H -2.260719 -3.204757 -2.572181 0
M  V30 41 H -1.575616 -4.523825 -1.630896 0
M  V30 42 H -3.436923 -1.503287 -0.608876 0
M  V30 43 H -4.265032 -2.468962 0.608175 0
M  V30 44 H -5.047345 -2.580985 -2.362072 0
M  V30 45 H -5.826168 -1.620287 -1.097371 0
M  V30 46 H -5.851974 -5.568549 -0.237036 0
M  V30 47 H -5.064250 -4.335059 0.818865 0
M  V30 48 H -4.053254 -5.094828 -1.965643 0
M  V30 49 H -3.409482 -5.645716 -0.340891 0
M  V30 50 H 0.093226 -4.098262 0.144214 0
M  V30 51 H 1.828733 -2.647052 0.969764 0
M  V30 52 H 2.719109 -0.005181 0.849472 0
M  V30 END ATOM
M  V30 BEGIN BOND
M  V30 1 1 1 2
M  V30 2 1 2 3
M  V30 3 2 3 4
M  V30 4 1 4 5
M  V30 5 1 5 6
M  V30 6 2 5 7
M  V30 7 1 7 8
M  V30 8 1 8 9
M  V30 9 1 9 10
M  V30 10 2 10 11
M  V30 11 1 11 12
M  V30 12 1 12 13
M  V30 13 2 13 14
M  V30 14 1 14 15
M  V30 15 2 15 16
M  V30 16 1 16 17
M  V30 17 2 17 18
M  V30 18 1 18 19
M  V30 19 1 19 20
M  V30 20 1 20 21
M  V30 21 1 21 22
M  V30 22 1 22 23
M  V30 23 1 23 24
M  V30 24 1 24 25
M  V30 25 1 25 26
M  V30 26 2 19 27
M  V30 27 1 27 28
M  V30 28 2 28 29
M  V30 29 1 29 30
M  V30 30 2 8 31
M  V30 31 1 31 3
M  V30 32 1 14 10
M  V30 33 1 30 15
M  V30 34 1 29 17
M  V30 35 1 26 21
M  V30 36 1 1 32
M  V30 37 1 1 33
M  V30 38 1 1 34
M  V30 39 1 7 35
M  V30 40 1 9 36
M  V30 41 1 11 37
M  V30 42 1 12 38
M  V30 43 1 18 39
M  V30 44 1 20 40
M  V30 45 1 20 41
M  V30 46 1 22 42
M  V30 47 1 22 43
M  V30 48 1 23 44
M  V30 49 1 23 45
M  V30 50 1 25 46
M  V30 51 1 25 47
M  V30 52 1 26 48
M  V30 53 1 26 49
M  V30 54 1 27 50
M  V30 55 1 28 51
M  V30 56 1 30 52
M  V30 END BOND
M  V30 END CTAB
M  END
>  <Dataset>  (26) 
ChEMBL_Kinases

>  <Ligand_Instance>  (26) 
nan

>  <PDB_ID>  (26) 
nan

>  <Standardized_SMILES>  (26) 
CSc1nc(Cl)cc(Nc2c[nH]nc2-c2nc3cc(CN4CCOCC4)ccc3[nH]2)n1

>  <Name>  (26) 
nan

>  <Pocket>  (26) 
nan

>  <ATP_Site>  (26) 
nan

>  <Peripheral>  (26) 
nan

>  <Num_H_Atoms_ProtBoundConf>  (26) 
nan

>  <Num_Resolved_Atoms>  (26) 
nan

>  <Num_Not_Resolved_Atoms>  (26) 
nan

$$$$
CHEMBL2392103
     RDKit          3D

  0  0  0  0  0  0  0  0  0  0999 V3000
M  V30 BEGIN CTAB
M  V30 COUNTS 70 76 0 0 0
M  V30 BEGIN ATOM
M  V30 1 O 5.378471 -0.749340 4.482353 0
M  V30 2 C 5.505835 -1.170448 5.681441 0
M  V30 3 N 4.935349 -0.529047 6.809169 0
M  V30 4 C 4.234364 0.619593 6.298736 0
M  V30 5 C 2.917135 0.363689 5.981073 0
M  V30 6 C 2.191503 1.441999 5.476788 0
M  V30 7 C 2.814479 2.671495 5.326985 0
M  V30 8 S 1.747707 3.944523 4.669458 0
M  V30 9 C 1.800481 3.981949 2.886431 0
M  V30 10 N 2.693293 4.739841 2.243391 0
M  V30 11 C 2.666198 4.711914 0.900304 0
M  V30 12 Cl 3.752702 5.634012 -0.099538 0
M  V30 13 C 1.763547 3.940915 0.210885 0
M  V30 14 C 0.830953 3.148942 0.872669 0
M  V30 15 N -0.168697 2.300564 0.339186 0
M  V30 16 C -1.090182 1.504074 1.050596 0
M  V30 17 C -1.116208 1.454454 2.420133 0
M  V30 18 N -2.109419 0.605287 2.704295 0
M  V30 19 N -2.652865 0.166466 1.592612 0
M  V30 20 C -2.046827 0.703393 0.497129 0
M  V30 21 C -2.435341 0.404499 -0.862062 0
M  V30 22 N -3.453245 -0.453854 -1.138223 0
M  V30 23 C -3.648913 -0.588012 -2.455493 0
M  V30 24 C -4.556288 -1.340528 -3.172414 0
M  V30 25 C -4.567612 -1.315290 -4.547971 0
M  V30 26 C -5.551433 -2.132175 -5.296936 0
M  V30 27 N -4.994870 -3.404558 -5.602006 0
M  V30 28 C -5.895069 -4.284862 -6.305816 0
M  V30 29 C -5.088195 -5.460925 -6.807949 0
M  V30 30 O -3.717920 -5.265068 -6.571805 0
M  V30 31 C -3.517733 -5.228103 -5.174386 0
M  V30 32 C -4.359735 -4.107026 -4.541433 0
M  V30 33 C -3.622997 -0.497434 -5.180393 0
M  V30 34 C -2.718562 0.252279 -4.452928 0
M  V30 35 C -2.730529 0.207793 -3.075443 0
M  V30 36 N -2.043545 0.767425 -2.080904 0
M  V30 37 N 0.924268 3.233409 2.208350 0
M  V30 38 C 4.137953 2.875919 5.660334 0
M  V30 39 C 4.883603 1.828895 6.162300 0
M  V30 40 C 6.332271 -2.374529 5.474943 0
M  V30 41 C 7.248339 -2.927783 6.471245 0
M  V30 42 C 5.984760 -3.660153 6.170397 0
M  V30 43 H 5.195459 -1.078655 7.656152 0
M  V30 44 H 2.452778 -0.605481 6.107851 0
M  V30 45 H 1.143025 1.250954 5.222363 0
M  V30 46 H 1.703985 3.886577 -0.872313 0
M  V30 47 H -0.074751 2.392389 -0.668376 0
M  V30 48 H -0.607211 1.868493 3.263488 0
M  V30 49 H -2.543426 0.218241 3.589310 0
M  V30 50 H -5.275785 -1.963494 -2.648615 0
M  V30 51 H -6.459338 -2.284104 -4.641476 0
M  V30 52 H -5.945153 -1.609599 -6.185332 0
M  V30 53 H -6.678098 -4.701049 -5.611917 0
M  V30 54 H -6.445701 -3.783399 -7.124961 0
M  V30 55 H -5.250889 -5.541578 -7.903403 0
M  V30 56 H -5.330331 -6.418165 -6.302965 0
M  V30 57 H -2.464295 -5.004588 -4.985680 0
M  V30 58 H -3.812392 -6.225013 -4.809448 0
M  V30 59 H -5.105008 -4.638282 -3.881195 0
M  V30 60 H -3.738700 -3.525697 -3.860488 0
M  V30 61 H -3.615197 -0.463389 -6.262064 0
M  V30 62 H -1.979598 0.889836 -4.898886 0
M  V30 63 H -1.283158 1.418829 -2.283556 0
M  V30 64 H 4.542499 3.857352 5.514903 0
M  V30 65 H 5.922516 1.959490 6.431890 0
M  V30 66 H 6.588269 -2.529805 4.403907 0
M  V30 67 H 7.345256 -2.417121 7.449496 0
M  V30 68 H 8.177908 -3.444805 6.122534 0
M  V30 69 H 5.201394 -3.558260 6.961812 0
M  V30 70 H 5.960684 -4.598196 5.609973 0
M  V30 END ATOM
M  V30 BEGIN BOND
M  V30 1 2 1 2
M  V30 2 1 2 3
M  V30 3 1 3 4
M  V30 4 2 4 5
M  V30 5 1 5 6
M  V30 6 2 6 7
M  V30 7 1 7 8
M  V30 8 1 8 9
M  V30 9 2 9 10
M  V30 10 1 10 11
M  V30 11 1 11 12
M  V30 12 2 11 13
M  V30 13 1 13 14
M  V30 14 1 14 15
M  V30 15 1 15 16
M  V30 16 2 16 17
M  V30 17 1 17 18
M  V30 18 1 18 19
M  V30 19 2 19 20
M  V30 20 1 20 21
M  V30 21 2 21 22
M  V30 22 1 22 23
M  V30 23 2 23 24
M  V30 24 1 24 25
M  V30 25 1 25 26
M  V30 26 1 26 27
M  V30 27 1 27 28
M  V30 28 1 28 29
M  V30 29 1 29 30
M  V30 30 1 30 31
M  V30 31 1 31 32
M  V30 32 2 25 33
M  V30 33 1 33 34
M  V30 34 2 34 35
M  V30 35 1 35 36
M  V30 36 2 14 37
M  V30 37 1 7 38
M  V30 38 2 38 39
M  V30 39 1 2 40
M  V30 40 1 40 41
M  V30 41 1 41 42
M  V30 42 1 39 4
M  V30 43 1 42 40
M  V30 44 1 37 9
M  V30 45 1 20 16
M  V30 46 1 36 21
M  V30 47 1 35 23
M  V30 48 1 32 27
M  V30 49 1 3 43
M  V30 50 1 5 44
M  V30 51 1 6 45
M  V30 52 1 13 46
M  V30 53 1 15 47
M  V30 54 1 17 48
M  V30 55 1 18 49
M  V30 56 1 24 50
M  V30 57 1 26 51
M  V30 58 1 26 52
M  V30 59 1 28 53
M  V30 60 1 28 54
M  V30 61 1 29 55
M  V30 62 1 29 56
M  V30 63 1 31 57
M  V30 64 1 31 58
M  V30 65 1 32 59
M  V30 66 1 32 60
M  V30 67 1 33 61
M  V30 68 1 34 62
M  V30 69 1 36 63
M  V30 70 1 38 64
M  V30 71 1 39 65
M  V30 72 1 40 66
M  V30 73 1 41 67
M  V30 74 1 41 68
M  V30 75 1 42 69
M  V30 76 1 42 70
M  V30 END BOND
M  V30 END CTAB
M  END
>  <Dataset>  (27) 
ChEMBL_Kinases

>  <Ligand_Instance>  (27) 
nan

>  <PDB_ID>  (27) 
nan

>  <Standardized_SMILES>  (27) 
O=C(Nc1ccc(Sc2nc(Cl)cc(Nc3c[nH]nc3-c3nc4cc(CN5CCOCC5)ccc4[nH]3)n2)cc1)C1CC1

>  <Name>  (27) 
nan

>  <Pocket>  (27) 
nan

>  <ATP_Site>  (27) 
nan

>  <Peripheral>  (27) 
nan

>  <Num_H_Atoms_ProtBoundConf>  (27) 
nan

>  <Num_Resolved_Atoms>  (27) 
nan

>  <Num_Not_Resolved_Atoms>  (27) 
nan

$$$$
CHEMBL2391128
     RDKit          3D

  0  0  0  0  0  0  0  0  0  0999 V3000
M  V30 BEGIN CTAB
M  V30 COUNTS 49 53 0 0 0
M  V30 BEGIN ATOM
M  V30 1 O 6.646906 -4.342910 -0.769994 0
M  V30 2 N 5.710883 -3.582744 -1.000360 0 CHG=1 VAL=4
M  V30 3 O 4.628256 -4.045817 -1.720767 0 CHG=-1 VAL=1
M  V30 4 C 5.705451 -2.233478 -0.547120 0
M  V30 5 C 6.779775 -1.745571 0.177715 0
M  V30 6 C 6.801021 -0.433511 0.632788 0
M  V30 7 C 5.703921 0.365232 0.331477 0
M  V30 8 C 4.609266 -0.108736 -0.399257 0
M  V30 9 C 3.470703 0.756904 -0.698073 0
M  V30 10 C 3.555245 2.124412 -0.898709 0
M  V30 11 C 2.426828 2.867011 -1.177937 0
M  V30 12 C 1.177691 2.288642 -1.269148 0
M  V30 13 C -0.097986 2.973958 -1.560206 0
M  V30 14 S -0.893841 3.527372 -0.007923 0
M  V30 15 C -1.379953 2.092848 0.961243 0
M  V30 16 N -0.439407 1.626696 1.833866 0
M  V30 17 N -1.012020 0.582205 2.428481 0
M  V30 18 C -2.242667 0.423155 1.938653 0
M  V30 19 C -3.140256 -0.636708 2.380901 0
M  V30 20 C -2.778153 -1.568360 3.358436 0
M  V30 21 C -3.640034 -2.571684 3.768888 0
M  V30 22 C -4.891387 -2.596884 3.148237 0
M  V30 23 C -5.276207 -1.683563 2.174722 0
M  V30 24 C -4.388050 -0.703222 1.797336 0
M  V30 25 O -6.557227 -1.952962 1.746129 0
M  V30 26 C -7.047833 -3.274081 1.583705 0
M  V30 27 C -6.844035 -4.057619 2.839053 0
M  V30 28 O -5.727165 -3.629285 3.596344 0
M  V30 29 O -2.459309 1.352798 1.040709 0
M  V30 30 C 1.144195 0.904974 -1.058784 0
M  V30 31 C 2.234113 0.107418 -0.776518 0
M  V30 32 C 4.628127 -1.420087 -0.833291 0
M  V30 33 H 7.639717 -2.356333 0.418589 0
M  V30 34 H 7.607341 0.018584 1.205439 0
M  V30 35 H 5.625296 1.394977 0.638432 0
M  V30 36 H 4.521609 2.568612 -0.827403 0
M  V30 37 H 2.467463 3.937621 -1.338910 0
M  V30 38 H 0.053771 3.886313 -2.178559 0
M  V30 39 H -0.786260 2.251389 -2.028524 0
M  V30 40 H -1.791404 -1.453566 3.767822 0
M  V30 41 H -3.348756 -3.285831 4.525257 0
M  V30 42 H -4.779751 -0.053044 1.044139 0
M  V30 43 H -8.149889 -3.194133 1.377897 0
M  V30 44 H -6.539598 -3.759255 0.733719 0
M  V30 45 H -6.685055 -5.130525 2.559587 0
M  V30 46 H -7.741830 -3.973093 3.477272 0
M  V30 47 H 0.185483 0.400855 -1.119351 0
M  V30 48 H 2.109055 -0.949015 -0.630602 0
M  V30 49 H 3.798856 -1.817408 -1.399800 0
M  V30 END ATOM
M  V30 BEGIN BOND
M  V30 1 2 1 2
M  V30 2 1 2 3
M  V30 3 1 2 4
M  V30 4 2 4 5
M  V30 5 1 5 6
M  V30 6 2 6 7
M  V30 7 1 7 8
M  V30 8 1 8 9
M  V30 9 2 9 10
M  V30 10 1 10 11
M  V30 11 2 11 12
M  V30 12 1 12 13
M  V30 13 1 13 14
M  V30 14 1 14 15
M  V30 15 2 15 16
M  V30 16 1 16 17
M  V30 17 2 17 18
M  V30 18 1 18 19
M  V30 19 2 19 20
M  V30 20 1 20 21
M  V30 21 2 21 22
M  V30 22 1 22 23
M  V30 23 2 23 24
M  V30 24 1 23 25
M  V30 25 1 25 26
M  V30 26 1 26 27
M  V30 27 1 27 28
M  V30 28 1 18 29
M  V30 29 1 12 30
M  V30 30 2 30 31
M  V30 31 2 8 32
M  V30 32 1 32 4
M  V30 33 1 31 9
M  V30 34 1 29 15
M  V30 35 1 24 19
M  V30 36 1 28 22
M  V30 37 1 5 33
M  V30 38 1 6 34
M  V30 39 1 7 35
M  V30 40 1 10 36
M  V30 41 1 11 37
M  V30 42 1 13 38
M  V30 43 1 13 39
M  V30 44 1 20 40
M  V30 45 1 21 41
M  V30 46 1 24 42
M  V30 47 1 26 43
M  V30 48 1 26 44
M  V30 49 1 27 45
M  V30 50 1 27 46
M  V30 51 1 30 47
M  V30 52 1 31 48
M  V30 53 1 32 49
M  V30 END BOND
M  V30 END CTAB
M  END
>  <Dataset>  (28) 
ChEMBL_Kinases

>  <Ligand_Instance>  (28) 
nan

>  <PDB_ID>  (28) 
nan

>  <Standardized_SMILES>  (28) 
O=[N+]([O-])c1cccc(-c2ccc(CSc3nnc(-c4ccc5c(c4)OCCO5)o3)cc2)c1

>  <Name>  (28) 
nan

>  <Pocket>  (28) 
nan

>  <ATP_Site>  (28) 
nan

>  <Peripheral>  (28) 
nan

>  <Num_H_Atoms_ProtBoundConf>  (28) 
nan

>  <Num_Resolved_Atoms>  (28) 
nan

>  <Num_Not_Resolved_Atoms>  (28) 
nan

$$$$
CHEMBL218657
     RDKit          3D

  0  0  0  0  0  0  0  0  0  0999 V3000
M  V30 BEGIN CTAB
M  V30 COUNTS 44 45 0 0 0
M  V30 BEGIN ATOM
M  V30 1 C 2.085560 -4.164866 0.416900 0
M  V30 2 C 1.289868 -5.369593 0.777857 0
M  V30 3 C -0.025393 -5.309754 0.665537 0
M  V30 4 C -0.774033 -4.157323 0.214419 0
M  V30 5 N -0.205289 -2.996629 -0.152933 0
M  V30 6 C -0.892263 -1.921725 -0.571758 0
M  V30 7 C -0.266069 -0.666693 -0.973539 0
M  V30 8 O -0.967356 0.312322 -1.347694 0
M  V30 9 N 1.132920 -0.402941 -0.994262 0
M  V30 10 C 1.755141 0.826336 -1.386124 0
M  V30 11 C 1.672473 1.847371 -0.333449 0
M  V30 12 C 2.748636 1.796347 0.557890 0
M  V30 13 C 2.828753 2.692156 1.608836 0
M  V30 14 C 1.896676 3.667404 1.856023 0
M  V30 15 S 2.012660 4.785013 3.174852 0
M  V30 16 C 1.246226 4.067492 4.593605 0
M  V30 17 O 3.418451 5.223794 3.464096 0
M  V30 18 O 1.228997 6.040252 2.812308 0
M  V30 19 C 0.851628 3.687724 0.958547 0
M  V30 20 C 0.727067 2.819768 -0.101533 0
M  V30 21 C -2.265171 -1.992144 -0.635686 0
M  V30 22 C -2.925303 -3.160746 -0.271434 0
M  V30 23 N -4.349425 -3.253733 -0.331575 0
M  V30 24 C -2.150323 -4.220228 0.147478 0
M  V30 25 C -2.854254 -5.422922 0.520105 0
M  V30 26 N -3.434642 -6.384162 0.810920 0
M  V30 27 H 3.155190 -4.376263 0.705874 0
M  V30 28 H 1.800609 -3.320507 1.109336 0
M  V30 29 H 2.043619 -3.895085 -0.643601 0
M  V30 30 H 1.785033 -6.288798 1.130211 0
M  V30 31 H -0.544247 -6.215934 0.942809 0
M  V30 32 H 1.745603 -1.217818 -0.684246 0
M  V30 33 H 1.263316 1.191662 -2.342132 0
M  V30 34 H 2.804435 0.609957 -1.681823 0
M  V30 35 H 3.564645 1.078853 0.489978 0
M  V30 36 H 3.679091 2.642004 2.301772 0
M  V30 37 H 0.672008 3.157169 4.321657 0
M  V30 38 H 2.040417 3.827837 5.334578 0
M  V30 39 H 0.486296 4.769537 5.033549 0
M  V30 40 H 0.060248 4.426664 1.072434 0
M  V30 41 H -0.077369 2.824753 -0.812213 0
M  V30 42 H -2.908576 -1.184772 -0.958460 0
M  V30 43 H -5.099943 -2.599889 -0.001664 0
M  V30 44 H -4.858022 -2.442708 0.080143 0
M  V30 END ATOM
M  V30 BEGIN BOND
M  V30 1 1 1 2
M  V30 2 2 2 3
M  V30 3 1 3 4
M  V30 4 2 4 5
M  V30 5 1 5 6
M  V30 6 1 6 7
M  V30 7 2 7 8
M  V30 8 1 7 9
M  V30 9 1 9 10
M  V30 10 1 10 11
M  V30 11 2 11 12
M  V30 12 1 12 13
M  V30 13 2 13 14
M  V30 14 1 14 15
M  V30 15 1 15 16
M  V30 16 2 15 17
M  V30 17 2 15 18
M  V30 18 1 14 19
M  V30 19 2 19 20
M  V30 20 2 6 21
M  V30 21 1 21 22
M  V30 22 1 22 23
M  V30 23 2 22 24
M  V30 24 1 24 25
M  V30 25 3 25 26
M  V30 26 1 24 4
M  V30 27 1 20 11
M  V30 28 1 1 27
M  V30 29 1 1 28
M  V30 30 1 1 29
M  V30 31 1 2 30
M  V30 32 1 3 31
M  V30 33 1 9 32
M  V30 34 1 10 33
M  V30 35 1 10 34
M  V30 36 1 12 35
M  V30 37 1 13 36
M  V30 38 1 16 37
M  V30 39 1 16 38
M  V30 40 1 16 39
M  V30 41 1 19 40
M  V30 42 1 20 41
M  V30 43 1 21 42
M  V30 44 1 23 43
M  V30 45 1 23 44
M  V30 END BOND
M  V30 END CTAB
M  END
>  <Dataset>  (29) 
ChEMBL_Kinases

>  <Ligand_Instance>  (29) 
nan

>  <PDB_ID>  (29) 
nan

>  <Standardized_SMILES>  (29) 
C/C=C\c1nc(C(=O)NCc2ccc(S(C)(=O)=O)cc2)cc(N)c1C#N

>  <Name>  (29) 
nan

>  <Pocket>  (29) 
nan

>  <ATP_Site>  (29) 
nan

>  <Peripheral>  (29) 
nan

>  <Num_H_Atoms_ProtBoundConf>  (29) 
nan

>  <Num_Resolved_Atoms>  (29) 
nan

>  <Num_Not_Resolved_Atoms>  (29) 
nan

$$$$
CHEMBL3692217
     RDKit          3D

  0  0  0  0  0  0  0  0  0  0999 V3000
M  V30 BEGIN CTAB
M  V30 COUNTS 61 65 0 0 0
M  V30 BEGIN ATOM
M  V30 1 C 0.695996 -0.001726 6.093535 0
M  V30 2 C 1.178788 -0.733561 4.896893 0
M  V30 3 N 2.231764 -1.592687 4.967174 0
M  V30 4 O 2.438311 -2.091445 3.770862 0
M  V30 5 C 1.576148 -1.607892 2.906333 0
M  V30 6 C 1.550755 -1.977941 1.475837 0
M  V30 7 C 2.362149 -1.004974 0.684787 0
M  V30 8 C 1.904771 0.387662 0.721287 0
M  V30 9 C 2.691603 1.245898 -0.053261 0
M  V30 10 C 2.325517 2.590292 -0.109809 0
M  V30 11 C 1.218389 3.013038 0.590302 0
M  V30 12 F 0.855341 4.306493 0.545670 0
M  V30 13 C 0.470061 2.138335 1.342108 0
M  V30 14 N -0.687938 2.636654 2.035945 0
M  V30 15 C -1.824079 2.237485 1.251216 0
M  V30 16 C -2.347515 1.052396 1.752372 0
M  V30 17 C -3.451061 0.653944 0.995728 0
M  V30 18 C -4.363279 -0.525436 1.110447 0
M  V30 19 N -3.548699 1.636063 0.051458 0
M  V30 20 N -2.605127 2.553688 0.199975 0
M  V30 21 N 0.819376 0.830640 1.402351 0
M  V30 22 C 0.077213 -1.939947 1.083969 0
M  V30 23 C -0.099410 -2.087636 -0.386862 0
M  V30 24 N 0.597609 -3.320311 -0.757701 0
M  V30 25 C 0.382600 -3.694681 -2.136053 0
M  V30 26 O 0.797780 -4.660239 -2.825079 0
M  V30 27 C -0.471565 -2.868592 -3.020360 0
M  V30 28 C 0.257206 -1.892551 -3.644029 0
M  V30 29 C -0.367751 -0.998861 -4.503852 0
M  V30 30 C -1.734427 -1.133671 -4.701203 0
M  V30 31 C -2.455514 -2.113657 -4.072978 0
M  V30 32 Cl -4.181076 -2.291609 -4.313925 0
M  V30 33 C -1.830550 -2.989935 -3.226736 0
M  V30 34 F -2.426183 -3.997107 -2.546729 0
M  V30 35 C 1.409680 -4.101409 0.113317 0
M  V30 36 C 2.066087 -3.356248 1.246797 0
M  V30 37 N 0.772004 -0.749472 3.594119 0
M  V30 38 H 0.170102 -0.661360 6.811362 0
M  V30 39 H 1.519311 0.550392 6.599801 0
M  V30 40 H -0.046665 0.799575 5.811778 0
M  V30 41 H 2.445696 -1.333293 -0.361096 0
M  V30 42 H 3.426131 -0.986955 1.062975 0
M  V30 43 H 3.568005 0.931476 -0.611867 0
M  V30 44 H 2.900919 3.303748 -0.696483 0
M  V30 45 H -0.830527 3.177618 2.912808 0
M  V30 46 H -2.129456 0.350327 2.576827 0
M  V30 47 H -4.274739 -0.911526 2.167885 0
M  V30 48 H -3.996870 -1.342851 0.479907 0
M  V30 49 H -5.413725 -0.292950 0.946588 0
M  V30 50 H -4.247226 1.739734 -0.734278 0
M  V30 51 H -0.469579 -1.129880 1.562604 0
M  V30 52 H -0.347514 -2.882741 1.540807 0
M  V30 53 H -1.181535 -2.164648 -0.606851 0
M  V30 54 H 0.295421 -1.234110 -0.975434 0
M  V30 55 H 1.336233 -1.715697 -3.544221 0
M  V30 56 H 0.192750 -0.203316 -5.018192 0
M  V30 57 H -2.269578 -0.449316 -5.371552 0
M  V30 58 H 2.127603 -4.727186 -0.453366 0
M  V30 59 H 0.708058 -4.829698 0.618240 0
M  V30 60 H 3.160735 -3.267932 0.977618 0
M  V30 61 H 2.043664 -3.931028 2.205666 0
M  V30 END ATOM
M  V30 BEGIN BOND
M  V30 1 1 1 2
M  V30 2 2 2 3
M  V30 3 1 3 4
M  V30 4 1 4 5
M  V30 5 1 5 6
M  V30 6 1 6 7
M  V30 7 1 7 8
M  V30 8 2 8 9
M  V30 9 1 9 10
M  V30 10 2 10 11
M  V30 11 1 11 12
M  V30 12 1 11 13
M  V30 13 1 13 14
M  V30 14 1 14 15
M  V30 15 1 15 16
M  V30 16 2 16 17
M  V30 17 1 17 18
M  V30 18 1 17 19
M  V30 19 1 19 20
M  V30 20 2 13 21
M  V30 21 1 6 22
M  V30 22 1 22 23
M  V30 23 1 23 24
M  V30 24 1 24 25
M  V30 25 2 25 26
M  V30 26 1 25 27
M  V30 27 2 27 28
M  V30 28 1 28 29
M  V30 29 2 29 30
M  V30 30 1 30 31
M  V30 31 1 31 32
M  V30 32 2 31 33
M  V30 33 1 33 34
M  V30 34 1 24 35
M  V30 35 1 35 36
M  V30 36 2 5 37
M  V30 37 1 37 2
M  V30 38 1 36 6
M  V30 39 1 21 8
M  V30 40 1 33 27
M  V30 41 2 20 15
M  V30 42 1 1 38
M  V30 43 1 1 39
M  V30 44 1 1 40
M  V30 45 1 7 41
M  V30 46 1 7 42
M  V30 47 1 9 43
M  V30 48 1 10 44
M  V30 49 1 14 45
M  V30 50 1 16 46
M  V30 51 1 18 47
M  V30 52 1 18 48
M  V30 53 1 18 49
M  V30 54 1 19 50
M  V30 55 1 22 51
M  V30 56 1 22 52
M  V30 57 1 23 53
M  V30 58 1 23 54
M  V30 59 1 28 55
M  V30 60 1 29 56
M  V30 61 1 30 57
M  V30 62 1 35 58
M  V30 63 1 35 59
M  V30 64 1 36 60
M  V30 65 1 36 61
M  V30 END BOND
M  V30 END CTAB
M  END
>  <Dataset>  (30) 
ChEMBL_Kinases

>  <Ligand_Instance>  (30) 
nan

>  <PDB_ID>  (30) 
nan

>  <Standardized_SMILES>  (30) 
Cc1noc(C2(Cc3ccc(F)c(Nc4cc(C)[nH]n4)n3)CCN(C(=O)c3cccc(Cl)c3F)CC2)n1

>  <Name>  (30) 
nan

>  <Pocket>  (30) 
nan

>  <ATP_Site>  (30) 
nan

>  <Peripheral>  (30) 
nan

>  <Num_H_Atoms_ProtBoundConf>  (30) 
nan

>  <Num_Resolved_Atoms>  (30) 
nan

>  <Num_Not_Resolved_Atoms>  (30) 
nan

$$$$
CHEMBL2401988
     RDKit          3D

  0  0  0  0  0  0  0  0  0  0999 V3000
M  V30 BEGIN CTAB
M  V30 COUNTS 49 52 0 0 0
M  V30 BEGIN ATOM
M  V30 1 C -1.290652 2.578494 2.359243 0
M  V30 2 C 0.186222 2.599221 2.074696 0
M  V30 3 C 0.870085 3.716512 2.448180 0
M  V30 4 C 2.227275 3.802223 2.217279 0
M  V30 5 C 2.846067 2.734733 1.607385 0
M  V30 6 C 4.280988 2.837763 1.369037 0
M  V30 7 O 4.871431 3.891379 1.731425 0
M  V30 8 N 5.101475 1.868109 0.764414 0
M  V30 9 C 6.521945 2.058686 0.568827 0
M  V30 10 C 7.428468 0.815862 0.811887 0
M  V30 11 C 7.255900 1.404350 -0.525051 0
M  V30 12 C 2.097845 1.636639 1.255448 0
M  V30 13 C 0.769278 1.510641 1.462274 0
M  V30 14 N -0.050617 0.405964 1.120971 0
M  V30 15 C 0.349401 -0.784564 0.496263 0
M  V30 16 O 1.514792 -0.989089 0.169383 0
M  V30 17 C -0.659841 -1.853593 0.209259 0
M  V30 18 C -0.456677 -3.039964 -0.374466 0
M  V30 19 C -1.518177 -3.856201 -0.535519 0
M  V30 20 C -2.770822 -3.410304 -0.080555 0
M  V30 21 C -4.109435 -4.022657 -0.092521 0
M  V30 22 C -5.120948 -3.273458 0.454061 0
M  V30 23 C -6.364874 -3.914087 0.410268 0
M  V30 24 C -6.509408 -5.178074 -0.140068 0
M  V30 25 N -7.797968 -5.812680 -0.172252 0
M  V30 26 C -5.417173 -5.857123 -0.670703 0
M  V30 27 C -4.165943 -5.255728 -0.646376 0
M  V30 28 S -2.355704 -1.770682 0.586809 0
M  V30 29 H -1.897606 2.480012 1.452682 0
M  V30 30 H -1.457504 1.640221 2.949769 0
M  V30 31 H -1.582910 3.395366 3.042010 0
M  V30 32 H 0.369782 4.528153 2.917926 0
M  V30 33 H 2.739652 4.698611 2.524139 0
M  V30 34 H 4.648822 0.981195 0.450539 0
M  V30 35 H 6.919149 3.038605 0.935819 0
M  V30 36 H 8.277146 1.013079 1.468817 0
M  V30 37 H 6.853434 -0.096986 1.118254 0
M  V30 38 H 6.736700 0.815250 -1.312389 0
M  V30 39 H 8.154385 1.924621 -0.928094 0
M  V30 40 H 2.649753 0.862882 0.792844 0
M  V30 41 H -1.070318 0.446100 1.343264 0
M  V30 42 H 0.530727 -3.332624 -0.706190 0
M  V30 43 H -1.521101 -4.854559 -0.991870 0
M  V30 44 H -4.964338 -2.289799 0.873523 0
M  V30 45 H -7.228936 -3.396536 0.821006 0
M  V30 46 H -7.726831 -6.622420 0.453137 0
M  V30 47 H -8.669207 -5.563039 -0.695072 0
M  V30 48 H -5.562445 -6.837831 -1.090958 0
M  V30 49 H -3.338388 -5.780125 -1.053156 0
M  V30 END ATOM
M  V30 BEGIN BOND
M  V30 1 1 1 2
M  V30 2 2 2 3
M  V30 3 1 3 4
M  V30 4 2 4 5
M  V30 5 1 5 6
M  V30 6 2 6 7
M  V30 7 1 6 8
M  V30 8 1 8 9
M  V30 9 1 9 10
M  V30 10 1 10 11
M  V30 11 1 5 12
M  V30 12 2 12 13
M  V30 13 1 13 14
M  V30 14 1 14 15
M  V30 15 2 15 16
M  V30 16 1 15 17
M  V30 17 2 17 18
M  V30 18 1 18 19
M  V30 19 2 19 20
M  V30 20 1 20 21
M  V30 21 2 21 22
M  V30 22 1 22 23
M  V30 23 2 23 24
M  V30 24 1 24 25
M  V30 25 1 24 26
M  V30 26 2 26 27
M  V30 27 1 20 28
M  V30 28 1 13 2
M  V30 29 1 28 17
M  V30 30 1 11 9
M  V30 31 1 27 21
M  V30 32 1 1 29
M  V30 33 1 1 30
M  V30 34 1 1 31
M  V30 35 1 3 32
M  V30 36 1 4 33
M  V30 37 1 8 34
M  V30 38 1 9 35
M  V30 39 1 10 36
M  V30 40 1 10 37
M  V30 41 1 11 38
M  V30 42 1 11 39
M  V30 43 1 12 40
M  V30 44 1 14 41
M  V30 45 1 18 42
M  V30 46 1 19 43
M  V30 47 1 22 44
M  V30 48 1 23 45
M  V30 49 1 25 46
M  V30 50 1 25 47
M  V30 51 1 26 48
M  V30 52 1 27 49
M  V30 END BOND
M  V30 END CTAB
M  END
>  <Dataset>  (31) 
ChEMBL_Kinases

>  <Ligand_Instance>  (31) 
nan

>  <PDB_ID>  (31) 
nan

>  <Standardized_SMILES>  (31) 
Cc1ccc(C(=O)NC2CC2)cc1NC(=O)c1ccc(-c2ccc(N)cc2)s1

>  <Name>  (31) 
nan

>  <Pocket>  (31) 
nan

>  <ATP_Site>  (31) 
nan

>  <Peripheral>  (31) 
nan

>  <Num_H_Atoms_ProtBoundConf>  (31) 
nan

>  <Num_Resolved_Atoms>  (31) 
nan

>  <Num_Not_Resolved_Atoms>  (31) 
nan

$$$$
CHEMBL2401989
     RDKit          3D

  0  0  0  0  0  0  0  0  0  0999 V3000
M  V30 BEGIN CTAB
M  V30 COUNTS 51 54 0 0 0
M  V30 BEGIN ATOM
M  V30 1 C 5.364708 -8.150060 2.243903 0
M  V30 2 O 5.798508 -7.425847 1.128589 0
M  V30 3 C 5.100894 -6.311353 0.637961 0
M  V30 4 C 3.939969 -5.890172 1.258194 0
M  V30 5 C 3.257819 -4.791492 0.769505 0
M  V30 6 C 3.816828 -4.191141 -0.334161 0
M  V30 7 C 3.102851 -2.982357 -0.904858 0
M  V30 8 C 3.325357 -2.141201 -1.948095 0
M  V30 9 C 2.430019 -1.157051 -2.130570 0
M  V30 10 C 1.381087 -1.039410 -1.306268 0
M  V30 11 C 0.316094 0.045040 -1.436735 0
M  V30 12 O 0.170436 0.972916 -2.236318 0
M  V30 13 N -0.648904 -0.100278 -0.423819 0
M  V30 14 C -1.825652 0.633691 -0.102573 0
M  V30 15 C -1.720465 1.711063 0.779533 0
M  V30 16 C -2.837370 2.446933 1.115976 0
M  V30 17 C -2.669848 3.563076 2.043210 0
M  V30 18 O -1.508269 3.775676 2.472860 0
M  V30 19 N -3.747179 4.388707 2.460036 0
M  V30 20 C -3.515144 5.484277 3.385421 0
M  V30 21 C -4.462063 5.739267 4.495085 0
M  V30 22 C -4.280098 6.731481 3.355023 0
M  V30 23 C -4.047006 2.087025 0.558416 0
M  V30 24 C -4.145860 1.006703 -0.324632 0
M  V30 25 C -3.031795 0.262418 -0.668405 0
M  V30 26 C -3.145157 -0.877912 -1.602465 0
M  V30 27 S 1.583631 -2.335520 -0.188676 0
M  V30 28 C 4.960001 -4.539874 -1.011054 0
M  V30 29 C 5.604569 -5.658441 -0.468675 0
M  V30 30 H 6.243960 -8.679544 2.711211 0
M  V30 31 H 4.951913 -7.512656 3.056691 0
M  V30 32 H 4.641237 -8.957639 2.013096 0
M  V30 33 H 3.528766 -6.386501 2.124850 0
M  V30 34 H 2.355822 -4.428792 1.215851 0
M  V30 35 H 4.222822 -2.400876 -2.493922 0
M  V30 36 H 2.604169 -0.467496 -2.978431 0
M  V30 37 H -0.707922 -0.816881 0.347918 0
M  V30 38 H -0.725964 1.930775 1.177187 0
M  V30 39 H -4.711930 4.213743 2.104405 0
M  V30 40 H -2.440691 5.545443 3.675063 0
M  V30 41 H -5.404030 5.158370 4.561101 0
M  V30 42 H -4.070947 6.001167 5.496636 0
M  V30 43 H -5.192998 6.862983 2.759583 0
M  V30 44 H -3.758079 7.688179 3.625367 0
M  V30 45 H -4.931668 2.653644 0.811982 0
M  V30 46 H -5.117917 0.788923 -0.715747 0
M  V30 47 H -2.408967 -1.679722 -1.408788 0
M  V30 48 H -3.086628 -0.574153 -2.669377 0
M  V30 49 H -4.152635 -1.325654 -1.477655 0
M  V30 50 H 5.317192 -3.998941 -1.873892 0
M  V30 51 H 6.524239 -5.997241 -0.954874 0
M  V30 END ATOM
M  V30 BEGIN BOND
M  V30 1 1 1 2
M  V30 2 1 2 3
M  V30 3 2 3 4
M  V30 4 1 4 5
M  V30 5 2 5 6
M  V30 6 1 6 7
M  V30 7 2 7 8
M  V30 8 1 8 9
M  V30 9 2 9 10
M  V30 10 1 10 11
M  V30 11 2 11 12
M  V30 12 1 11 13
M  V30 13 1 13 14
M  V30 14 2 14 15
M  V30 15 1 15 16
M  V30 16 1 16 17
M  V30 17 2 17 18
M  V30 18 1 17 19
M  V30 19 1 19 20
M  V30 20 1 20 21
M  V30 21 1 21 22
M  V30 22 2 16 23
M  V30 23 1 23 24
M  V30 24 2 24 25
M  V30 25 1 25 26
M  V30 26 1 10 27
M  V30 27 1 6 28
M  V30 28 2 28 29
M  V30 29 1 29 3
M  V30 30 1 27 7
M  V30 31 1 25 14
M  V30 32 1 22 20
M  V30 33 1 1 30
M  V30 34 1 1 31
M  V30 35 1 1 32
M  V30 36 1 4 33
M  V30 37 1 5 34
M  V30 38 1 8 35
M  V30 39 1 9 36
M  V30 40 1 13 37
M  V30 41 1 15 38
M  V30 42 1 19 39
M  V30 43 1 20 40
M  V30 44 1 21 41
M  V30 45 1 21 42
M  V30 46 1 22 43
M  V30 47 1 22 44
M  V30 48 1 23 45
M  V30 49 1 24 46
M  V30 50 1 26 47
M  V30 51 1 26 48
M  V30 52 1 26 49
M  V30 53 1 28 50
M  V30 54 1 29 51
M  V30 END BOND
M  V30 END CTAB
M  END
>  <Dataset>  (32) 
ChEMBL_Kinases

>  <Ligand_Instance>  (32) 
nan

>  <PDB_ID>  (32) 
nan

>  <Standardized_SMILES>  (32) 
COc1ccc(-c2ccc(C(=O)Nc3cc(C(=O)NC4CC4)ccc3C)s2)cc1

>  <Name>  (32) 
nan

>  <Pocket>  (32) 
nan

>  <ATP_Site>  (32) 
nan

>  <Peripheral>  (32) 
nan

>  <Num_H_Atoms_ProtBoundConf>  (32) 
nan

>  <Num_Resolved_Atoms>  (32) 
nan

>  <Num_Not_Resolved_Atoms>  (32) 
nan

$$$$
CHEMBL3702119
     RDKit          3D

  0  0  0  0  0  0  0  0  0  0999 V3000
M  V30 BEGIN CTAB
M  V30 COUNTS 68 73 0 0 0
M  V30 BEGIN ATOM
M  V30 1 C 4.576872 -0.431329 7.002352 0
M  V30 2 C 5.763682 -1.070884 6.349799 0
M  V30 3 O 5.378389 -1.604331 5.096491 0
M  V30 4 C 4.860885 -0.762791 4.119098 0
M  V30 5 O 4.751750 0.472829 4.396344 0
M  V30 6 C 4.508491 -1.465646 2.871377 0
M  V30 7 N 3.939851 -0.610589 1.851629 0
M  V30 8 C 2.659622 -0.189135 2.322290 0
M  V30 9 C 2.370130 1.253628 2.111769 0
M  V30 10 N 2.754103 1.567755 0.750378 0
M  V30 11 C 1.854860 1.843493 -0.314173 0
M  V30 12 C 2.067418 2.389634 -1.555399 0
M  V30 13 C 1.074323 2.550401 -2.490643 0
M  V30 14 C -0.199212 2.122637 -2.118600 0
M  V30 15 N -1.311243 2.219503 -3.033765 0
M  V30 16 C -2.588320 1.755340 -2.590514 0
M  V30 17 N -3.738323 2.394988 -2.311853 0
M  V30 18 C -4.825534 1.697068 -1.877433 0
M  V30 19 C -4.790720 0.337639 -1.709108 0
M  V30 20 C -5.698883 -0.608715 -1.292175 0
M  V30 21 C -7.032212 -0.489635 -0.885709 0
M  V30 22 C -7.633030 -1.674478 -0.532449 0
M  V30 23 N -7.044871 -2.880363 -0.553989 0
M  V30 24 C -5.759827 -2.970671 -0.949106 0
M  V30 25 C -5.041023 -1.841798 -1.331884 0
M  V30 26 N -3.788407 -1.618044 -1.759712 0
M  V30 27 C -2.784307 -2.648346 -1.933301 0
M  V30 28 C -3.230149 -3.786717 -2.803583 0
M  V30 29 C -2.876297 -5.076138 -2.106667 0
M  V30 30 C -2.044786 -4.702356 -0.897178 0
M  V30 31 C -2.376648 -3.253138 -0.604987 0
M  V30 32 C -3.591374 -0.291739 -2.003701 0
M  V30 33 N -2.499059 0.400308 -2.439834 0
M  V30 34 N -0.408376 1.581929 -0.886387 0
M  V30 35 N 0.588593 1.451327 -0.020426 0
M  V30 36 C 4.197402 1.524212 0.636358 0
M  V30 37 C 4.812570 0.347893 1.314812 0
M  V30 38 H 4.425554 -0.729566 8.063567 0
M  V30 39 H 3.639755 -0.691884 6.454745 0
M  V30 40 H 4.655897 0.677245 7.005323 0
M  V30 41 H 6.257452 -1.845089 6.971941 0
M  V30 42 H 6.488696 -0.240066 6.091467 0
M  V30 43 H 3.742298 -2.264162 3.099625 0
M  V30 44 H 5.370026 -2.013363 2.415150 0
M  V30 45 H 2.429940 -0.452988 3.368591 0
M  V30 46 H 1.882473 -0.753323 1.724886 0
M  V30 47 H 2.989826 1.866960 2.791403 0
M  V30 48 H 1.306580 1.522571 2.266651 0
M  V30 49 H 3.097458 2.680072 -1.718500 0
M  V30 50 H 1.257990 2.974874 -3.441303 0
M  V30 51 H -1.113730 2.633207 -3.986028 0
M  V30 52 H -5.714194 2.273507 -1.673481 0
M  V30 53 H -7.512586 0.459897 -0.863719 0
M  V30 54 H -8.668613 -1.541406 -0.222072 0
M  V30 55 H -5.318720 -3.933272 -0.952596 0
M  V30 56 H -1.854795 -2.234356 -2.372046 0
M  V30 57 H -2.689959 -3.803946 -3.797190 0
M  V30 58 H -4.303282 -3.718840 -3.093128 0
M  V30 59 H -2.320466 -5.784205 -2.761985 0
M  V30 60 H -3.814221 -5.634430 -1.810970 0
M  V30 61 H -0.945273 -4.856162 -1.076422 0
M  V30 62 H -2.375854 -5.324522 -0.046447 0
M  V30 63 H -1.465041 -2.787558 -0.177487 0
M  V30 64 H -3.176702 -3.141452 0.160342 0
M  V30 65 H 4.586151 2.485809 1.028636 0
M  V30 66 H 4.433298 1.504906 -0.448668 0
M  V30 67 H 5.501721 0.731684 2.104866 0
M  V30 68 H 5.494755 -0.174746 0.609496 0
M  V30 END ATOM
M  V30 BEGIN BOND
M  V30 1 1 1 2
M  V30 2 1 2 3
M  V30 3 1 3 4
M  V30 4 2 4 5
M  V30 5 1 4 6
M  V30 6 1 6 7
M  V30 7 1 7 8
M  V30 8 1 8 9
M  V30 9 1 9 10
M  V30 10 1 10 11
M  V30 11 2 11 12
M  V30 12 1 12 13
M  V30 13 2 13 14
M  V30 14 1 14 15
M  V30 15 1 15 16
M  V30 16 2 16 17
M  V30 17 1 17 18
M  V30 18 2 18 19
M  V30 19 1 19 20
M  V30 20 2 20 21
M  V30 21 1 21 22
M  V30 22 2 22 23
M  V30 23 1 23 24
M  V30 24 2 24 25
M  V30 25 1 25 26
M  V30 26 1 26 27
M  V30 27 1 27 28
M  V30 28 1 28 29
M  V30 29 1 29 30
M  V30 30 1 30 31
M  V30 31 1 26 32
M  V30 32 2 32 33
M  V30 33 1 14 34
M  V30 34 2 34 35
M  V30 35 1 10 36
M  V30 36 1 36 37
M  V30 37 1 37 7
M  V30 38 1 35 11
M  V30 39 1 33 16
M  V30 40 1 32 19
M  V30 41 1 25 20
M  V30 42 1 31 27
M  V30 43 1 1 38
M  V30 44 1 1 39
M  V30 45 1 1 40
M  V30 46 1 2 41
M  V30 47 1 2 42
M  V30 48 1 6 43
M  V30 49 1 6 44
M  V30 50 1 8 45
M  V30 51 1 8 46
M  V30 52 1 9 47
M  V30 53 1 9 48
M  V30 54 1 12 49
M  V30 55 1 13 50
M  V30 56 1 15 51
M  V30 57 1 18 52
M  V30 58 1 21 53
M  V30 59 1 22 54
M  V30 60 1 24 55
M  V30 61 1 27 56
M  V30 62 1 28 57
M  V30 63 1 28 58
M  V30 64 1 29 59
M  V30 65 1 29 60
M  V30 66 1 30 61
M  V30 67 1 30 62
M  V30 68 1 31 63
M  V30 69 1 31 64
M  V30 70 1 36 65
M  V30 71 1 36 66
M  V30 72 1 37 67
M  V30 73 1 37 68
M  V30 END BOND
M  V30 END CTAB
M  END
>  <Dataset>  (33) 
ChEMBL_Kinases

>  <Ligand_Instance>  (33) 
nan

>  <PDB_ID>  (33) 
nan

>  <Standardized_SMILES>  (33) 
CCOC(=O)CN1CCN(c2ccc(Nc3ncc4c5ccncc5n(C5CCCC5)c4n3)nn2)CC1

>  <Name>  (33) 
nan

>  <Pocket>  (33) 
nan

>  <ATP_Site>  (33) 
nan

>  <Peripheral>  (33) 
nan

>  <Num_H_Atoms_ProtBoundConf>  (33) 
nan

>  <Num_Resolved_Atoms>  (33) 
nan

>  <Num_Not_Resolved_Atoms>  (33) 
nan

$$$$
CHEMBL2401990
     RDKit          3D

  0  0  0  0  0  0  0  0  0  0999 V3000
M  V30 BEGIN CTAB
M  V30 COUNTS 48 51 0 0 0
M  V30 BEGIN ATOM
M  V30 1 C 1.428448 -2.966574 3.272000 0
M  V30 2 C 2.408196 -2.012069 2.643277 0
M  V30 3 C 3.726381 -2.101133 3.028253 0
M  V30 4 C 4.673254 -1.266597 2.499397 0
M  V30 5 C 4.259471 -0.336469 1.569887 0
M  V30 6 C 5.279526 0.543460 1.017266 0
M  V30 7 O 6.469701 0.422687 1.401149 0
M  V30 8 N 5.059131 1.562328 0.052831 0
M  V30 9 C 6.134095 2.399392 -0.448647 0
M  V30 10 C 6.111610 2.551641 -1.971452 0
M  V30 11 C 5.830535 3.695335 -1.068595 0
M  V30 12 C 2.946731 -0.283150 1.218211 0
M  V30 13 C 1.960015 -1.095918 1.718330 0
M  V30 14 N 0.585390 -1.077837 1.383937 0
M  V30 15 C -0.076430 -0.238463 0.478247 0
M  V30 16 O 0.553110 0.635265 -0.159304 0
M  V30 17 C -1.545710 -0.369921 0.255967 0
M  V30 18 C -2.335584 0.363187 -0.584124 0
M  V30 19 C -3.639881 0.025884 -0.583699 0
M  V30 20 C -4.101515 -0.953295 0.187251 0
M  V30 21 C -5.480527 -1.486922 0.346379 0
M  V30 22 C -6.543785 -0.978614 -0.355579 0
M  V30 23 C -7.810431 -1.501033 -0.180450 0
M  V30 24 C -8.011727 -2.540538 0.704991 0
M  V30 25 C -9.335673 -3.076035 0.878561 0
M  V30 26 N -10.402618 -3.490029 1.012210 0
M  V30 27 C -6.917554 -3.024168 1.391980 0
M  V30 28 C -5.636623 -2.526306 1.242177 0
M  V30 29 S -2.662912 -1.511983 1.021173 0
M  V30 30 H 0.781738 -2.464462 4.023954 0
M  V30 31 H 0.826267 -3.496578 2.476944 0
M  V30 32 H 1.969332 -3.779776 3.796087 0
M  V30 33 H 3.999236 -2.846946 3.759928 0
M  V30 34 H 5.702037 -1.357948 2.819417 0
M  V30 35 H 4.094459 1.702943 -0.296626 0
M  V30 36 H 7.148246 2.175673 -0.013265 0
M  V30 37 H 5.298102 2.048307 -2.545302 0
M  V30 38 H 7.079655 2.509928 -2.497741 0
M  V30 39 H 4.785403 4.083086 -0.952574 0
M  V30 40 H 6.581552 4.503172 -1.076049 0
M  V30 41 H 2.701036 0.458309 0.496735 0
M  V30 42 H -0.046536 -1.762613 1.851644 0
M  V30 43 H -1.876125 1.151871 -1.184793 0
M  V30 44 H -4.370822 0.553974 -1.226349 0
M  V30 45 H -6.341318 -0.156992 -1.045399 0
M  V30 46 H -8.595425 -1.050164 -0.766480 0
M  V30 47 H -7.107277 -3.848855 2.087494 0
M  V30 48 H -4.810159 -2.952267 1.815474 0
M  V30 END ATOM
M  V30 BEGIN BOND
M  V30 1 1 1 2
M  V30 2 2 2 3
M  V30 3 1 3 4
M  V30 4 2 4 5
M  V30 5 1 5 6
M  V30 6 2 6 7
M  V30 7 1 6 8
M  V30 8 1 8 9
M  V30 9 1 9 10
M  V30 10 1 10 11
M  V30 11 1 5 12
M  V30 12 2 12 13
M  V30 13 1 13 14
M  V30 14 1 14 15
M  V30 15 2 15 16
M  V30 16 1 15 17
M  V30 17 2 17 18
M  V30 18 1 18 19
M  V30 19 2 19 20
M  V30 20 1 20 21
M  V30 21 2 21 22
M  V30 22 1 22 23
M  V30 23 2 23 24
M  V30 24 1 24 25
M  V30 25 3 25 26
M  V30 26 1 24 27
M  V30 27 2 27 28
M  V30 28 1 20 29
M  V30 29 1 13 2
M  V30 30 1 29 17
M  V30 31 1 11 9
M  V30 32 1 28 21
M  V30 33 1 1 30
M  V30 34 1 1 31
M  V30 35 1 1 32
M  V30 36 1 3 33
M  V30 37 1 4 34
M  V30 38 1 8 35
M  V30 39 1 9 36
M  V30 40 1 10 37
M  V30 41 1 10 38
M  V30 42 1 11 39
M  V30 43 1 11 40
M  V30 44 1 12 41
M  V30 45 1 14 42
M  V30 46 1 18 43
M  V30 47 1 19 44
M  V30 48 1 22 45
M  V30 49 1 23 46
M  V30 50 1 27 47
M  V30 51 1 28 48
M  V30 END BOND
M  V30 END CTAB
M  END
>  <Dataset>  (34) 
ChEMBL_Kinases

>  <Ligand_Instance>  (34) 
nan

>  <PDB_ID>  (34) 
nan

>  <Standardized_SMILES>  (34) 
Cc1ccc(C(=O)NC2CC2)cc1NC(=O)c1ccc(-c2ccc(C#N)cc2)s1

>  <Name>  (34) 
nan

>  <Pocket>  (34) 
nan

>  <ATP_Site>  (34) 
nan

>  <Peripheral>  (34) 
nan

>  <Num_H_Atoms_ProtBoundConf>  (34) 
nan

>  <Num_Resolved_Atoms>  (34) 
nan

>  <Num_Not_Resolved_Atoms>  (34) 
nan

$$$$
CHEMBL3692216
     RDKit          3D

  0  0  0  0  0  0  0  0  0  0999 V3000
M  V30 BEGIN CTAB
M  V30 COUNTS 61 65 0 0 0
M  V30 BEGIN ATOM
M  V30 1 C 1.079913 -2.499688 4.547232 0
M  V30 2 C 2.049728 -2.618442 3.429641 0
M  V30 3 C 2.844335 -1.510415 3.091952 0
M  V30 4 C 3.695590 -1.787745 2.011071 0
M  V30 5 N 4.646042 -0.992172 1.287125 0
M  V30 6 C 3.914167 0.244648 1.102395 0
M  V30 7 N 3.139231 0.176863 -0.003759 0
M  V30 8 C 2.335318 1.182248 -0.420402 0
M  V30 9 C 1.490070 1.181694 -1.630632 0
M  V30 10 C 0.107194 0.645292 -1.420731 0
M  V30 11 C -0.672007 1.409316 -0.405544 0
M  V30 12 N -1.082799 2.638160 -0.841359 0
M  V30 13 N -1.760266 3.207855 0.127819 0
M  V30 14 C -1.773607 2.334936 1.172315 0
M  V30 15 C -2.484507 2.732334 2.412835 0
M  V30 16 O -1.100452 1.245880 0.819675 0
M  V30 17 C 0.241008 -0.824844 -1.098733 0
M  V30 18 C -0.768463 -1.689952 -1.802249 0
M  V30 19 N -2.054641 -1.079086 -1.776531 0
M  V30 20 C -3.153826 -1.771283 -1.244032 0
M  V30 21 O -4.278799 -1.200982 -1.214747 0
M  V30 22 C -3.211240 -3.113188 -0.692821 0
M  V30 23 C -3.525031 -4.154099 -1.558766 0
M  V30 24 C -3.599331 -5.440848 -1.073434 0
M  V30 25 C -3.354094 -5.626722 0.269998 0
M  V30 26 C -3.035829 -4.626106 1.187478 0
M  V30 27 Cl -2.743760 -4.959389 2.878710 0
M  V30 28 C -2.966165 -3.323113 0.663043 0
M  V30 29 F -2.651986 -2.338069 1.514170 0
M  V30 30 C -2.112929 0.248691 -2.321665 0
M  V30 31 C -0.710488 0.689789 -2.718812 0
M  V30 32 C 2.384626 2.286370 0.399742 0
M  V30 33 C 3.146720 2.425773 1.535401 0
M  V30 34 C 3.950613 1.379042 1.921342 0
M  V30 35 F 4.777901 1.305807 2.983857 0
M  V30 36 N 3.394483 -3.078936 1.714193 0
M  V30 37 N 2.459594 -3.515552 2.534581 0
M  V30 38 H 0.255794 -3.222508 4.344990 0
M  V30 39 H 1.562135 -2.645019 5.510322 0
M  V30 40 H 0.646249 -1.455475 4.551723 0
M  V30 41 H 2.873867 -0.523994 3.553401 0
M  V30 42 H 5.560223 -1.466372 1.099447 0
M  V30 43 H 1.476970 2.183284 -2.124869 0
M  V30 44 H 1.971882 0.478661 -2.377627 0
M  V30 45 H -2.025202 2.258534 3.299410 0
M  V30 46 H -3.548815 2.408379 2.397385 0
M  V30 47 H -2.456632 3.829518 2.564155 0
M  V30 48 H 0.319220 -1.040243 -0.017264 0
M  V30 49 H 1.241715 -1.165587 -1.512122 0
M  V30 50 H -0.487098 -1.858709 -2.881843 0
M  V30 51 H -0.762847 -2.714448 -1.371722 0
M  V30 52 H -3.723549 -4.029744 -2.613794 0
M  V30 53 H -3.834457 -6.308051 -1.687843 0
M  V30 54 H -3.412930 -6.649564 0.680718 0
M  V30 55 H -2.501021 0.973472 -1.587583 0
M  V30 56 H -2.789386 0.331243 -3.213785 0
M  V30 57 H -0.214453 0.040420 -3.433034 0
M  V30 58 H -0.772336 1.729738 -3.100993 0
M  V30 59 H 1.795561 3.184433 0.203670 0
M  V30 60 H 3.190005 3.288885 2.186108 0
M  V30 61 H 1.990976 -4.471536 2.586221 0
M  V30 END ATOM
M  V30 BEGIN BOND
M  V30 1 1 1 2
M  V30 2 2 2 3
M  V30 3 1 3 4
M  V30 4 1 4 5
M  V30 5 1 5 6
M  V30 6 2 6 7
M  V30 7 1 7 8
M  V30 8 1 8 9
M  V30 9 1 9 10
M  V30 10 1 10 11
M  V30 11 2 11 12
M  V30 12 1 12 13
M  V30 13 2 13 14
M  V30 14 1 14 15
M  V30 15 1 14 16
M  V30 16 1 10 17
M  V30 17 1 17 18
M  V30 18 1 18 19
M  V30 19 1 19 20
M  V30 20 2 20 21
M  V30 21 1 20 22
M  V30 22 2 22 23
M  V30 23 1 23 24
M  V30 24 2 24 25
M  V30 25 1 25 26
M  V30 26 1 26 27
M  V30 27 2 26 28
M  V30 28 1 28 29
M  V30 29 1 19 30
M  V30 30 1 30 31
M  V30 31 2 8 32
M  V30 32 1 32 33
M  V30 33 2 33 34
M  V30 34 1 34 35
M  V30 35 2 4 36
M  V30 36 1 36 37
M  V30 37 1 37 2
M  V30 38 1 34 6
M  V30 39 1 31 10
M  V30 40 1 16 11
M  V30 41 1 28 22
M  V30 42 1 1 38
M  V30 43 1 1 39
M  V30 44 1 1 40
M  V30 45 1 3 41
M  V30 46 1 5 42
M  V30 47 1 9 43
M  V30 48 1 9 44
M  V30 49 1 15 45
M  V30 50 1 15 46
M  V30 51 1 15 47
M  V30 52 1 17 48
M  V30 53 1 17 49
M  V30 54 1 18 50
M  V30 55 1 18 51
M  V30 56 1 23 52
M  V30 57 1 24 53
M  V30 58 1 25 54
M  V30 59 1 30 55
M  V30 60 1 30 56
M  V30 61 1 31 57
M  V30 62 1 31 58
M  V30 63 1 32 59
M  V30 64 1 33 60
M  V30 65 1 37 61
M  V30 END BOND
M  V30 END CTAB
M  END
>  <Dataset>  (35) 
ChEMBL_Kinases

>  <Ligand_Instance>  (35) 
nan

>  <PDB_ID>  (35) 
nan

>  <Standardized_SMILES>  (35) 
Cc1cc(Nc2nc(CC3(c4nnc(C)o4)CCN(C(=O)c4cccc(Cl)c4F)CC3)ccc2F)n[nH]1

>  <Name>  (35) 
nan

>  <Pocket>  (35) 
nan

>  <ATP_Site>  (35) 
nan

>  <Peripheral>  (35) 
nan

>  <Num_H_Atoms_ProtBoundConf>  (35) 
nan

>  <Num_Resolved_Atoms>  (35) 
nan

>  <Num_Not_Resolved_Atoms>  (35) 
nan

$$$$
CHEMBL2401991
     RDKit          3D

  0  0  0  0  0  0  0  0  0  0999 V3000
M  V30 BEGIN CTAB
M  V30 COUNTS 51 54 0 0 0
M  V30 BEGIN ATOM
M  V30 1 C -0.236423 2.230293 -1.871551 0
M  V30 2 C 1.110376 1.991831 -1.264503 0
M  V30 3 C 2.110151 2.814983 -1.735266 0
M  V30 4 C 3.373959 2.658626 -1.227712 0
M  V30 5 C 3.637779 1.693732 -0.262916 0
M  V30 6 C 4.949493 1.451202 0.337795 0
M  V30 7 O 5.166122 0.559853 1.221806 0
M  V30 8 N 6.105826 2.198180 -0.018404 0
M  V30 9 C 7.379978 1.915225 0.608773 0
M  V30 10 C 8.257436 3.144012 0.823165 0
M  V30 11 C 8.639931 2.103771 -0.169899 0
M  V30 12 C 2.604244 0.877985 0.191312 0
M  V30 13 C 1.313709 1.017538 -0.308448 0
M  V30 14 N 0.219732 0.213256 0.117727 0
M  V30 15 C -0.592568 0.597235 1.203623 0
M  V30 16 O -0.408484 1.644650 1.847129 0
M  V30 17 C -1.703807 -0.304282 1.570320 0
M  V30 18 C -2.596512 -0.142420 2.560021 0
M  V30 19 C -3.559327 -1.068767 2.764019 0
M  V30 20 C -3.549856 -2.162604 1.896994 0
M  V30 21 C -4.445403 -3.343249 1.836523 0
M  V30 22 C -5.480343 -3.471829 2.736591 0
M  V30 23 C -6.246512 -4.608870 2.585329 0
M  V30 24 C -5.983590 -5.539420 1.600787 0
M  V30 25 C -6.834355 -6.752463 1.471791 0
M  V30 26 O -6.337712 -7.800688 2.239496 0
M  V30 27 C -4.929447 -5.377579 0.708219 0
M  V30 28 C -4.146077 -4.245994 0.838579 0
M  V30 29 S -2.128246 -1.799167 0.808107 0
M  V30 30 H -0.445716 3.318433 -1.723518 0
M  V30 31 H -0.246116 2.023755 -2.949276 0
M  V30 32 H -1.005149 1.593095 -1.398403 0
M  V30 33 H 1.941195 3.581558 -2.490089 0
M  V30 34 H 4.211121 3.271485 -1.551539 0
M  V30 35 H 6.048987 2.947344 -0.725398 0
M  V30 36 H 7.431868 1.111234 1.365226 0
M  V30 37 H 8.794448 3.186854 1.789374 0
M  V30 38 H 7.918250 4.123375 0.452037 0
M  V30 39 H 9.531363 1.505885 0.088147 0
M  V30 40 H 8.531789 2.334244 -1.248548 0
M  V30 41 H 2.730537 0.092758 0.951042 0
M  V30 42 H 0.101295 -0.661154 -0.453554 0
M  V30 43 H -2.552795 0.745890 3.214479 0
M  V30 44 H -4.340605 -1.077014 3.512629 0
M  V30 45 H -5.592284 -2.683916 3.463151 0
M  V30 46 H -7.065858 -4.713604 3.295597 0
M  V30 47 H -6.922810 -7.049942 0.385515 0
M  V30 48 H -7.866487 -6.449311 1.763672 0
M  V30 49 H -6.617249 -8.636587 1.782427 0
M  V30 50 H -4.716706 -6.096410 -0.061680 0
M  V30 51 H -3.311452 -4.089718 0.153965 0
M  V30 END ATOM
M  V30 BEGIN BOND
M  V30 1 1 1 2
M  V30 2 2 2 3
M  V30 3 1 3 4
M  V30 4 2 4 5
M  V30 5 1 5 6
M  V30 6 2 6 7
M  V30 7 1 6 8
M  V30 8 1 8 9
M  V30 9 1 9 10
M  V30 10 1 10 11
M  V30 11 1 5 12
M  V30 12 2 12 13
M  V30 13 1 13 14
M  V30 14 1 14 15
M  V30 15 2 15 16
M  V30 16 1 15 17
M  V30 17 2 17 18
M  V30 18 1 18 19
M  V30 19 2 19 20
M  V30 20 1 20 21
M  V30 21 2 21 22
M  V30 22 1 22 23
M  V30 23 2 23 24
M  V30 24 1 24 25
M  V30 25 1 25 26
M  V30 26 1 24 27
M  V30 27 2 27 28
M  V30 28 1 20 29
M  V30 29 1 13 2
M  V30 30 1 29 17
M  V30 31 1 11 9
M  V30 32 1 28 21
M  V30 33 1 1 30
M  V30 34 1 1 31
M  V30 35 1 1 32
M  V30 36 1 3 33
M  V30 37 1 4 34
M  V30 38 1 8 35
M  V30 39 1 9 36
M  V30 40 1 10 37
M  V30 41 1 10 38
M  V30 42 1 11 39
M  V30 43 1 11 40
M  V30 44 1 12 41
M  V30 45 1 14 42
M  V30 46 1 18 43
M  V30 47 1 19 44
M  V30 48 1 22 45
M  V30 49 1 23 46
M  V30 50 1 25 47
M  V30 51 1 25 48
M  V30 52 1 26 49
M  V30 53 1 27 50
M  V30 54 1 28 51
M  V30 END BOND
M  V30 END CTAB
M  END
>  <Dataset>  (36) 
ChEMBL_Kinases

>  <Ligand_Instance>  (36) 
nan

>  <PDB_ID>  (36) 
nan

>  <Standardized_SMILES>  (36) 
Cc1ccc(C(=O)NC2CC2)cc1NC(=O)c1ccc(-c2ccc(CO)cc2)s1

>  <Name>  (36) 
nan

>  <Pocket>  (36) 
nan

>  <ATP_Site>  (36) 
nan

>  <Peripheral>  (36) 
nan

>  <Num_H_Atoms_ProtBoundConf>  (36) 
nan

>  <Num_Resolved_Atoms>  (36) 
nan

>  <Num_Not_Resolved_Atoms>  (36) 
nan

$$$$
CHEMBL4571192
     RDKit          3D

  0  0  0  0  0  0  0  0  0  0999 V3000
M  V30 BEGIN CTAB
M  V30 COUNTS 38 40 0 0 0
M  V30 BEGIN ATOM
M  V30 1 C -0.509358 -3.040386 0.125299 0
M  V30 2 C -0.775761 -2.677593 1.584252 0
M  V30 3 C -2.002684 -1.785412 1.686107 0
M  V30 4 N 0.385103 -2.003622 2.157600 0
M  V30 5 C 0.817551 -0.801514 1.571723 0
M  V30 6 N 0.184048 -0.277909 0.509235 0
M  V30 7 C 0.552261 0.867918 -0.092565 0
M  V30 8 C -0.189723 1.370959 -1.244370 0
M  V30 9 C -1.273615 0.700395 -1.745602 0
M  V30 10 C -1.914861 1.255709 -2.842397 0
M  V30 11 N -1.528054 2.405077 -3.428508 0
M  V30 12 C -0.462104 3.080879 -2.949308 0
M  V30 13 C 0.192149 2.550705 -1.860867 0
M  V30 14 N 1.611452 1.558187 0.367355 0
M  V30 15 C 2.331851 1.121586 1.442028 0
M  V30 16 C 3.420028 1.817427 1.925711 0
M  V30 17 N 4.102604 1.337721 2.999467 0
M  V30 18 C 3.713104 0.176660 3.593170 0
M  V30 19 C 2.620002 -0.500196 3.088683 0
M  V30 20 C 1.895287 -0.058718 2.005685 0
M  V30 21 C -1.122424 -3.956347 2.305088 0
M  V30 22 F -1.380277 -3.712710 3.645179 0
M  V30 23 F -0.206407 -4.951901 2.094936 0
M  V30 24 F -2.314172 -4.399721 1.761186 0
M  V30 25 H -1.357500 -2.762773 -0.537404 0
M  V30 26 H 0.390802 -2.520743 -0.260520 0
M  V30 27 H -0.374873 -4.139614 0.007515 0
M  V30 28 H -2.898808 -2.448683 1.655285 0
M  V30 29 H -2.005439 -1.335177 2.708747 0
M  V30 30 H -2.042979 -1.022324 0.893664 0
M  V30 31 H 0.800915 -2.490396 2.975113 0
M  V30 32 H -1.628650 -0.212612 -1.327013 0
M  V30 33 H -2.785060 0.800588 -3.314783 0
M  V30 34 H -0.177985 4.001306 -3.443859 0
M  V30 35 H 1.055667 3.076842 -1.454744 0
M  V30 36 H 3.706407 2.742972 1.428750 0
M  V30 37 H 4.279437 -0.175135 4.445199 0
M  V30 38 H 2.366786 -1.412579 3.607143 0
M  V30 END ATOM
M  V30 BEGIN BOND
M  V30 1 1 1 2
M  V30 2 1 2 3
M  V30 3 1 2 4
M  V30 4 1 4 5
M  V30 5 2 5 6
M  V30 6 1 6 7
M  V30 7 1 7 8
M  V30 8 2 8 9
M  V30 9 1 9 10
M  V30 10 2 10 11
M  V30 11 1 11 12
M  V30 12 2 12 13
M  V30 13 2 7 14
M  V30 14 1 14 15
M  V30 15 2 15 16
M  V30 16 1 16 17
M  V30 17 2 17 18
M  V30 18 1 18 19
M  V30 19 2 19 20
M  V30 20 1 2 21
M  V30 21 1 21 22
M  V30 22 1 21 23
M  V30 23 1 21 24
M  V30 24 1 20 5
M  V30 25 1 13 8
M  V30 26 1 20 15
M  V30 27 1 1 25
M  V30 28 1 1 26
M  V30 29 1 1 27
M  V30 30 1 3 28
M  V30 31 1 3 29
M  V30 32 1 3 30
M  V30 33 1 4 31
M  V30 34 1 9 32
M  V30 35 1 10 33
M  V30 36 1 12 34
M  V30 37 1 13 35
M  V30 38 1 16 36
M  V30 39 1 18 37
M  V30 40 1 19 38
M  V30 END BOND
M  V30 END CTAB
M  END
>  <Dataset>  (37) 
ChEMBL_Kinases

>  <Ligand_Instance>  (37) 
nan

>  <PDB_ID>  (37) 
nan

>  <Standardized_SMILES>  (37) 
CC(C)(Nc1nc(-c2ccncc2)nc2cnccc12)C(F)(F)F

>  <Name>  (37) 
nan

>  <Pocket>  (37) 
nan

>  <ATP_Site>  (37) 
nan

>  <Peripheral>  (37) 
nan

>  <Num_H_Atoms_ProtBoundConf>  (37) 
nan

>  <Num_Resolved_Atoms>  (37) 
nan

>  <Num_Not_Resolved_Atoms>  (37) 
nan

$$$$
CHEMBL4573638
     RDKit          3D

  0  0  0  0  0  0  0  0  0  0999 V3000
M  V30 BEGIN CTAB
M  V30 COUNTS 63 68 0 0 0
M  V30 BEGIN ATOM
M  V30 1 C 5.932311 0.688244 6.092435 0
M  V30 2 C 5.995075 0.241290 4.662649 0
M  V30 3 N 6.742759 -0.483505 3.817050 0
M  V30 4 O 6.205409 -0.477204 2.643907 0
M  V30 5 C 5.100218 0.226903 2.621133 0
M  V30 6 C 4.181853 0.502137 1.527392 0
M  V30 7 C 4.451787 -0.057647 0.288446 0
M  V30 8 C 3.562054 0.223083 -0.755813 0
M  V30 9 C 2.456615 1.021212 -0.578833 0
M  V30 10 N 1.438539 1.484532 -1.323237 0
M  V30 11 C 0.623764 2.271693 -0.555398 0
M  V30 12 N -0.554064 2.916909 -1.049590 0
M  V30 13 C -1.796074 2.489260 -0.469859 0
M  V30 14 C -1.826589 1.520617 0.509475 0
M  V30 15 C -3.041625 1.111578 1.078952 0
M  V30 16 C -3.033828 0.081736 2.117741 0
M  V30 17 N -3.124439 -1.261666 1.692732 0
M  V30 18 C -4.251657 -1.686620 0.978913 0
M  V30 19 C -4.104542 -2.794404 0.003560 0
M  V30 20 N -2.759975 -3.061387 -0.398127 0
M  V30 21 C -2.539403 -3.842768 -1.545183 0
M  V30 22 O -3.763068 -4.063501 -1.858121 0
M  V30 23 C -1.405180 -4.340592 -2.287519 0
M  V30 24 C -0.447884 -3.347791 -2.879252 0
M  V30 25 C -1.372218 -3.325307 -4.101903 0
M  V30 26 C -1.707138 -4.771248 -3.709171 0
M  V30 27 C -1.578873 -2.574367 0.310984 0
M  V30 28 C -1.948507 -2.039691 1.676973 0
M  V30 29 C -4.230085 1.685666 0.656345 0
M  V30 30 C -4.134675 2.656338 -0.333935 0
M  V30 31 N -2.963934 3.023395 -0.856475 0
M  V30 32 N 1.100077 2.331882 0.704896 0
M  V30 33 C 2.211047 1.568352 0.672519 0
M  V30 34 C 3.077461 1.308809 1.735397 0
M  V30 35 N 4.965570 0.677906 3.882040 0
M  V30 36 H 6.844726 0.365723 6.602830 0
M  V30 37 H 5.083790 0.133475 6.559919 0
M  V30 38 H 5.744986 1.773441 6.170186 0
M  V30 39 H 5.296841 -0.695193 0.068409 0
M  V30 40 H 3.742963 -0.197640 -1.742298 0
M  V30 41 H -0.577645 3.652458 -1.779851 0
M  V30 42 H -0.912014 1.051355 0.862720 0
M  V30 43 H -2.077422 0.175986 2.707222 0
M  V30 44 H -3.827216 0.267821 2.900640 0
M  V30 45 H -5.072541 -1.941100 1.719605 0
M  V30 46 H -4.681803 -0.805372 0.420451 0
M  V30 47 H -4.529311 -3.728159 0.480020 0
M  V30 48 H -4.799920 -2.638518 -0.874227 0
M  V30 49 H -0.892440 -5.176868 -1.762832 0
M  V30 50 H 0.532007 -3.835124 -3.116561 0
M  V30 51 H -0.286941 -2.399238 -2.386145 0
M  V30 52 H -2.253603 -2.704863 -3.913480 0
M  V30 53 H -0.850366 -3.211708 -5.061255 0
M  V30 54 H -0.927540 -5.439671 -4.130563 0
M  V30 55 H -2.752515 -5.071885 -3.860226 0
M  V30 56 H -0.841034 -3.391867 0.486253 0
M  V30 57 H -1.169395 -1.721008 -0.266498 0
M  V30 58 H -1.099919 -1.438827 2.057208 0
M  V30 59 H -2.130333 -2.946309 2.316802 0
M  V30 60 H -5.205844 1.421353 1.059432 0
M  V30 61 H -5.060346 3.093667 -0.650637 0
M  V30 62 H 0.672866 2.855761 1.473705 0
M  V30 63 H 2.913719 1.715899 2.708341 0
M  V30 END ATOM
M  V30 BEGIN BOND
M  V30 1 1 1 2
M  V30 2 2 2 3
M  V30 3 1 3 4
M  V30 4 1 4 5
M  V30 5 1 5 6
M  V30 6 2 6 7
M  V30 7 1 7 8
M  V30 8 2 8 9
M  V30 9 1 9 10
M  V30 10 2 10 11
M  V30 11 1 11 12
M  V30 12 1 12 13
M  V30 13 2 13 14
M  V30 14 1 14 15
M  V30 15 1 15 16
M  V30 16 1 16 17
M  V30 17 1 17 18
M  V30 18 1 18 19
M  V30 19 1 19 20
M  V30 20 1 20 21
M  V30 21 2 21 22
M  V30 22 1 21 23
M  V30 23 1 23 24
M  V30 24 1 24 25
M  V30 25 1 25 26
M  V30 26 1 20 27
M  V30 27 1 27 28
M  V30 28 2 15 29
M  V30 29 1 29 30
M  V30 30 2 30 31
M  V30 31 1 11 32
M  V30 32 1 32 33
M  V30 33 2 33 34
M  V30 34 2 5 35
M  V30 35 1 35 2
M  V30 36 1 34 6
M  V30 37 1 33 9
M  V30 38 1 31 13
M  V30 39 1 28 17
M  V30 40 1 26 23
M  V30 41 1 1 36
M  V30 42 1 1 37
M  V30 43 1 1 38
M  V30 44 1 7 39
M  V30 45 1 8 40
M  V30 46 1 12 41
M  V30 47 1 14 42
M  V30 48 1 16 43
M  V30 49 1 16 44
M  V30 50 1 18 45
M  V30 51 1 18 46
M  V30 52 1 19 47
M  V30 53 1 19 48
M  V30 54 1 23 49
M  V30 55 1 24 50
M  V30 56 1 24 51
M  V30 57 1 25 52
M  V30 58 1 25 53
M  V30 59 1 26 54
M  V30 60 1 26 55
M  V30 61 1 27 56
M  V30 62 1 27 57
M  V30 63 1 28 58
M  V30 64 1 28 59
M  V30 65 1 29 60
M  V30 66 1 30 61
M  V30 67 1 32 62
M  V30 68 1 34 63
M  V30 END BOND
M  V30 END CTAB
M  END
>  <Dataset>  (38) 
ChEMBL_Kinases

>  <Ligand_Instance>  (38) 
nan

>  <PDB_ID>  (38) 
nan

>  <Standardized_SMILES>  (38) 
Cc1noc(-c2ccc3nc(Nc4cc(CN5CCN(C(=O)C6CCC6)CC5)ccn4)[nH]c3c2)n1

>  <Name>  (38) 
nan

>  <Pocket>  (38) 
nan

>  <ATP_Site>  (38) 
nan

>  <Peripheral>  (38) 
nan

>  <Num_H_Atoms_ProtBoundConf>  (38) 
nan

>  <Num_Resolved_Atoms>  (38) 
nan

>  <Num_Not_Resolved_Atoms>  (38) 
nan

$$$$
CHEMBL2401993
     RDKit          3D

  0  0  0  0  0  0  0  0  0  0999 V3000
M  V30 BEGIN CTAB
M  V30 COUNTS 57 60 0 0 0
M  V30 BEGIN ATOM
M  V30 1 C 0.387492 1.467856 4.615398 0
M  V30 2 C 1.260294 2.144038 3.622427 0
M  V30 3 C 2.589544 2.427529 3.881387 0
M  V30 4 C 3.376262 3.064999 2.917918 0
M  V30 5 C 2.878082 3.436036 1.687019 0
M  V30 6 C 3.715679 4.089200 0.689301 0
M  V30 7 O 3.186674 4.481315 -0.388898 0
M  V30 8 N 5.106581 4.317040 0.849587 0
M  V30 9 C 5.967151 4.960315 -0.117358 0
M  V30 10 C 7.287660 4.359189 -0.459230 0
M  V30 11 C 7.183900 5.689256 0.238064 0
M  V30 12 C 1.559664 3.163529 1.410025 0
M  V30 13 C 0.812421 2.538572 2.370266 0
M  V30 14 N -0.542801 2.273475 2.016914 0
M  V30 15 C -0.525104 0.975738 1.423518 0
M  V30 16 O 0.662236 0.493689 1.404864 0
M  V30 17 C -1.616289 0.206651 0.883735 0
M  V30 18 C -2.930964 0.297584 0.698669 0
M  V30 19 C -3.633331 -0.704589 0.117871 0
M  V30 20 C -2.935377 -1.817498 -0.272059 0
M  V30 21 C -3.348107 -3.080973 -0.920802 0
M  V30 22 C -4.648132 -3.364902 -1.280149 0
M  V30 23 C -4.892418 -4.583477 -1.877631 0
M  V30 24 C -3.876929 -5.487324 -2.108902 0
M  V30 25 C -4.163545 -6.769360 -2.742194 0
M  V30 26 O -4.583333 -7.043265 -3.901718 0
M  V30 27 N -3.947668 -7.958176 -1.954362 0
M  V30 28 C -4.224549 -9.236491 -2.567060 0
M  V30 29 C -3.464534 -7.939985 -0.568350 0
M  V30 30 C -2.549827 -5.222641 -1.753771 0
M  V30 31 C -2.344647 -3.994777 -1.159081 0
M  V30 32 S -1.200133 -1.412399 0.212697 0
M  V30 33 H 0.348969 0.369886 4.452615 0
M  V30 34 H 0.867792 1.581683 5.620987 0
M  V30 35 H -0.631743 1.911102 4.659024 0
M  V30 36 H 2.950423 2.124259 4.855946 0
M  V30 37 H 4.405387 3.250302 3.200471 0
M  V30 38 H 5.581883 4.007227 1.726414 0
M  V30 39 H 5.406919 5.306662 -1.022129 0
M  V30 40 H 7.651063 4.360909 -1.508873 0
M  V30 41 H 7.571848 3.442069 0.074419 0
M  V30 42 H 7.549542 5.790555 1.285272 0
M  V30 43 H 7.493128 6.574163 -0.373357 0
M  V30 44 H 1.145289 3.445699 0.448604 0
M  V30 45 H -1.521306 2.681347 2.037221 0
M  V30 46 H -3.369488 1.223726 1.047994 0
M  V30 47 H -4.698881 -0.694592 -0.061964 0
M  V30 48 H -5.325569 -2.566988 -1.038180 0
M  V30 49 H -5.918758 -4.761674 -2.140728 0
M  V30 50 H -4.207352 -9.173355 -3.678902 0
M  V30 51 H -3.436451 -9.945633 -2.275848 0
M  V30 52 H -5.177914 -9.679042 -2.219790 0
M  V30 53 H -4.131174 -8.549342 0.099896 0
M  V30 54 H -3.534156 -6.906196 -0.172000 0
M  V30 55 H -2.442595 -8.336195 -0.468671 0
M  V30 56 H -1.760370 -5.935761 -1.937641 0
M  V30 57 H -1.300420 -3.804717 -0.887784 0
M  V30 END ATOM
M  V30 BEGIN BOND
M  V30 1 1 1 2
M  V30 2 2 2 3
M  V30 3 1 3 4
M  V30 4 2 4 5
M  V30 5 1 5 6
M  V30 6 2 6 7
M  V30 7 1 6 8
M  V30 8 1 8 9
M  V30 9 1 9 10
M  V30 10 1 10 11
M  V30 11 1 5 12
M  V30 12 2 12 13
M  V30 13 1 13 14
M  V30 14 1 14 15
M  V30 15 2 15 16
M  V30 16 1 15 17
M  V30 17 2 17 18
M  V30 18 1 18 19
M  V30 19 2 19 20
M  V30 20 1 20 21
M  V30 21 2 21 22
M  V30 22 1 22 23
M  V30 23 2 23 24
M  V30 24 1 24 25
M  V30 25 2 25 26
M  V30 26 1 25 27
M  V30 27 1 27 28
M  V30 28 1 27 29
M  V30 29 1 24 30
M  V30 30 2 30 31
M  V30 31 1 20 32
M  V30 32 1 13 2
M  V30 33 1 32 17
M  V30 34 1 11 9
M  V30 35 1 31 21
M  V30 36 1 1 33
M  V30 37 1 1 34
M  V30 38 1 1 35
M  V30 39 1 3 36
M  V30 40 1 4 37
M  V30 41 1 8 38
M  V30 42 1 9 39
M  V30 43 1 10 40
M  V30 44 1 10 41
M  V30 45 1 11 42
M  V30 46 1 11 43
M  V30 47 1 12 44
M  V30 48 1 14 45
M  V30 49 1 18 46
M  V30 50 1 19 47
M  V30 51 1 22 48
M  V30 52 1 23 49
M  V30 53 1 28 50
M  V30 54 1 28 51
M  V30 55 1 28 52
M  V30 56 1 29 53
M  V30 57 1 29 54
M  V30 58 1 29 55
M  V30 59 1 30 56
M  V30 60 1 31 57
M  V30 END BOND
M  V30 END CTAB
M  END
>  <Dataset>  (39) 
ChEMBL_Kinases

>  <Ligand_Instance>  (39) 
nan

>  <PDB_ID>  (39) 
nan

>  <Standardized_SMILES>  (39) 
Cc1ccc(C(=O)NC2CC2)cc1NC(=O)c1ccc(-c2ccc(C(=O)N(C)C)cc2)s1

>  <Name>  (39) 
nan

>  <Pocket>  (39) 
nan

>  <ATP_Site>  (39) 
nan

>  <Peripheral>  (39) 
nan

>  <Num_H_Atoms_ProtBoundConf>  (39) 
nan

>  <Num_Resolved_Atoms>  (39) 
nan

>  <Num_Not_Resolved_Atoms>  (39) 
nan

$$$$
CHEMBL2401994
     RDKit          3D

  0  0  0  0  0  0  0  0  0  0999 V3000
M  V30 BEGIN CTAB
M  V30 COUNTS 62 66 0 0 0
M  V30 BEGIN ATOM
M  V30 1 C 1.883013 0.585755 5.903203 0
M  V30 2 C 2.968385 0.976636 4.970945 0
M  V30 3 C 4.291136 1.054657 5.350227 0
M  V30 4 C 5.267092 1.434383 4.414357 0
M  V30 5 C 4.911189 1.732431 3.108766 0
M  V30 6 C 5.953233 2.105130 2.162396 0
M  V30 7 O 7.165070 1.956063 2.512920 0
M  V30 8 N 5.712603 2.627911 0.869650 0
M  V30 9 C 6.661343 3.023210 -0.148961 0
M  V30 10 C 6.636084 4.430004 -0.663020 0
M  V30 11 C 6.242346 3.226361 -1.542227 0
M  V30 12 C 3.571490 1.636484 2.787959 0
M  V30 13 C 2.583939 1.266617 3.679019 0
M  V30 14 N 1.260738 1.214186 3.134633 0
M  V30 15 C 0.185032 2.119643 2.978194 0
M  V30 16 O 0.412612 3.253831 3.415293 0
M  V30 17 C -0.930588 1.377062 2.302779 0
M  V30 18 C -2.187245 2.000255 1.978864 0
M  V30 19 C -3.086620 1.189556 1.365196 0
M  V30 20 C -2.786674 -0.081240 1.101696 0
M  V30 21 C -3.495662 -1.191551 0.469321 0
M  V30 22 C -2.836771 -2.413922 0.335152 0
M  V30 23 C -3.413702 -3.526086 -0.240814 0
M  V30 24 C -4.719285 -3.395348 -0.702780 0
M  V30 25 C -5.459124 -4.499928 -1.333400 0
M  V30 26 O -6.589636 -4.930247 -1.004195 0
M  V30 27 N -4.869575 -5.192503 -2.447890 0
M  V30 28 C -5.631495 -6.285647 -3.049910 0
M  V30 29 C -5.629476 -6.187435 -4.548053 0
M  V30 30 O -4.834110 -5.147348 -5.008636 0
M  V30 31 C -3.558383 -5.155165 -4.462786 0
M  V30 32 C -3.573290 -4.854686 -2.989981 0
M  V30 33 C -5.398151 -2.185329 -0.580340 0
M  V30 34 C -4.772939 -1.081402 0.011531 0
M  V30 35 S -1.162852 -0.245344 1.715222 0
M  V30 36 H 2.201099 -0.347627 6.434939 0
M  V30 37 H 0.942494 0.363442 5.397171 0
M  V30 38 H 1.790817 1.336992 6.738353 0
M  V30 39 H 4.567630 0.820174 6.378804 0
M  V30 40 H 6.295389 1.493777 4.716664 0
M  V30 41 H 4.704111 2.760268 0.577678 0
M  V30 42 H 7.690167 2.676802 0.052673 0
M  V30 43 H 7.588936 4.920215 -0.979985 0
M  V30 44 H 5.860048 5.134858 -0.360469 0
M  V30 45 H 5.156268 3.123819 -1.770059 0
M  V30 46 H 6.884160 2.996034 -2.418650 0
M  V30 47 H 3.335574 1.873883 1.773554 0
M  V30 48 H 1.325560 0.186214 2.856499 0
M  V30 49 H -2.359295 3.054868 2.227709 0
M  V30 50 H -4.076205 1.545264 1.067925 0
M  V30 51 H -1.820722 -2.595459 0.668176 0
M  V30 52 H -2.915845 -4.470631 -0.349153 0
M  V30 53 H -5.206988 -7.273517 -2.764767 0
M  V30 54 H -6.675581 -6.266396 -2.672256 0
M  V30 55 H -6.671647 -5.995094 -4.900736 0
M  V30 56 H -5.316761 -7.145866 -5.024419 0
M  V30 57 H -3.053985 -6.127750 -4.648898 0
M  V30 58 H -2.995318 -4.327905 -4.982968 0
M  V30 59 H -2.739589 -5.431458 -2.538591 0
M  V30 60 H -3.381109 -3.768505 -2.822047 0
M  V30 61 H -6.405387 -2.053889 -0.927008 0
M  V30 62 H -5.294724 -0.141748 0.109236 0
M  V30 END ATOM
M  V30 BEGIN BOND
M  V30 1 1 1 2
M  V30 2 2 2 3
M  V30 3 1 3 4
M  V30 4 2 4 5
M  V30 5 1 5 6
M  V30 6 2 6 7
M  V30 7 1 6 8
M  V30 8 1 8 9
M  V30 9 1 9 10
M  V30 10 1 10 11
M  V30 11 1 5 12
M  V30 12 2 12 13
M  V30 13 1 13 14
M  V30 14 1 14 15
M  V30 15 2 15 16
M  V30 16 1 15 17
M  V30 17 2 17 18
M  V30 18 1 18 19
M  V30 19 2 19 20
M  V30 20 1 20 21
M  V30 21 2 21 22
M  V30 22 1 22 23
M  V30 23 2 23 24
M  V30 24 1 24 25
M  V30 25 2 25 26
M  V30 26 1 25 27
M  V30 27 1 27 28
M  V30 28 1 28 29
M  V30 29 1 29 30
M  V30 30 1 30 31
M  V30 31 1 31 32
M  V30 32 1 24 33
M  V30 33 2 33 34
M  V30 34 1 20 35
M  V30 35 1 13 2
M  V30 36 1 35 17
M  V30 37 1 11 9
M  V30 38 1 34 21
M  V30 39 1 32 27
M  V30 40 1 1 36
M  V30 41 1 1 37
M  V30 42 1 1 38
M  V30 43 1 3 39
M  V30 44 1 4 40
M  V30 45 1 8 41
M  V30 46 1 9 42
M  V30 47 1 10 43
M  V30 48 1 10 44
M  V30 49 1 11 45
M  V30 50 1 11 46
M  V30 51 1 12 47
M  V30 52 1 14 48
M  V30 53 1 18 49
M  V30 54 1 19 50
M  V30 55 1 22 51
M  V30 56 1 23 52
M  V30 57 1 28 53
M  V30 58 1 28 54
M  V30 59 1 29 55
M  V30 60 1 29 56
M  V30 61 1 31 57
M  V30 62 1 31 58
M  V30 63 1 32 59
M  V30 64 1 32 60
M  V30 65 1 33 61
M  V30 66 1 34 62
M  V30 END BOND
M  V30 END CTAB
M  END
>  <Dataset>  (40) 
ChEMBL_Kinases

>  <Ligand_Instance>  (40) 
nan

>  <PDB_ID>  (40) 
nan

>  <Standardized_SMILES>  (40) 
Cc1ccc(C(=O)NC2CC2)cc1NC(=O)c1ccc(-c2ccc(C(=O)N3CCOCC3)cc2)s1

>  <Name>  (40) 
nan

>  <Pocket>  (40) 
nan

>  <ATP_Site>  (40) 
nan

>  <Peripheral>  (40) 
nan

>  <Num_H_Atoms_ProtBoundConf>  (40) 
nan

>  <Num_Resolved_Atoms>  (40) 
nan

>  <Num_Not_Resolved_Atoms>  (40) 
nan

$$$$
CHEMBL2401995
     RDKit          3D

  0  0  0  0  0  0  0  0  0  0999 V3000
M  V30 BEGIN CTAB
M  V30 COUNTS 64 68 0 0 0
M  V30 BEGIN ATOM
M  V30 1 C 1.088870 1.831586 6.142010 0
M  V30 2 C 2.434675 1.865347 5.514133 0
M  V30 3 C 3.630305 2.042339 6.173855 0
M  V30 4 C 4.809932 2.056225 5.464306 0
M  V30 5 C 4.868383 1.899084 4.097471 0
M  V30 6 C 6.153555 1.913655 3.415780 0
M  V30 7 O 7.168691 1.943630 4.159528 0
M  V30 8 N 6.299550 1.897101 2.003884 0
M  V30 9 C 7.545621 1.906567 1.250728 0
M  V30 10 C 7.553252 2.772646 0.012949 0
M  V30 11 C 7.569473 1.277876 -0.107289 0
M  V30 12 C 3.636225 1.720815 3.458259 0
M  V30 13 C 2.430515 1.699512 4.120976 0
M  V30 14 N 1.305729 1.499714 3.277727 0
M  V30 15 C 0.477400 2.413601 2.593584 0
M  V30 16 O 0.876094 3.582641 2.831842 0
M  V30 17 C -0.596429 1.788513 1.807873 0
M  V30 18 C -1.524121 2.469018 1.052471 0
M  V30 19 C -2.463338 1.780530 0.368771 0
M  V30 20 C -2.405254 0.385039 0.496014 0
M  V30 21 C -3.240051 -0.682253 -0.085096 0
M  V30 22 C -2.924130 -1.973010 0.236031 0
M  V30 23 C -3.697074 -2.980210 -0.305105 0
M  V30 24 C -4.752801 -2.597969 -1.147180 0
M  V30 25 C -5.650562 -3.572038 -1.785145 0
M  V30 26 O -6.798196 -4.034684 -1.790378 0
M  V30 27 N -5.075630 -4.346214 -2.828631 0
M  V30 28 C -5.899810 -5.315769 -3.497701 0
M  V30 29 C -5.520070 -5.505547 -4.949140 0
M  V30 30 C -4.073311 -5.808942 -5.151159 0
M  V30 31 C -3.250411 -5.540949 -3.909275 0
M  V30 32 C -3.699520 -4.230200 -3.275771 0
M  V30 33 C -5.048165 -1.264293 -1.454492 0
M  V30 34 C -4.244741 -0.265441 -0.890183 0
M  V30 35 S -0.997658 0.142649 1.595929 0
M  V30 36 H 1.190045 1.497807 7.200528 0
M  V30 37 H 0.415811 1.135548 5.582258 0
M  V30 38 H 0.681787 2.874563 6.088362 0
M  V30 39 H 3.574888 2.165047 7.247192 0
M  V30 40 H 5.707758 2.201389 6.061177 0
M  V30 41 H 5.451086 1.877059 1.395561 0
M  V30 42 H 8.484114 1.834883 1.835938 0
M  V30 43 H 8.486998 3.364932 -0.110018 0
M  V30 44 H 6.600328 3.273739 -0.240907 0
M  V30 45 H 6.642368 0.803591 -0.516938 0
M  V30 46 H 8.475040 0.819453 -0.519538 0
M  V30 47 H 3.710272 1.598549 2.388043 0
M  V30 48 H 1.205180 0.441004 3.263412 0
M  V30 49 H -1.510727 3.572331 0.997274 0
M  V30 50 H -3.250875 2.164279 -0.262695 0
M  V30 51 H -2.101121 -2.264425 0.890615 0
M  V30 52 H -3.553847 -4.033950 -0.130418 0
M  V30 53 H -5.854528 -6.310627 -2.989387 0
M  V30 54 H -6.958373 -4.982069 -3.491382 0
M  V30 55 H -6.106649 -6.341919 -5.357020 0
M  V30 56 H -5.831780 -4.592332 -5.480308 0
M  V30 57 H -3.871012 -6.854830 -5.462832 0
M  V30 58 H -3.682417 -5.167483 -5.994419 0
M  V30 59 H -2.204416 -5.416028 -4.197593 0
M  V30 60 H -3.463321 -6.347290 -3.203176 0
M  V30 61 H -3.685570 -3.474432 -4.081727 0
M  V30 62 H -3.015183 -3.967389 -2.459451 0
M  V30 63 H -5.851337 -0.993635 -2.093006 0
M  V30 64 H -4.461052 0.766289 -1.123408 0
M  V30 END ATOM
M  V30 BEGIN BOND
M  V30 1 1 1 2
M  V30 2 2 2 3
M  V30 3 1 3 4
M  V30 4 2 4 5
M  V30 5 1 5 6
M  V30 6 2 6 7
M  V30 7 1 6 8
M  V30 8 1 8 9
M  V30 9 1 9 10
M  V30 10 1 10 11
M  V30 11 1 5 12
M  V30 12 2 12 13
M  V30 13 1 13 14
M  V30 14 1 14 15
M  V30 15 2 15 16
M  V30 16 1 15 17
M  V30 17 2 17 18
M  V30 18 1 18 19
M  V30 19 2 19 20
M  V30 20 1 20 21
M  V30 21 2 21 22
M  V30 22 1 22 23
M  V30 23 2 23 24
M  V30 24 1 24 25
M  V30 25 2 25 26
M  V30 26 1 25 27
M  V30 27 1 27 28
M  V30 28 1 28 29
M  V30 29 1 29 30
M  V30 30 1 30 31
M  V30 31 1 31 32
M  V30 32 1 24 33
M  V30 33 2 33 34
M  V30 34 1 20 35
M  V30 35 1 13 2
M  V30 36 1 35 17
M  V30 37 1 11 9
M  V30 38 1 34 21
M  V30 39 1 32 27
M  V30 40 1 1 36
M  V30 41 1 1 37
M  V30 42 1 1 38
M  V30 43 1 3 39
M  V30 44 1 4 40
M  V30 45 1 8 41
M  V30 46 1 9 42
M  V30 47 1 10 43
M  V30 48 1 10 44
M  V30 49 1 11 45
M  V30 50 1 11 46
M  V30 51 1 12 47
M  V30 52 1 14 48
M  V30 53 1 18 49
M  V30 54 1 19 50
M  V30 55 1 22 51
M  V30 56 1 23 52
M  V30 57 1 28 53
M  V30 58 1 28 54
M  V30 59 1 29 55
M  V30 60 1 29 56
M  V30 61 1 30 57
M  V30 62 1 30 58
M  V30 63 1 31 59
M  V30 64 1 31 60
M  V30 65 1 32 61
M  V30 66 1 32 62
M  V30 67 1 33 63
M  V30 68 1 34 64
M  V30 END BOND
M  V30 END CTAB
M  END
>  <Dataset>  (41) 
ChEMBL_Kinases

>  <Ligand_Instance>  (41) 
nan

>  <PDB_ID>  (41) 
nan

>  <Standardized_SMILES>  (41) 
Cc1ccc(C(=O)NC2CC2)cc1NC(=O)c1ccc(-c2ccc(C(=O)N3CCCCC3)cc2)s1

>  <Name>  (41) 
nan

>  <Pocket>  (41) 
nan

>  <ATP_Site>  (41) 
nan

>  <Peripheral>  (41) 
nan

>  <Num_H_Atoms_ProtBoundConf>  (41) 
nan

>  <Num_Resolved_Atoms>  (41) 
nan

>  <Num_Not_Resolved_Atoms>  (41) 
nan

$$$$
CHEMBL2401996
     RDKit          3D

  0  0  0  0  0  0  0  0  0  0999 V3000
M  V30 BEGIN CTAB
M  V30 COUNTS 46 49 0 0 0
M  V30 BEGIN ATOM
M  V30 1 C 0.967584 -1.977264 4.281692 0
M  V30 2 C 2.025611 -1.835846 3.245478 0
M  V30 3 C 3.203867 -2.549014 3.389555 0
M  V30 4 C 4.204008 -2.422475 2.420709 0
M  V30 5 C 3.985872 -1.583317 1.339821 0
M  V30 6 C 5.069285 -1.497954 0.367341 0
M  V30 7 O 6.113883 -2.173295 0.558854 0
M  V30 8 N 5.022657 -0.689087 -0.801768 0
M  V30 9 C 6.128499 -0.628877 -1.754289 0
M  V30 10 C 6.399303 0.643703 -2.481197 0
M  V30 11 C 5.683283 -0.454484 -3.193062 0
M  V30 12 C 2.821128 -0.876489 1.194661 0
M  V30 13 C 1.832537 -1.000258 2.150363 0
M  V30 14 N 0.577086 -0.308201 2.097965 0
M  V30 15 C -0.422605 -1.026738 1.416742 0
M  V30 16 O -0.317412 -2.159403 0.879816 0
M  V30 17 C -1.758267 -0.415032 1.298244 0
M  V30 18 C -2.184519 0.761634 1.754794 0
M  V30 19 C -3.477392 1.167166 1.546117 0
M  V30 20 C -4.281237 0.255564 0.830189 0
M  V30 21 C -5.699218 0.356632 0.428194 0
M  V30 22 C -6.432694 1.471664 0.755555 0
M  V30 23 C -7.739956 1.444444 0.324316 0
M  V30 24 C -8.223311 0.359863 -0.376354 0
M  V30 25 C -7.451936 -0.742653 -0.685306 0
M  V30 26 N -6.157966 -0.705036 -0.253074 0
M  V30 27 S -3.117080 -1.148240 0.494919 0
M  V30 28 H 1.471587 -2.238937 5.240816 0
M  V30 29 H 0.273731 -2.824078 4.042480 0
M  V30 30 H 0.437927 -1.022471 4.466840 0
M  V30 31 H 3.306463 -3.183936 4.256075 0
M  V30 32 H 5.110044 -2.996918 2.570309 0
M  V30 33 H 4.175507 -0.119849 -0.989160 0
M  V30 34 H 7.021557 -1.234922 -1.548249 0
M  V30 35 H 5.839759 1.530282 -2.143711 0
M  V30 36 H 7.406577 0.852934 -2.843019 0
M  V30 37 H 4.623636 -0.274796 -3.415965 0
M  V30 38 H 6.197015 -1.052501 -3.967183 0
M  V30 39 H 2.652363 -0.230422 0.363147 0
M  V30 40 H 0.404015 0.629004 2.514771 0
M  V30 41 H -1.507090 1.420778 2.303185 0
M  V30 42 H -3.953133 2.085405 1.856682 0
M  V30 43 H -5.907655 2.235310 1.307885 0
M  V30 44 H -8.323816 2.318670 0.578171 0
M  V30 45 H -9.262999 0.376825 -0.699871 0
M  V30 46 H -7.848201 -1.583852 -1.235575 0
M  V30 END ATOM
M  V30 BEGIN BOND
M  V30 1 1 1 2
M  V30 2 2 2 3
M  V30 3 1 3 4
M  V30 4 2 4 5
M  V30 5 1 5 6
M  V30 6 2 6 7
M  V30 7 1 6 8
M  V30 8 1 8 9
M  V30 9 1 9 10
M  V30 10 1 10 11
M  V30 11 1 5 12
M  V30 12 2 12 13
M  V30 13 1 13 14
M  V30 14 1 14 15
M  V30 15 2 15 16
M  V30 16 1 15 17
M  V30 17 2 17 18
M  V30 18 1 18 19
M  V30 19 2 19 20
M  V30 20 1 20 21
M  V30 21 2 21 22
M  V30 22 1 22 23
M  V30 23 2 23 24
M  V30 24 1 24 25
M  V30 25 2 25 26
M  V30 26 1 20 27
M  V30 27 1 13 2
M  V30 28 1 27 17
M  V30 29 1 11 9
M  V30 30 1 26 21
M  V30 31 1 1 28
M  V30 32 1 1 29
M  V30 33 1 1 30
M  V30 34 1 3 31
M  V30 35 1 4 32
M  V30 36 1 8 33
M  V30 37 1 9 34
M  V30 38 1 10 35
M  V30 39 1 10 36
M  V30 40 1 11 37
M  V30 41 1 11 38
M  V30 42 1 12 39
M  V30 43 1 14 40
M  V30 44 1 18 41
M  V30 45 1 19 42
M  V30 46 1 22 43
M  V30 47 1 23 44
M  V30 48 1 24 45
M  V30 49 1 25 46
M  V30 END BOND
M  V30 END CTAB
M  END
>  <Dataset>  (42) 
ChEMBL_Kinases

>  <Ligand_Instance>  (42) 
nan

>  <PDB_ID>  (42) 
nan

>  <Standardized_SMILES>  (42) 
Cc1ccc(C(=O)NC2CC2)cc1NC(=O)c1ccc(-c2ccccn2)s1

>  <Name>  (42) 
nan

>  <Pocket>  (42) 
nan

>  <ATP_Site>  (42) 
nan

>  <Peripheral>  (42) 
nan

>  <Num_H_Atoms_ProtBoundConf>  (42) 
nan

>  <Num_Resolved_Atoms>  (42) 
nan

>  <Num_Not_Resolved_Atoms>  (42) 
nan

$$$$
CHEMBL2401997
     RDKit          3D

  0  0  0  0  0  0  0  0  0  0999 V3000
M  V30 BEGIN CTAB
M  V30 COUNTS 46 49 0 0 0
M  V30 BEGIN ATOM
M  V30 1 C -0.752941 -0.053309 4.648774 0
M  V30 2 C 0.002485 0.965552 3.861524 0
M  V30 3 C 0.140144 2.248490 4.347873 0
M  V30 4 C 0.844793 3.218290 3.625303 0
M  V30 5 C 1.384501 2.824711 2.419674 0
M  V30 6 C 2.114475 3.853876 1.683648 0
M  V30 7 O 2.204753 5.016708 2.185724 0
M  V30 8 N 2.754162 3.684968 0.425171 0
M  V30 9 C 3.456987 4.739362 -0.247620 0
M  V30 10 C 3.375181 4.906850 -1.722498 0
M  V30 11 C 4.653390 4.524546 -1.077788 0
M  V30 12 C 1.271520 1.554041 1.895635 0
M  V30 13 C 0.573288 0.621641 2.628039 0
M  V30 14 N 0.429548 -0.724447 2.119036 0
M  V30 15 C -0.688721 -0.947465 1.314051 0
M  V30 16 O -1.590986 -0.151249 0.964512 0
M  V30 17 C -0.754812 -2.369729 0.833530 0
M  V30 18 C -0.022091 -3.474664 0.978166 0
M  V30 19 C -0.463251 -4.586206 0.347030 0
M  V30 20 C -1.559217 -4.574266 -0.371705 0
M  V30 21 C -2.225849 -5.662450 -1.143997 0
M  V30 22 C -3.393181 -5.320679 -1.810625 0
M  V30 23 C -4.029774 -6.308918 -2.531464 0
M  V30 24 C -3.441408 -7.556162 -2.522419 0
M  V30 25 N -2.307019 -7.826151 -1.855735 0
M  V30 26 C -1.643332 -6.894966 -1.134392 0
M  V30 27 S -2.153596 -2.945483 -0.264783 0
M  V30 28 H -0.442100 -0.104370 5.699520 0
M  V30 29 H -0.590198 -1.057394 4.199748 0
M  V30 30 H -1.848798 0.128592 4.554631 0
M  V30 31 H -0.302506 2.509550 5.301262 0
M  V30 32 H 0.930851 4.210503 4.038481 0
M  V30 33 H 2.692628 2.736502 -0.006094 0
M  V30 34 H 3.440362 5.702882 0.329364 0
M  V30 35 H 3.251819 5.927772 -2.140697 0
M  V30 36 H 2.740196 4.172704 -2.252366 0
M  V30 37 H 5.066724 3.511174 -1.142270 0
M  V30 38 H 5.436322 5.324323 -1.111686 0
M  V30 39 H 1.687421 1.253521 0.967747 0
M  V30 40 H 1.146675 -1.437046 2.373043 0
M  V30 41 H 0.859318 -3.352294 1.596613 0
M  V30 42 H 0.107137 -5.529484 0.434280 0
M  V30 43 H -3.801429 -4.332544 -1.779551 0
M  V30 44 H -4.939671 -6.037033 -3.049389 0
M  V30 45 H -3.986373 -8.304930 -3.109849 0
M  V30 46 H -0.739130 -7.131792 -0.609549 0
M  V30 END ATOM
M  V30 BEGIN BOND
M  V30 1 1 1 2
M  V30 2 2 2 3
M  V30 3 1 3 4
M  V30 4 2 4 5
M  V30 5 1 5 6
M  V30 6 2 6 7
M  V30 7 1 6 8
M  V30 8 1 8 9
M  V30 9 1 9 10
M  V30 10 1 10 11
M  V30 11 1 5 12
M  V30 12 2 12 13
M  V30 13 1 13 14
M  V30 14 1 14 15
M  V30 15 2 15 16
M  V30 16 1 15 17
M  V30 17 2 17 18
M  V30 18 1 18 19
M  V30 19 2 19 20
M  V30 20 1 20 21
M  V30 21 2 21 22
M  V30 22 1 22 23
M  V30 23 2 23 24
M  V30 24 1 24 25
M  V30 25 2 25 26
M  V30 26 1 20 27
M  V30 27 1 13 2
M  V30 28 1 27 17
M  V30 29 1 11 9
M  V30 30 1 26 21
M  V30 31 1 1 28
M  V30 32 1 1 29
M  V30 33 1 1 30
M  V30 34 1 3 31
M  V30 35 1 4 32
M  V30 36 1 8 33
M  V30 37 1 9 34
M  V30 38 1 10 35
M  V30 39 1 10 36
M  V30 40 1 11 37
M  V30 41 1 11 38
M  V30 42 1 12 39
M  V30 43 1 14 40
M  V30 44 1 18 41
M  V30 45 1 19 42
M  V30 46 1 22 43
M  V30 47 1 23 44
M  V30 48 1 24 45
M  V30 49 1 26 46
M  V30 END BOND
M  V30 END CTAB
M  END
>  <Dataset>  (43) 
ChEMBL_Kinases

>  <Ligand_Instance>  (43) 
nan

>  <PDB_ID>  (43) 
nan

>  <Standardized_SMILES>  (43) 
Cc1ccc(C(=O)NC2CC2)cc1NC(=O)c1ccc(-c2cccnc2)s1

>  <Name>  (43) 
nan

>  <Pocket>  (43) 
nan

>  <ATP_Site>  (43) 
nan

>  <Peripheral>  (43) 
nan

>  <Num_H_Atoms_ProtBoundConf>  (43) 
nan

>  <Num_Resolved_Atoms>  (43) 
nan

>  <Num_Not_Resolved_Atoms>  (43) 
nan

$$$$
CHEMBL3692215
     RDKit          3D

  0  0  0  0  0  0  0  0  0  0999 V3000
M  V30 BEGIN CTAB
M  V30 COUNTS 58 62 0 0 0
M  V30 BEGIN ATOM
M  V30 1 C 2.307111 1.816737 4.885950 0
M  V30 2 C 2.749955 0.611063 4.147321 0
M  V30 3 C 2.548033 0.205086 2.842835 0
M  V30 4 C 3.152762 -0.993036 2.605189 0
M  V30 5 N 3.213198 -1.784970 1.428184 0
M  V30 6 C 2.589293 -1.399861 0.212753 0
M  V30 7 N 1.886041 -0.276238 0.020305 0
M  V30 8 C 1.298238 0.078359 -1.137629 0
M  V30 9 C 0.571177 1.349506 -1.154032 0
M  V30 10 C -0.889091 1.261745 -0.779439 0
M  V30 11 C -1.365394 2.692994 -0.882661 0
M  V30 12 N -1.374937 3.637172 0.074275 0
M  V30 13 C -1.883179 4.788085 -0.428775 0
M  V30 14 O -2.178810 4.523573 -1.699733 0
M  V30 15 N -1.875858 3.287803 -1.975760 0
M  V30 16 C -1.080810 0.915579 0.677667 0
M  V30 17 C -2.375866 0.117044 0.876273 0
M  V30 18 N -2.194888 -1.080445 0.094351 0
M  V30 19 C -2.211022 -2.285958 0.811625 0
M  V30 20 O -2.393365 -1.952031 2.028792 0
M  V30 21 C -2.061808 -3.660187 0.359161 0
M  V30 22 C -0.735364 -4.092716 0.356848 0
M  V30 23 C -0.416582 -5.380891 -0.047600 0
M  V30 24 C -1.375189 -6.276740 -0.458076 0
M  V30 25 C -2.665751 -5.825474 -0.445417 0
M  V30 26 Cl -3.972436 -6.892546 -0.952509 0
M  V30 27 C -3.024811 -4.551696 -0.050299 0
M  V30 28 F -4.280962 -4.055862 -0.018721 0
M  V30 29 C -2.017276 -0.939961 -1.319353 0
M  V30 30 C -1.727400 0.469232 -1.721896 0
M  V30 31 C 1.382782 -0.726875 -2.257516 0
M  V30 32 C 2.097551 -1.901252 -2.117047 0
M  V30 33 C 2.658835 -2.179249 -0.908027 0
M  V30 34 F 3.343267 -3.365614 -0.879285 0
M  V30 35 N 3.722249 -1.305570 3.781758 0
M  V30 36 N 3.485834 -0.367422 4.681125 0
M  V30 37 H 1.512731 2.306212 4.252757 0
M  V30 38 H 1.789606 1.535236 5.828098 0
M  V30 39 H 3.102308 2.547020 5.029086 0
M  V30 40 H 1.979110 0.787496 2.131302 0
M  V30 41 H 3.729126 -2.683795 1.437343 0
M  V30 42 H 0.587840 1.869539 -2.149369 0
M  V30 43 H 1.013638 2.110079 -0.445937 0
M  V30 44 H -2.004474 5.706517 0.125276 0
M  V30 45 H -0.256606 0.308931 1.086391 0
M  V30 46 H -1.169412 1.798994 1.342113 0
M  V30 47 H -3.231810 0.678017 0.420739 0
M  V30 48 H -2.548548 -0.034651 1.939889 0
M  V30 49 H 0.121205 -3.473370 0.661817 0
M  V30 50 H 0.633231 -5.709824 -0.044954 0
M  V30 51 H -1.143053 -7.282412 -0.775709 0
M  V30 52 H -1.283404 -1.692360 -1.665861 0
M  V30 53 H -2.978211 -1.245798 -1.786907 0
M  V30 54 H -2.714652 0.982504 -1.873517 0
M  V30 55 H -1.260488 0.483583 -2.727051 0
M  V30 56 H 0.914125 -0.450521 -3.191853 0
M  V30 57 H 2.159127 -2.525874 -2.997502 0
M  V30 58 H 3.887692 -0.512757 5.640477 0
M  V30 END ATOM
M  V30 BEGIN BOND
M  V30 1 1 1 2
M  V30 2 2 2 3
M  V30 3 1 3 4
M  V30 4 1 4 5
M  V30 5 1 5 6
M  V30 6 2 6 7
M  V30 7 1 7 8
M  V30 8 1 8 9
M  V30 9 1 9 10
M  V30 10 1 10 11
M  V30 11 1 11 12
M  V30 12 2 12 13
M  V30 13 1 13 14
M  V30 14 1 14 15
M  V30 15 1 10 16
M  V30 16 1 16 17
M  V30 17 1 17 18
M  V30 18 1 18 19
M  V30 19 2 19 20
M  V30 20 1 19 21
M  V30 21 2 21 22
M  V30 22 1 22 23
M  V30 23 2 23 24
M  V30 24 1 24 25
M  V30 25 1 25 26
M  V30 26 2 25 27
M  V30 27 1 27 28
M  V30 28 1 18 29
M  V30 29 1 29 30
M  V30 30 2 8 31
M  V30 31 1 31 32
M  V30 32 2 32 33
M  V30 33 1 33 34
M  V30 34 2 4 35
M  V30 35 1 35 36
M  V30 36 1 36 2
M  V30 37 1 33 6
M  V30 38 1 30 10
M  V30 39 2 15 11
M  V30 40 1 27 21
M  V30 41 1 1 37
M  V30 42 1 1 38
M  V30 43 1 1 39
M  V30 44 1 3 40
M  V30 45 1 5 41
M  V30 46 1 9 42
M  V30 47 1 9 43
M  V30 48 1 13 44
M  V30 49 1 16 45
M  V30 50 1 16 46
M  V30 51 1 17 47
M  V30 52 1 17 48
M  V30 53 1 22 49
M  V30 54 1 23 50
M  V30 55 1 24 51
M  V30 56 1 29 52
M  V30 57 1 29 53
M  V30 58 1 30 54
M  V30 59 1 30 55
M  V30 60 1 31 56
M  V30 61 1 32 57
M  V30 62 1 36 58
M  V30 END BOND
M  V30 END CTAB
M  END
>  <Dataset>  (44) 
ChEMBL_Kinases

>  <Ligand_Instance>  (44) 
nan

>  <PDB_ID>  (44) 
nan

>  <Standardized_SMILES>  (44) 
Cc1cc(Nc2nc(CC3(c4ncon4)CCN(C(=O)c4cccc(Cl)c4F)CC3)ccc2F)n[nH]1

>  <Name>  (44) 
nan

>  <Pocket>  (44) 
nan

>  <ATP_Site>  (44) 
nan

>  <Peripheral>  (44) 
nan

>  <Num_H_Atoms_ProtBoundConf>  (44) 
nan

>  <Num_Resolved_Atoms>  (44) 
nan

>  <Num_Not_Resolved_Atoms>  (44) 
nan

$$$$
CHEMBL2401998
     RDKit          3D

  0  0  0  0  0  0  0  0  0  0999 V3000
M  V30 BEGIN CTAB
M  V30 COUNTS 46 49 0 0 0
M  V30 BEGIN ATOM
M  V30 1 C -0.488675 -1.256169 4.312492 0
M  V30 2 C 0.356173 -0.132601 3.813801 0
M  V30 3 C 0.612844 0.822025 4.793271 0
M  V30 4 C 1.396442 1.936100 4.468555 0
M  V30 5 C 1.879671 2.032948 3.181489 0
M  V30 6 C 2.688206 3.201677 2.855072 0
M  V30 7 O 2.900519 4.039319 3.799528 0
M  V30 8 N 3.263242 3.504166 1.592374 0
M  V30 9 C 4.046039 4.696840 1.389626 0
M  V30 10 C 3.783680 5.544797 0.182123 0
M  V30 11 C 5.119737 4.820589 0.405262 0
M  V30 12 C 1.634534 1.106930 2.220672 0
M  V30 13 C 0.872722 0.014627 2.519024 0
M  V30 14 N 0.473115 -1.093183 1.717671 0
M  V30 15 C -0.701626 -0.961843 0.976815 0
M  V30 16 O -1.487851 0.010947 0.897401 0
M  V30 17 C -1.010481 -2.205678 0.180598 0
M  V30 18 C -0.472366 -3.402836 -0.000454 0
M  V30 19 C -1.104622 -4.256769 -0.828106 0
M  V30 20 C -2.209167 -3.912358 -1.429101 0
M  V30 21 C -3.067048 -4.710268 -2.389094 0
M  V30 22 C -4.195492 -4.083004 -2.877840 0
M  V30 23 C -4.954048 -4.841249 -3.752292 0
M  V30 24 N -4.611452 -6.106674 -4.101327 0
M  V30 25 C -3.484813 -6.646837 -3.573682 0
M  V30 26 C -2.647122 -5.974459 -2.684256 0
M  V30 27 S -2.527691 -2.293145 -0.902534 0
M  V30 28 H -0.715538 -1.966280 3.486090 0
M  V30 29 H -1.428444 -0.887197 4.743216 0
M  V30 30 H 0.082616 -1.732190 5.139040 0
M  V30 31 H 0.245516 0.767667 5.809410 0
M  V30 32 H 1.587725 2.669577 5.239093 0
M  V30 33 H 3.079117 2.809109 0.835358 0
M  V30 34 H 4.161683 5.318931 2.320033 0
M  V30 35 H 3.795645 6.654837 0.266344 0
M  V30 36 H 3.132681 5.174599 -0.622996 0
M  V30 37 H 5.388578 4.008226 -0.301725 0
M  V30 38 H 5.970606 5.504930 0.605401 0
M  V30 39 H 1.974816 1.123085 1.218693 0
M  V30 40 H 1.083973 -1.937985 1.732183 0
M  V30 41 H 0.445138 -3.546107 0.576644 0
M  V30 42 H -0.669279 -5.261568 -0.991079 0
M  V30 43 H -4.482979 -3.075072 -2.610128 0
M  V30 44 H -5.859700 -4.435890 -4.190969 0
M  V30 45 H -3.211111 -7.669949 -3.857899 0
M  V30 46 H -1.757217 -6.419083 -2.275896 0
M  V30 END ATOM
M  V30 BEGIN BOND
M  V30 1 1 1 2
M  V30 2 2 2 3
M  V30 3 1 3 4
M  V30 4 2 4 5
M  V30 5 1 5 6
M  V30 6 2 6 7
M  V30 7 1 6 8
M  V30 8 1 8 9
M  V30 9 1 9 10
M  V30 10 1 10 11
M  V30 11 1 5 12
M  V30 12 2 12 13
M  V30 13 1 13 14
M  V30 14 1 14 15
M  V30 15 2 15 16
M  V30 16 1 15 17
M  V30 17 2 17 18
M  V30 18 1 18 19
M  V30 19 2 19 20
M  V30 20 1 20 21
M  V30 21 2 21 22
M  V30 22 1 22 23
M  V30 23 2 23 24
M  V30 24 1 24 25
M  V30 25 2 25 26
M  V30 26 1 20 27
M  V30 27 1 13 2
M  V30 28 1 27 17
M  V30 29 1 11 9
M  V30 30 1 26 21
M  V30 31 1 1 28
M  V30 32 1 1 29
M  V30 33 1 1 30
M  V30 34 1 3 31
M  V30 35 1 4 32
M  V30 36 1 8 33
M  V30 37 1 9 34
M  V30 38 1 10 35
M  V30 39 1 10 36
M  V30 40 1 11 37
M  V30 41 1 11 38
M  V30 42 1 12 39
M  V30 43 1 14 40
M  V30 44 1 18 41
M  V30 45 1 19 42
M  V30 46 1 22 43
M  V30 47 1 23 44
M  V30 48 1 25 45
M  V30 49 1 26 46
M  V30 END BOND
M  V30 END CTAB
M  END
>  <Dataset>  (45) 
ChEMBL_Kinases

>  <Ligand_Instance>  (45) 
nan

>  <PDB_ID>  (45) 
nan

>  <Standardized_SMILES>  (45) 
Cc1ccc(C(=O)NC2CC2)cc1NC(=O)c1ccc(-c2ccncc2)s1

>  <Name>  (45) 
nan

>  <Pocket>  (45) 
nan

>  <ATP_Site>  (45) 
nan

>  <Peripheral>  (45) 
nan

>  <Num_H_Atoms_ProtBoundConf>  (45) 
nan

>  <Num_Resolved_Atoms>  (45) 
nan

>  <Num_Not_Resolved_Atoms>  (45) 
nan

$$$$
CHEMBL3692214
     RDKit          3D

  0  0  0  0  0  0  0  0  0  0999 V3000
M  V30 BEGIN CTAB
M  V30 COUNTS 61 65 0 0 0
M  V30 BEGIN ATOM
M  V30 1 C 1.317961 -3.096644 4.863028 0
M  V30 2 C 1.947590 -2.791626 3.527157 0
M  V30 3 C 2.975971 -1.876749 3.429233 0
M  V30 4 C 3.356580 -1.795121 2.091933 0
M  V30 5 N 4.347974 -1.041450 1.359896 0
M  V30 6 C 3.630013 0.159551 1.063489 0
M  V30 7 N 2.866634 0.253567 -0.035239 0
M  V30 8 C 2.150873 1.333053 -0.388458 0
M  V30 9 C 1.346642 1.304844 -1.636068 0
M  V30 10 C -0.063837 0.783317 -1.378899 0
M  V30 11 C -0.812613 1.603954 -0.408596 0
M  V30 12 N -1.573203 2.667123 -0.737455 0
M  V30 13 O -2.070511 3.119980 0.381035 0
M  V30 14 C -1.670368 2.405911 1.405201 0
M  V30 15 C -2.179919 2.835650 2.743684 0
M  V30 16 N -0.866343 1.431090 0.933899 0
M  V30 17 C 0.038864 -0.668122 -0.939520 0
M  V30 18 C -0.757207 -1.584618 -1.848796 0
M  V30 19 N -2.105478 -1.049287 -1.932641 0
M  V30 20 C -3.275924 -1.715666 -1.459637 0
M  V30 21 O -4.441311 -1.274957 -1.521242 0
M  V30 22 C -3.057942 -3.030877 -0.852355 0
M  V30 23 C -3.136829 -4.058471 -1.795169 0
M  V30 24 C -2.965852 -5.384218 -1.458200 0
M  V30 25 C -2.704953 -5.690762 -0.118137 0
M  V30 26 C -2.627784 -4.673439 0.809592 0
M  V30 27 Cl -2.303013 -4.974303 2.515556 0
M  V30 28 C -2.800217 -3.351900 0.462994 0
M  V30 29 F -2.747019 -2.278759 1.282783 0
M  V30 30 C -2.167605 0.252785 -2.549101 0
M  V30 31 C -0.793644 0.799706 -2.717258 0
M  V30 32 C 2.234638 2.413184 0.475224 0
M  V30 33 C 3.011851 2.339308 1.607878 0
M  V30 34 C 3.741243 1.223580 1.957471 0
M  V30 35 F 4.506765 1.143542 3.066824 0
M  V30 36 N 2.553072 -2.652673 1.445904 0
M  V30 37 N 1.708144 -3.253097 2.292540 0
M  V30 38 H 0.568305 -3.871077 4.704897 0
M  V30 39 H 2.118154 -3.359501 5.579394 0
M  V30 40 H 0.822610 -2.149976 5.215550 0
M  V30 41 H 3.497430 -1.261491 4.151327 0
M  V30 42 H 5.254270 -1.518040 1.241547 0
M  V30 43 H 1.272595 2.321050 -2.058755 0
M  V30 44 H 1.800504 0.567636 -2.338800 0
M  V30 45 H -1.865362 2.112913 3.522614 0
M  V30 46 H -3.301426 2.879345 2.686841 0
M  V30 47 H -1.801105 3.827229 3.033409 0
M  V30 48 H 1.092599 -0.991063 -1.003160 0
M  V30 49 H -0.358615 -0.811736 0.107272 0
M  V30 50 H -0.347300 -1.653277 -2.859426 0
M  V30 51 H -0.722872 -2.589016 -1.400631 0
M  V30 52 H -3.333842 -3.930254 -2.862364 0
M  V30 53 H -3.017752 -6.204267 -2.152362 0
M  V30 54 H -2.562252 -6.708779 0.203289 0
M  V30 55 H -2.742300 0.963213 -1.909053 0
M  V30 56 H -2.692386 0.179967 -3.524725 0
M  V30 57 H -0.161453 0.285100 -3.444000 0
M  V30 58 H -0.854537 1.892521 -2.983864 0
M  V30 59 H 1.666442 3.300550 0.213972 0
M  V30 60 H 3.063053 3.195757 2.267525 0
M  V30 61 H 0.964180 -3.964825 2.106380 0
M  V30 END ATOM
M  V30 BEGIN BOND
M  V30 1 1 1 2
M  V30 2 2 2 3
M  V30 3 1 3 4
M  V30 4 1 4 5
M  V30 5 1 5 6
M  V30 6 2 6 7
M  V30 7 1 7 8
M  V30 8 1 8 9
M  V30 9 1 9 10
M  V30 10 1 10 11
M  V30 11 2 11 12
M  V30 12 1 12 13
M  V30 13 1 13 14
M  V30 14 1 14 15
M  V30 15 2 14 16
M  V30 16 1 10 17
M  V30 17 1 17 18
M  V30 18 1 18 19
M  V30 19 1 19 20
M  V30 20 2 20 21
M  V30 21 1 20 22
M  V30 22 2 22 23
M  V30 23 1 23 24
M  V30 24 2 24 25
M  V30 25 1 25 26
M  V30 26 1 26 27
M  V30 27 2 26 28
M  V30 28 1 28 29
M  V30 29 1 19 30
M  V30 30 1 30 31
M  V30 31 2 8 32
M  V30 32 1 32 33
M  V30 33 2 33 34
M  V30 34 1 34 35
M  V30 35 2 4 36
M  V30 36 1 36 37
M  V30 37 1 37 2
M  V30 38 1 34 6
M  V30 39 1 31 10
M  V30 40 1 16 11
M  V30 41 1 28 22
M  V30 42 1 1 38
M  V30 43 1 1 39
M  V30 44 1 1 40
M  V30 45 1 3 41
M  V30 46 1 5 42
M  V30 47 1 9 43
M  V30 48 1 9 44
M  V30 49 1 15 45
M  V30 50 1 15 46
M  V30 51 1 15 47
M  V30 52 1 17 48
M  V30 53 1 17 49
M  V30 54 1 18 50
M  V30 55 1 18 51
M  V30 56 1 23 52
M  V30 57 1 24 53
M  V30 58 1 25 54
M  V30 59 1 30 55
M  V30 60 1 30 56
M  V30 61 1 31 57
M  V30 62 1 31 58
M  V30 63 1 32 59
M  V30 64 1 33 60
M  V30 65 1 37 61
M  V30 END BOND
M  V30 END CTAB
M  END
>  <Dataset>  (46) 
ChEMBL_Kinases

>  <Ligand_Instance>  (46) 
nan

>  <PDB_ID>  (46) 
nan

>  <Standardized_SMILES>  (46) 
Cc1cc(Nc2nc(CC3(c4noc(C)n4)CCN(C(=O)c4cccc(Cl)c4F)CC3)ccc2F)n[nH]1

>  <Name>  (46) 
nan

>  <Pocket>  (46) 
nan

>  <ATP_Site>  (46) 
nan

>  <Peripheral>  (46) 
nan

>  <Num_H_Atoms_ProtBoundConf>  (46) 
nan

>  <Num_Resolved_Atoms>  (46) 
nan

>  <Num_Not_Resolved_Atoms>  (46) 
nan

$$$$
CHEMBL2401992
     RDKit          3D

  0  0  0  0  0  0  0  0  0  0999 V3000
M  V30 BEGIN CTAB
M  V30 COUNTS 58 61 0 0 0
M  V30 BEGIN ATOM
M  V30 1 C 0.712782 3.747128 -1.797389 0
M  V30 2 C 1.962654 3.697454 -1.008460 0
M  V30 3 C 2.988847 4.609585 -1.119355 0
M  V30 4 C 4.149220 4.515986 -0.348702 0
M  V30 5 C 4.246038 3.469150 0.543342 0
M  V30 6 C 5.465045 3.392848 1.337863 0
M  V30 7 O 6.347346 4.272552 1.168509 0
M  V30 8 N 5.729838 2.381769 2.302592 0
M  V30 9 C 6.928193 2.295382 3.093866 0
M  V30 10 C 7.540019 0.994890 3.435973 0
M  V30 11 C 6.872491 1.848928 4.524303 0
M  V30 12 C 3.215788 2.565672 0.644927 0
M  V30 13 C 2.058648 2.641133 -0.109461 0
M  V30 14 N 1.058376 1.647829 0.082566 0
M  V30 15 C 0.009974 1.777068 1.029358 0
M  V30 16 O -0.077892 2.818130 1.764778 0
M  V30 17 C -0.947430 0.703279 1.135229 0
M  V30 18 C -2.027012 0.539036 1.921094 0
M  V30 19 C -2.785391 -0.576425 1.836210 0
M  V30 20 C -2.397494 -1.514326 0.918966 0
M  V30 21 C -3.036771 -2.842440 0.601465 0
M  V30 22 C -4.168577 -3.261240 1.267960 0
M  V30 23 C -4.660151 -4.493339 0.889821 0
M  V30 24 C -4.074292 -5.270037 -0.086622 0
M  V30 25 C -4.651278 -6.584157 -0.441022 0
M  V30 26 N -5.627497 -6.414872 -1.461883 0
M  V30 27 C -6.281684 -7.588163 -1.928699 0
M  V30 28 C -5.383160 -5.392106 -2.420173 0
M  V30 29 C -2.929674 -4.821567 -0.744675 0
M  V30 30 C -2.422334 -3.590160 -0.380177 0
M  V30 31 S -0.921325 -0.826932 0.139028 0
M  V30 32 H 0.999525 4.123780 -2.822235 0
M  V30 33 H 0.312669 2.719876 -1.997743 0
M  V30 34 H -0.027103 4.451338 -1.420104 0
M  V30 35 H 2.830961 5.406928 -1.848573 0
M  V30 36 H 4.899876 5.289425 -0.514409 0
M  V30 37 H 5.013948 1.639882 2.462126 0
M  V30 38 H 7.669415 3.101313 2.897447 0
M  V30 39 H 7.047266 0.027519 3.289765 0
M  V30 40 H 8.645626 0.896155 3.504640 0
M  V30 41 H 5.918317 1.505357 4.945506 0
M  V30 42 H 7.588328 2.296663 5.265321 0
M  V30 43 H 3.308140 1.746065 1.352789 0
M  V30 44 H 1.155875 0.802304 -0.536845 0
M  V30 45 H -2.260283 1.352737 2.630879 0
M  V30 46 H -3.666348 -0.790760 2.426463 0
M  V30 47 H -4.557166 -2.589096 2.015483 0
M  V30 48 H -5.555551 -4.816610 1.421784 0
M  V30 49 H -5.059141 -7.110155 0.445230 0
M  V30 50 H -3.871906 -7.284988 -0.846283 0
M  V30 51 H -6.716284 -8.141756 -1.075508 0
M  V30 52 H -5.622962 -8.283843 -2.484076 0
M  V30 53 H -7.093960 -7.262351 -2.618371 0
M  V30 54 H -5.619530 -4.407199 -1.918533 0
M  V30 55 H -6.148716 -5.494514 -3.222334 0
M  V30 56 H -4.385615 -5.351815 -2.859842 0
M  V30 57 H -2.417846 -5.378287 -1.516130 0
M  V30 58 H -1.536226 -3.227871 -0.880412 0
M  V30 END ATOM
M  V30 BEGIN BOND
M  V30 1 1 1 2
M  V30 2 2 2 3
M  V30 3 1 3 4
M  V30 4 2 4 5
M  V30 5 1 5 6
M  V30 6 2 6 7
M  V30 7 1 6 8
M  V30 8 1 8 9
M  V30 9 1 9 10
M  V30 10 1 10 11
M  V30 11 1 5 12
M  V30 12 2 12 13
M  V30 13 1 13 14
M  V30 14 1 14 15
M  V30 15 2 15 16
M  V30 16 1 15 17
M  V30 17 2 17 18
M  V30 18 1 18 19
M  V30 19 2 19 20
M  V30 20 1 20 21
M  V30 21 2 21 22
M  V30 22 1 22 23
M  V30 23 2 23 24
M  V30 24 1 24 25
M  V30 25 1 25 26
M  V30 26 1 26 27
M  V30 27 1 26 28
M  V30 28 1 24 29
M  V30 29 2 29 30
M  V30 30 1 20 31
M  V30 31 1 13 2
M  V30 32 1 31 17
M  V30 33 1 11 9
M  V30 34 1 30 21
M  V30 35 1 1 32
M  V30 36 1 1 33
M  V30 37 1 1 34
M  V30 38 1 3 35
M  V30 39 1 4 36
M  V30 40 1 8 37
M  V30 41 1 9 38
M  V30 42 1 10 39
M  V30 43 1 10 40
M  V30 44 1 11 41
M  V30 45 1 11 42
M  V30 46 1 12 43
M  V30 47 1 14 44
M  V30 48 1 18 45
M  V30 49 1 19 46
M  V30 50 1 22 47
M  V30 51 1 23 48
M  V30 52 1 25 49
M  V30 53 1 25 50
M  V30 54 1 27 51
M  V30 55 1 27 52
M  V30 56 1 27 53
M  V30 57 1 28 54
M  V30 58 1 28 55
M  V30 59 1 28 56
M  V30 60 1 29 57
M  V30 61 1 30 58
M  V30 END BOND
M  V30 END CTAB
M  END
>  <Dataset>  (47) 
ChEMBL_Kinases

>  <Ligand_Instance>  (47) 
nan

>  <PDB_ID>  (47) 
nan

>  <Standardized_SMILES>  (47) 
Cc1ccc(C(=O)NC2CC2)cc1NC(=O)c1ccc(-c2ccc(CN(C)C)cc2)s1

>  <Name>  (47) 
nan

>  <Pocket>  (47) 
nan

>  <ATP_Site>  (47) 
nan

>  <Peripheral>  (47) 
nan

>  <Num_H_Atoms_ProtBoundConf>  (47) 
nan

>  <Num_Resolved_Atoms>  (47) 
nan

>  <Num_Not_Resolved_Atoms>  (47) 
nan

$$$$
CHEMBL2401975
     RDKit          3D

  0  0  0  0  0  0  0  0  0  0999 V3000
M  V30 BEGIN CTAB
M  V30 COUNTS 53 57 0 0 0
M  V30 BEGIN ATOM
M  V30 1 C 0.835756 -2.952771 2.982016 0
M  V30 2 C 1.118642 -3.925485 1.861569 0
M  V30 3 C 1.730992 -3.207191 0.658325 0
M  V30 4 C 2.993487 -2.587472 1.133636 0
M  V30 5 O 3.755590 -3.493921 1.595904 0
M  V30 6 N 3.407110 -1.230426 1.131297 0
M  V30 7 C 4.707825 -0.838597 1.607788 0
M  V30 8 C 2.463082 -0.330006 0.637709 0
M  V30 9 C 2.842562 0.999410 0.617337 0
M  V30 10 N 1.936573 1.901298 0.131208 0
M  V30 11 C 0.723075 1.481541 -0.306388 0
M  V30 12 N -0.137084 2.507924 -0.790598 0
M  V30 13 C 0.244851 3.388244 -1.730231 0
M  V30 14 C -0.792825 4.260040 -1.997334 0
M  V30 15 N -1.803284 3.895296 -1.208645 0
M  V30 16 C -1.404790 2.838666 -0.482389 0
M  V30 17 C -2.136398 2.071836 0.522940 0
M  V30 18 C -1.683347 1.875313 1.820194 0
M  V30 19 C -2.441003 1.134707 2.709267 0
M  V30 20 C -3.651815 0.588488 2.306781 0
M  V30 21 F -4.305175 -0.114142 3.255783 0
M  V30 22 C -4.072737 0.801326 1.014691 0
M  V30 23 C -3.337726 1.536107 0.105900 0
M  V30 24 N 0.411247 0.178586 -0.261805 0
M  V30 25 C 1.235267 -0.774230 0.198010 0
M  V30 26 N 0.842615 -2.161022 0.213862 0
M  V30 27 C -0.444088 -2.584516 -0.188261 0
M  V30 28 C -1.601016 -1.850942 -0.162042 0
M  V30 29 C -2.843155 -2.261792 -0.574924 0
M  V30 30 C -2.975981 -3.539265 -1.072612 0
M  V30 31 F -4.183595 -3.983508 -1.490655 0
M  V30 32 C -1.869315 -4.350677 -1.137583 0
M  V30 33 C -0.653576 -3.868506 -0.704328 0
M  V30 34 H 0.411801 -2.011808 2.576193 0
M  V30 35 H 0.098644 -3.354652 3.703939 0
M  V30 36 H 1.738722 -2.680222 3.549527 0
M  V30 37 H 1.753697 -4.761495 2.193871 0
M  V30 38 H 0.138971 -4.336939 1.561662 0
M  V30 39 H 1.912339 -3.935633 -0.149218 0
M  V30 40 H 5.322460 -1.704312 1.912517 0
M  V30 41 H 5.296156 -0.303946 0.817327 0
M  V30 42 H 4.584625 -0.159432 2.488685 0
M  V30 43 H 3.813625 1.322622 0.969054 0
M  V30 44 H 1.187685 3.513896 -2.280292 0
M  V30 45 H -0.833520 5.088070 -2.693575 0
M  V30 46 H -0.718002 2.338639 2.061740 0
M  V30 47 H -2.024230 1.024901 3.699894 0
M  V30 48 H -5.033960 0.335132 0.787866 0
M  V30 49 H -3.783434 1.626556 -0.876643 0
M  V30 50 H -1.588954 -0.846355 0.220014 0
M  V30 51 H -3.721016 -1.633522 -0.528854 0
M  V30 52 H -2.017952 -5.343637 -1.533589 0
M  V30 53 H 0.136647 -4.596158 -0.808940 0
M  V30 END ATOM
M  V30 BEGIN BOND
M  V30 1 1 1 2
M  V30 2 1 2 3
M  V30 3 1 3 4
M  V30 4 2 4 5
M  V30 5 1 4 6
M  V30 6 1 6 7
M  V30 7 1 6 8
M  V30 8 2 8 9
M  V30 9 1 9 10
M  V30 10 2 10 11
M  V30 11 1 11 12
M  V30 12 1 12 13
M  V30 13 2 13 14
M  V30 14 1 14 15
M  V30 15 2 15 16
M  V30 16 1 16 17
M  V30 17 2 17 18
M  V30 18 1 18 19
M  V30 19 2 19 20
M  V30 20 1 20 21
M  V30 21 1 20 22
M  V30 22 2 22 23
M  V30 23 1 11 24
M  V30 24 2 24 25
M  V30 25 1 25 26
M  V30 26 1 26 27
M  V30 27 2 27 28
M  V30 28 1 28 29
M  V30 29 2 29 30
M  V30 30 1 30 31
M  V30 31 1 30 32
M  V30 32 2 32 33
M  V30 33 1 26 3
M  V30 34 1 33 27
M  V30 35 1 25 8
M  V30 36 1 16 12
M  V30 37 1 23 17
M  V30 38 1 1 34
M  V30 39 1 1 35
M  V30 40 1 1 36
M  V30 41 1 2 37
M  V30 42 1 2 38
M  V30 43 1 3 39
M  V30 44 1 7 40
M  V30 45 1 7 41
M  V30 46 1 7 42
M  V30 47 1 9 43
M  V30 48 1 13 44
M  V30 49 1 14 45
M  V30 50 1 18 46
M  V30 51 1 19 47
M  V30 52 1 22 48
M  V30 53 1 23 49
M  V30 54 1 28 50
M  V30 55 1 29 51
M  V30 56 1 32 52
M  V30 57 1 33 53
M  V30 END BOND
M  V30 END CTAB
M  END
>  <Dataset>  (48) 
ChEMBL_Kinases

>  <Ligand_Instance>  (48) 
nan

>  <PDB_ID>  (48) 
nan

>  <Standardized_SMILES>  (48) 
CCC1C(=O)N(C)c2cnc(-n3ccnc3-c3ccc(F)cc3)nc2N1c1ccc(F)cc1

>  <Name>  (48) 
nan

>  <Pocket>  (48) 
nan

>  <ATP_Site>  (48) 
nan

>  <Peripheral>  (48) 
nan

>  <Num_H_Atoms_ProtBoundConf>  (48) 
nan

>  <Num_Resolved_Atoms>  (48) 
nan

>  <Num_Not_Resolved_Atoms>  (48) 
nan

$$$$
CHEMBL2401978
     RDKit          3D

  0  0  0  0  0  0  0  0  0  0999 V3000
M  V30 BEGIN CTAB
M  V30 COUNTS 46 49 0 0 0
M  V30 BEGIN ATOM
M  V30 1 C -1.102108 2.785322 2.231511 0
M  V30 2 C 0.302333 2.656415 1.721863 0
M  V30 3 C 1.105080 3.753446 1.809970 0
M  V30 4 C 2.408409 3.709762 1.361535 0
M  V30 5 C 2.857861 2.520836 0.826402 0
M  V30 6 C 4.236247 2.488298 0.356575 0
M  V30 7 O 4.937166 3.527540 0.460006 0
M  V30 8 N 4.880701 1.365749 -0.222144 0
M  V30 9 C 6.244434 1.361320 -0.677968 0
M  V30 10 C 7.086945 0.153039 -0.493335 0
M  V30 11 C 6.646730 0.573859 -1.871960 0
M  V30 12 C 2.006202 1.451930 0.763714 0
M  V30 13 C 0.716766 1.452611 1.193587 0
M  V30 14 N -0.193911 0.369061 1.145951 0
M  V30 15 C 0.020889 -0.920202 0.656354 0
M  V30 16 O 1.106254 -1.251195 0.187170 0
M  V30 17 C -1.056760 -1.937756 0.685768 0
M  V30 18 C -1.017481 -3.212177 0.259534 0
M  V30 19 N -2.100972 -3.938329 0.385381 0
M  V30 20 C -3.137963 -3.597446 0.841629 0
M  V30 21 C -4.495077 -4.079597 1.137804 0
M  V30 22 C -5.485206 -3.314235 1.716033 0
M  V30 23 C -6.696622 -3.953744 1.912640 0
M  V30 24 C -6.883696 -5.271563 1.547828 0
M  V30 25 C -5.862674 -6.020293 0.964689 0
M  V30 26 C -4.632543 -5.382714 0.761218 0
M  V30 27 Cl -3.401154 -6.370336 0.030501 0
M  V30 28 S -2.717956 -1.800978 1.283966 0
M  V30 29 H -1.256185 2.183672 3.146726 0
M  V30 30 H -1.829592 2.449361 1.459954 0
M  V30 31 H -1.354489 3.830170 2.457839 0
M  V30 32 H 0.719378 4.667553 2.234780 0
M  V30 33 H 3.030065 4.591674 1.440249 0
M  V30 34 H 4.347800 0.494083 -0.327218 0
M  V30 35 H 6.779805 2.331960 -0.541484 0
M  V30 36 H 6.650964 -0.800031 -0.124921 0
M  V30 37 H 8.168678 0.238636 -0.260565 0
M  V30 38 H 7.441964 0.946239 -2.550527 0
M  V30 39 H 5.891394 -0.032948 -2.419294 0
M  V30 40 H 2.430205 0.576977 0.338836 0
M  V30 41 H -1.165403 0.522539 1.519728 0
M  V30 42 H -0.146320 -3.711094 -0.192657 0
M  V30 43 H -5.238660 -2.291921 1.965231 0
M  V30 44 H -7.484004 -3.362942 2.366687 0
M  V30 45 H -7.829829 -5.748471 1.708694 0
M  V30 46 H -6.039368 -7.050551 0.689624 0
M  V30 END ATOM
M  V30 BEGIN BOND
M  V30 1 1 1 2
M  V30 2 2 2 3
M  V30 3 1 3 4
M  V30 4 2 4 5
M  V30 5 1 5 6
M  V30 6 2 6 7
M  V30 7 1 6 8
M  V30 8 1 8 9
M  V30 9 1 9 10
M  V30 10 1 10 11
M  V30 11 1 5 12
M  V30 12 2 12 13
M  V30 13 1 13 14
M  V30 14 1 14 15
M  V30 15 2 15 16
M  V30 16 1 15 17
M  V30 17 2 17 18
M  V30 18 1 18 19
M  V30 19 2 19 20
M  V30 20 1 20 21
M  V30 21 2 21 22
M  V30 22 1 22 23
M  V30 23 2 23 24
M  V30 24 1 24 25
M  V30 25 2 25 26
M  V30 26 1 26 27
M  V30 27 1 20 28
M  V30 28 1 13 2
M  V30 29 1 28 17
M  V30 30 1 11 9
M  V30 31 1 26 21
M  V30 32 1 1 29
M  V30 33 1 1 30
M  V30 34 1 1 31
M  V30 35 1 3 32
M  V30 36 1 4 33
M  V30 37 1 8 34
M  V30 38 1 9 35
M  V30 39 1 10 36
M  V30 40 1 10 37
M  V30 41 1 11 38
M  V30 42 1 11 39
M  V30 43 1 12 40
M  V30 44 1 14 41
M  V30 45 1 18 42
M  V30 46 1 22 43
M  V30 47 1 23 44
M  V30 48 1 24 45
M  V30 49 1 25 46
M  V30 END BOND
M  V30 END CTAB
M  END
>  <Dataset>  (49) 
ChEMBL_Kinases

>  <Ligand_Instance>  (49) 
nan

>  <PDB_ID>  (49) 
nan

>  <Standardized_SMILES>  (49) 
Cc1ccc(C(=O)NC2CC2)cc1NC(=O)c1cnc(-c2ccccc2Cl)s1

>  <Name>  (49) 
nan

>  <Pocket>  (49) 
nan

>  <ATP_Site>  (49) 
nan

>  <Peripheral>  (49) 
nan

>  <Num_H_Atoms_ProtBoundConf>  (49) 
nan

>  <Num_Resolved_Atoms>  (49) 
nan

>  <Num_Not_Resolved_Atoms>  (49) 
nan

$$$$
CHEMBL3706687
     RDKit          3D

  0  0  0  0  0  0  0  0  0  0999 V3000
M  V30 BEGIN CTAB
M  V30 COUNTS 79 83 0 0 0
M  V30 BEGIN ATOM
M  V30 1 O 4.456714 -2.012798 0.687506 0
M  V30 2 C 5.672842 -1.693345 0.581075 0
M  V30 3 N 5.992563 -0.585286 1.443370 0
M  V30 4 C 4.904984 -0.070532 2.243896 0
M  V30 5 C 4.112761 0.884412 1.636089 0
M  V30 6 C 3.058002 1.400107 2.390112 0
M  V30 7 C 2.805810 0.978778 3.697817 0
M  V30 8 N 1.689491 1.545568 4.408409 0
M  V30 9 C 0.728257 2.231257 3.579709 0
M  V30 10 N 0.761366 3.497481 3.150318 0
M  V30 11 C -0.216933 4.005373 2.386879 0
M  V30 12 N -1.266191 3.206758 2.043529 0
M  V30 13 C -1.328703 1.931041 2.458228 0
M  V30 14 C -2.433457 1.206452 2.065854 0
M  V30 15 C -2.583444 -0.109591 2.453987 0
M  V30 16 O -3.509043 -1.077899 2.256606 0
M  V30 17 C -4.687308 -1.141949 1.571776 0
M  V30 18 C -4.460778 -0.915277 0.092306 0
M  V30 19 C -5.751061 -0.994071 -0.683630 0
M  V30 20 N -6.754049 -0.048709 -0.335763 0
M  V30 21 C -6.467665 1.311213 -0.675238 0
M  V30 22 C -6.498494 1.577469 -2.154088 0
M  V30 23 C -7.594635 0.880381 -2.883787 0
M  V30 24 C -7.204331 0.637097 -4.325854 0
M  V30 25 O -6.054853 -0.152786 -4.338648 0
M  V30 26 C -7.994706 -0.442209 -2.296992 0
M  V30 27 C -8.067778 -0.413584 -0.789422 0
M  V30 28 C -1.571470 -0.659689 3.253654 0
M  V30 29 C -0.434589 0.048613 3.670004 0
M  V30 30 C -0.326052 1.368835 3.256227 0
M  V30 31 C 3.629796 0.015893 4.268252 0
M  V30 32 C 4.686962 -0.516756 3.543625 0
M  V30 33 N 6.572062 -2.369924 -0.293802 0
M  V30 34 C 5.986348 -3.442145 -1.073291 0
M  V30 35 C 6.722505 -4.719674 -0.786765 0
M  V30 36 C 8.155839 -4.627272 -1.205218 0
M  V30 37 C 8.261028 -4.251632 -2.652278 0
M  V30 38 C 7.570188 -2.923241 -2.855817 0
M  V30 39 C 6.107073 -3.148995 -2.557129 0
M  V30 40 H 7.006523 -0.260123 1.398087 0
M  V30 41 H 4.301398 1.217743 0.622728 0
M  V30 42 H 2.424632 2.161391 1.909942 0
M  V30 43 H 1.690481 1.403275 5.452609 0
M  V30 44 H -0.146271 5.033283 2.062874 0
M  V30 45 H -3.251121 1.527910 1.473734 0
M  V30 46 H -5.502189 -0.488287 1.965935 0
M  V30 47 H -5.110135 -2.183660 1.721508 0
M  V30 48 H -3.859412 -1.800376 -0.267092 0
M  V30 49 H -3.851122 -0.052260 -0.161019 0
M  V30 50 H -5.486603 -0.955245 -1.761781 0
M  V30 51 H -6.161651 -2.008461 -0.506783 0
M  V30 52 H -7.210291 1.944810 -0.147784 0
M  V30 53 H -5.476320 1.617917 -0.292000 0
M  V30 54 H -6.622899 2.668246 -2.303670 0
M  V30 55 H -5.517163 1.307029 -2.591781 0
M  V30 56 H -8.532960 1.498389 -2.940125 0
M  V30 57 H -7.094326 1.579895 -4.899059 0
M  V30 58 H -7.989084 0.010105 -4.844067 0
M  V30 59 H -5.491536 0.007628 -5.129548 0
M  V30 60 H -9.010876 -0.716101 -2.665218 0
M  V30 61 H -7.314735 -1.234461 -2.630387 0
M  V30 62 H -8.297510 -1.442090 -0.448198 0
M  V30 63 H -8.846795 0.254773 -0.418560 0
M  V30 64 H -1.501085 -1.676584 3.663046 0
M  V30 65 H 0.364972 -0.335875 4.282369 0
M  V30 66 H 3.456546 -0.317287 5.263062 0
M  V30 67 H 5.336846 -1.258430 3.955057 0
M  V30 68 H 7.539665 -2.003364 -0.256669 0
M  V30 69 H 4.906886 -3.547817 -0.833233 0
M  V30 70 H 6.645131 -4.861773 0.330153 0
M  V30 71 H 6.276788 -5.585298 -1.322154 0
M  V30 72 H 8.611720 -5.644483 -1.033315 0
M  V30 73 H 8.707522 -3.874965 -0.598844 0
M  V30 74 H 7.706206 -4.996848 -3.280358 0
M  V30 75 H 9.318977 -4.228292 -3.000079 0
M  V30 76 H 8.055020 -2.188188 -2.203474 0
M  V30 77 H 7.717003 -2.546090 -3.903694 0
M  V30 78 H 5.807193 -4.084511 -3.093973 0
M  V30 79 H 5.451983 -2.327169 -2.895942 0
M  V30 END ATOM
M  V30 BEGIN BOND
M  V30 1 2 1 2
M  V30 2 1 2 3
M  V30 3 1 3 4
M  V30 4 2 4 5
M  V30 5 1 5 6
M  V30 6 2 6 7
M  V30 7 1 7 8
M  V30 8 1 8 9
M  V30 9 2 9 10
M  V30 10 1 10 11
M  V30 11 2 11 12
M  V30 12 1 12 13
M  V30 13 2 13 14
M  V30 14 1 14 15
M  V30 15 1 15 16
M  V30 16 1 16 17
M  V30 17 1 17 18
M  V30 18 1 18 19
M  V30 19 1 19 20
M  V30 20 1 20 21
M  V30 21 1 21 22
M  V30 22 1 22 23
M  V30 23 1 23 24
M  V30 24 1 24 25
M  V30 25 1 23 26
M  V30 26 1 26 27
M  V30 27 2 15 28
M  V30 28 1 28 29
M  V30 29 2 29 30
M  V30 30 1 7 31
M  V30 31 2 31 32
M  V30 32 1 2 33
M  V30 33 1 33 34
M  V30 34 1 34 35
M  V30 35 1 35 36
M  V30 36 1 36 37
M  V30 37 1 37 38
M  V30 38 1 38 39
M  V30 39 1 32 4
M  V30 40 1 39 34
M  V30 41 1 30 9
M  V30 42 1 30 13
M  V30 43 1 27 20
M  V30 44 1 3 40
M  V30 45 1 5 41
M  V30 46 1 6 42
M  V30 47 1 8 43
M  V30 48 1 11 44
M  V30 49 1 14 45
M  V30 50 1 17 46
M  V30 51 1 17 47
M  V30 52 1 18 48
M  V30 53 1 18 49
M  V30 54 1 19 50
M  V30 55 1 19 51
M  V30 56 1 21 52
M  V30 57 1 21 53
M  V30 58 1 22 54
M  V30 59 1 22 55
M  V30 60 1 23 56
M  V30 61 1 24 57
M  V30 62 1 24 58
M  V30 63 1 25 59
M  V30 64 1 26 60
M  V30 65 1 26 61
M  V30 66 1 27 62
M  V30 67 1 27 63
M  V30 68 1 28 64
M  V30 69 1 29 65
M  V30 70 1 31 66
M  V30 71 1 32 67
M  V30 72 1 33 68
M  V30 73 1 34 69
M  V30 74 1 35 70
M  V30 75 1 35 71
M  V30 76 1 36 72
M  V30 77 1 36 73
M  V30 78 1 37 74
M  V30 79 1 37 75
M  V30 80 1 38 76
M  V30 81 1 38 77
M  V30 82 1 39 78
M  V30 83 1 39 79
M  V30 END BOND
M  V30 END CTAB
M  END
>  <Dataset>  (50) 
ChEMBL_Kinases

>  <Ligand_Instance>  (50) 
nan

>  <PDB_ID>  (50) 
nan

>  <Standardized_SMILES>  (50) 
O=C(Nc1ccc(Nc2ncnc3cc(OCCCN4CCC(CO)CC4)ccc23)cc1)NC1CCCCC1

>  <Name>  (50) 
nan

>  <Pocket>  (50) 
nan

>  <ATP_Site>  (50) 
nan

>  <Peripheral>  (50) 
nan

>  <Num_H_Atoms_ProtBoundConf>  (50) 
nan

>  <Num_Resolved_Atoms>  (50) 
nan

>  <Num_Not_Resolved_Atoms>  (50) 
nan

$$$$
CHEMBL3702121
     RDKit          3D

  0  0  0  0  0  0  0  0  0  0999 V3000
M  V30 BEGIN CTAB
M  V30 COUNTS 72 77 0 0 0
M  V30 BEGIN ATOM
M  V30 1 C 5.459347 -2.289976 0.659038 0
M  V30 2 C 5.800839 -3.151863 -0.555904 0
M  V30 3 O 5.442875 -2.499017 -1.753949 0
M  V30 4 C 5.955853 -1.282321 -2.142293 0
M  V30 5 O 6.772209 -0.907781 -1.232768 0
M  V30 6 C 5.735233 -0.430379 -3.320230 0
M  V30 7 N 4.784686 -1.025689 -4.203446 0
M  V30 8 C 4.533428 -0.232369 -5.387861 0
M  V30 9 C 3.701336 0.993146 -5.088187 0
M  V30 10 N 2.832957 0.666620 -3.976649 0
M  V30 11 C 1.794205 1.606908 -3.765674 0
M  V30 12 C 0.929339 1.240363 -2.643458 0
M  V30 13 C -0.246657 0.523238 -2.694588 0
M  V30 14 C -0.913503 0.272909 -1.517360 0
M  V30 15 C -0.517246 0.674929 -0.263830 0
M  V30 16 N -1.197797 0.420597 0.949413 0
M  V30 17 C -2.410569 -0.283217 1.151585 0
M  V30 18 N -3.148329 -0.838163 0.181219 0
M  V30 19 C -4.293739 -1.505112 0.372484 0
M  V30 20 C -4.780095 -1.652871 1.635789 0
M  V30 21 C -5.873824 -2.243086 2.231514 0
M  V30 22 C -6.925642 -2.941291 1.659180 0
M  V30 23 C -7.907077 -3.432488 2.526657 0
M  V30 24 N -7.814003 -3.225045 3.851266 0
M  V30 25 C -6.780298 -2.546476 4.347142 0
M  V30 26 C -5.755100 -2.016270 3.589915 0
M  V30 27 N -4.626095 -1.308209 3.839616 0
M  V30 28 C -4.236277 -0.921049 5.183065 0
M  V30 29 C -4.817180 0.382043 5.623847 0
M  V30 30 C -3.679706 1.287676 5.964062 0
M  V30 31 C -2.405361 0.593573 5.614660 0
M  V30 32 C -2.747136 -0.854171 5.357832 0
M  V30 33 C -4.025270 -1.084240 2.635991 0
M  V30 34 N -2.886730 -0.428957 2.378167 0
M  V30 35 N 0.631815 1.368691 -0.270533 0
M  V30 36 C 1.327537 1.644405 -1.385504 0
M  V30 37 C 2.418904 -0.704312 -4.135908 0
M  V30 38 C 3.597416 -1.532660 -3.597493 0
M  V30 39 H 4.787873 -2.813017 1.359403 0
M  V30 40 H 4.948277 -1.360795 0.305575 0
M  V30 41 H 6.402467 -2.048447 1.166812 0
M  V30 42 H 6.840730 -3.493779 -0.549366 0
M  V30 43 H 5.157509 -4.066579 -0.495177 0
M  V30 44 H 6.718244 -0.419197 -3.875680 0
M  V30 45 H 5.468047 0.617602 -3.041317 0
M  V30 46 H 4.101192 -0.891772 -6.160511 0
M  V30 47 H 5.546887 0.101045 -5.733391 0
M  V30 48 H 3.016276 1.111398 -5.977712 0
M  V30 49 H 4.292273 1.908618 -4.920768 0
M  V30 50 H 2.261681 2.596329 -3.584953 0
M  V30 51 H 1.193744 1.658011 -4.701160 0
M  V30 52 H -0.587175 0.197600 -3.658726 0
M  V30 53 H -1.820989 -0.291064 -1.633856 0
M  V30 54 H -0.727641 0.813994 1.816440 0
M  V30 55 H -4.839447 -1.928531 -0.459904 0
M  V30 56 H -6.938726 -3.071369 0.592156 0
M  V30 57 H -8.698102 -3.966651 2.017868 0
M  V30 58 H -6.730021 -2.393165 5.424939 0
M  V30 59 H -4.591399 -1.712615 5.902970 0
M  V30 60 H -5.444736 0.268918 6.554810 0
M  V30 61 H -5.468855 0.800269 4.811200 0
M  V30 62 H -3.670866 1.570091 7.043260 0
M  V30 63 H -3.811819 2.233821 5.401263 0
M  V30 64 H -2.003815 0.993928 4.665852 0
M  V30 65 H -1.668627 0.700113 6.459252 0
M  V30 66 H -2.213592 -1.284945 4.491744 0
M  V30 67 H -2.379035 -1.458550 6.238042 0
M  V30 68 H 2.253374 2.222267 -1.244739 0
M  V30 69 H 2.301921 -0.959849 -5.207576 0
M  V30 70 H 1.501480 -0.927897 -3.599210 0
M  V30 71 H 3.543067 -1.365002 -2.492566 0
M  V30 72 H 3.411726 -2.597001 -3.861147 0
M  V30 END ATOM
M  V30 BEGIN BOND
M  V30 1 1 1 2
M  V30 2 1 2 3
M  V30 3 1 3 4
M  V30 4 2 4 5
M  V30 5 1 4 6
M  V30 6 1 6 7
M  V30 7 1 7 8
M  V30 8 1 8 9
M  V30 9 1 9 10
M  V30 10 1 10 11
M  V30 11 1 11 12
M  V30 12 2 12 13
M  V30 13 1 13 14
M  V30 14 2 14 15
M  V30 15 1 15 16
M  V30 16 1 16 17
M  V30 17 2 17 18
M  V30 18 1 18 19
M  V30 19 2 19 20
M  V30 20 1 20 21
M  V30 21 2 21 22
M  V30 22 1 22 23
M  V30 23 2 23 24
M  V30 24 1 24 25
M  V30 25 2 25 26
M  V30 26 1 26 27
M  V30 27 1 27 28
M  V30 28 1 28 29
M  V30 29 1 29 30
M  V30 30 1 30 31
M  V30 31 1 31 32
M  V30 32 1 27 33
M  V30 33 2 33 34
M  V30 34 1 15 35
M  V30 35 2 35 36
M  V30 36 1 10 37
M  V30 37 1 37 38
M  V30 38 1 38 7
M  V30 39 1 36 12
M  V30 40 1 34 17
M  V30 41 1 33 20
M  V30 42 1 26 21
M  V30 43 1 32 28
M  V30 44 1 1 39
M  V30 45 1 1 40
M  V30 46 1 1 41
M  V30 47 1 2 42
M  V30 48 1 2 43
M  V30 49 1 6 44
M  V30 50 1 6 45
M  V30 51 1 8 46
M  V30 52 1 8 47
M  V30 53 1 9 48
M  V30 54 1 9 49
M  V30 55 1 11 50
M  V30 56 1 11 51
M  V30 57 1 13 52
M  V30 58 1 14 53
M  V30 59 1 16 54
M  V30 60 1 19 55
M  V30 61 1 22 56
M  V30 62 1 23 57
M  V30 63 1 25 58
M  V30 64 1 28 59
M  V30 65 1 29 60
M  V30 66 1 29 61
M  V30 67 1 30 62
M  V30 68 1 30 63
M  V30 69 1 31 64
M  V30 70 1 31 65
M  V30 71 1 32 66
M  V30 72 1 32 67
M  V30 73 1 36 68
M  V30 74 1 37 69
M  V30 75 1 37 70
M  V30 76 1 38 71
M  V30 77 1 38 72
M  V30 END BOND
M  V30 END CTAB
M  END
>  <Dataset>  (51) 
ChEMBL_Kinases

>  <Ligand_Instance>  (51) 
nan

>  <PDB_ID>  (51) 
nan

>  <Standardized_SMILES>  (51) 
CCOC(=O)CN1CCN(Cc2ccc(Nc3ncc4c5ccncc5n(C5CCCC5)c4n3)nc2)CC1

>  <Name>  (51) 
nan

>  <Pocket>  (51) 
nan

>  <ATP_Site>  (51) 
nan

>  <Peripheral>  (51) 
nan

>  <Num_H_Atoms_ProtBoundConf>  (51) 
nan

>  <Num_Resolved_Atoms>  (51) 
nan

>  <Num_Not_Resolved_Atoms>  (51) 
nan

$$$$
CHEMBL2401979
     RDKit          3D

  0  0  0  0  0  0  0  0  0  0999 V3000
M  V30 BEGIN CTAB
M  V30 COUNTS 52 55 0 0 0
M  V30 BEGIN ATOM
M  V30 1 C -3.642070 -1.439671 2.118221 0
M  V30 2 C -3.235893 -0.159009 1.449858 0
M  V30 3 C -3.949613 1.020166 1.687036 0
M  V30 4 C -3.511738 2.135150 1.035565 0
M  V30 5 C -2.443272 2.220992 0.171079 0
M  V30 6 C -1.976602 3.414635 -0.517298 0
M  V30 7 O -1.024924 3.354098 -1.334521 0
M  V30 8 N -2.593628 4.679083 -0.273939 0
M  V30 9 C -2.086160 5.853396 -0.993131 0
M  V30 10 C -1.761965 7.026957 -0.106431 0
M  V30 11 C -2.886302 7.106355 -1.064821 0
M  V30 12 C -1.765416 1.020538 -0.031723 0
M  V30 13 C -2.148323 -0.150534 0.592245 0
M  V30 14 N -1.399073 -1.329368 0.335501 0
M  V30 15 C -1.269201 -2.465195 -0.509715 0
M  V30 16 O -2.039433 -2.685076 -1.477596 0
M  V30 17 C -0.156270 -3.371789 -0.163970 0
M  V30 18 C -0.224156 -4.727988 0.090192 0
M  V30 19 N 1.001553 -5.201968 0.372974 0
M  V30 20 N 1.891105 -4.195803 0.314440 0
M  V30 21 C 3.308063 -4.188674 0.536932 0
M  V30 22 N 3.553735 -3.696800 1.788431 0
M  V30 23 C 4.798827 -3.569932 2.282909 0
M  V30 24 C 5.877370 -3.952095 1.494588 0
M  V30 25 C 5.640325 -4.449773 0.230480 0
M  V30 26 C 4.360197 -4.574888 -0.264406 0
M  V30 27 C 3.905748 -5.080102 -1.575252 0
M  V30 28 F 4.986080 -5.463418 -2.360342 0
M  V30 29 F 3.036881 -4.235959 -2.215838 0
M  V30 30 F 3.196249 -6.260545 -1.347411 0
M  V30 31 C 1.200441 -3.064217 -0.013480 0
M  V30 32 C 1.762657 -1.722298 -0.190697 0
M  V30 33 H -4.440292 -1.204990 2.829936 0
M  V30 34 H -3.949340 -2.190612 1.339975 0
M  V30 35 H -2.798859 -1.850121 2.739624 0
M  V30 36 H -4.801355 1.034908 2.353192 0
M  V30 37 H -4.058607 3.049211 1.214289 0
M  V30 38 H -3.382312 4.815496 0.383982 0
M  V30 39 H -1.285784 5.627136 -1.746211 0
M  V30 40 H -0.827890 7.602832 -0.298616 0
M  V30 41 H -2.040459 6.968746 0.967697 0
M  V30 42 H -2.668689 7.741506 -1.966323 0
M  V30 43 H -3.942760 7.079835 -0.741111 0
M  V30 44 H -0.910471 1.031595 -0.706996 0
M  V30 45 H -0.728301 -1.176753 1.146776 0
M  V30 46 H -1.134328 -5.349025 0.071154 0
M  V30 47 H 5.024782 -3.184420 3.267988 0
M  V30 48 H 6.920451 -3.905690 1.763039 0
M  V30 49 H 6.406949 -4.779856 -0.474059 0
M  V30 50 H 2.873715 -1.836556 -0.350745 0
M  V30 51 H 1.392065 -1.285556 -1.148123 0
M  V30 52 H 1.610705 -1.043022 0.648725 0
M  V30 END ATOM
M  V30 BEGIN BOND
M  V30 1 1 1 2
M  V30 2 2 2 3
M  V30 3 1 3 4
M  V30 4 2 4 5
M  V30 5 1 5 6
M  V30 6 2 6 7
M  V30 7 1 6 8
M  V30 8 1 8 9
M  V30 9 1 9 10
M  V30 10 1 10 11
M  V30 11 1 5 12
M  V30 12 2 12 13
M  V30 13 1 13 14
M  V30 14 1 14 15
M  V30 15 2 15 16
M  V30 16 1 15 17
M  V30 17 1 17 18
M  V30 18 2 18 19
M  V30 19 1 19 20
M  V30 20 1 20 21
M  V30 21 2 21 22
M  V30 22 1 22 23
M  V30 23 2 23 24
M  V30 24 1 24 25
M  V30 25 2 25 26
M  V30 26 1 26 27
M  V30 27 1 27 28
M  V30 28 1 27 29
M  V30 29 1 27 30
M  V30 30 1 20 31
M  V30 31 1 31 32
M  V30 32 1 13 2
M  V30 33 2 31 17
M  V30 34 1 11 9
M  V30 35 1 26 21
M  V30 36 1 1 33
M  V30 37 1 1 34
M  V30 38 1 1 35
M  V30 39 1 3 36
M  V30 40 1 4 37
M  V30 41 1 8 38
M  V30 42 1 9 39
M  V30 43 1 10 40
M  V30 44 1 10 41
M  V30 45 1 11 42
M  V30 46 1 11 43
M  V30 47 1 12 44
M  V30 48 1 14 45
M  V30 49 1 18 46
M  V30 50 1 23 47
M  V30 51 1 24 48
M  V30 52 1 25 49
M  V30 53 1 32 50
M  V30 54 1 32 51
M  V30 55 1 32 52
M  V30 END BOND
M  V30 END CTAB
M  END
>  <Dataset>  (52) 
ChEMBL_Kinases

>  <Ligand_Instance>  (52) 
nan

>  <PDB_ID>  (52) 
nan

>  <Standardized_SMILES>  (52) 
Cc1ccc(C(=O)NC2CC2)cc1NC(=O)c1cnn(-c2ncccc2C(F)(F)F)c1C

>  <Name>  (52) 
nan

>  <Pocket>  (52) 
nan

>  <ATP_Site>  (52) 
nan

>  <Peripheral>  (52) 
nan

>  <Num_H_Atoms_ProtBoundConf>  (52) 
nan

>  <Num_Resolved_Atoms>  (52) 
nan

>  <Num_Not_Resolved_Atoms>  (52) 
nan

$$$$
CHEMBL2401980
     RDKit          3D

  0  0  0  0  0  0  0  0  0  0999 V3000
M  V30 BEGIN CTAB
M  V30 COUNTS 47 50 0 0 0
M  V30 BEGIN ATOM
M  V30 1 C -1.470347 2.778744 0.552581 0
M  V30 2 C 0.003538 2.604976 0.501286 0
M  V30 3 C 0.780698 3.731649 0.344657 0
M  V30 4 C 2.155932 3.657785 0.287192 0
M  V30 5 C 2.726257 2.406917 0.393017 0
M  V30 6 C 4.179851 2.320818 0.333139 0
M  V30 7 O 4.833515 3.386160 0.189073 0
M  V30 8 N 4.949701 1.145989 0.421237 0
M  V30 9 C 6.396333 1.137453 0.353461 0
M  V30 10 C 7.188972 0.172997 1.147106 0
M  V30 11 C 7.102353 0.045478 -0.368792 0
M  V30 12 C 1.910168 1.308568 0.548487 0
M  V30 13 C 0.561183 1.351320 0.608019 0
M  V30 14 N -0.327669 0.260181 0.766398 0
M  V30 15 C -0.027159 -1.118165 0.898657 0
M  V30 16 O 1.166347 -1.491206 0.881449 0
M  V30 17 C -1.034550 -2.161483 1.057626 0
M  V30 18 C -0.730922 -3.500397 1.185748 0
M  V30 19 C -1.934882 -4.202751 1.317766 0
M  V30 20 C -2.914996 -3.225674 1.260325 0
M  V30 21 C -4.350834 -3.480224 1.355693 0
M  V30 22 C -5.242739 -2.428471 1.285878 0
M  V30 23 C -6.598928 -2.628466 1.371693 0
M  V30 24 C -7.062702 -3.937042 1.533366 0
M  V30 25 Cl -8.789985 -4.243212 1.648149 0
M  V30 26 C -6.189825 -5.017376 1.607134 0
M  V30 27 C -4.840472 -4.737516 1.513119 0
M  V30 28 O -2.323053 -2.072110 1.109363 0
M  V30 29 H -1.939214 2.477596 1.487285 0
M  V30 30 H -1.776594 3.790298 0.215829 0
M  V30 31 H -1.884005 2.089851 -0.242143 0
M  V30 32 H 0.299781 4.689456 0.265726 0
M  V30 33 H 2.700459 4.588068 0.162509 0
M  V30 34 H 4.444374 0.240801 0.541261 0
M  V30 35 H 6.851598 2.141897 0.225389 0
M  V30 36 H 8.170786 0.462426 1.566552 0
M  V30 37 H 6.722111 -0.677694 1.674986 0
M  V30 38 H 6.499497 -0.781032 -0.801283 0
M  V30 39 H 8.044807 0.270845 -0.910272 0
M  V30 40 H 2.420395 0.377707 0.623164 0
M  V30 41 H -1.357719 0.417340 0.798848 0
M  V30 42 H 0.227031 -3.999017 1.193285 0
M  V30 43 H -2.022358 -5.272910 1.435841 0
M  V30 44 H -4.891058 -1.409172 1.160398 0
M  V30 45 H -7.342125 -1.835952 1.322475 0
M  V30 46 H -6.557984 -6.023735 1.732017 0
M  V30 47 H -4.135481 -5.555987 1.566906 0
M  V30 END ATOM
M  V30 BEGIN BOND
M  V30 1 1 1 2
M  V30 2 2 2 3
M  V30 3 1 3 4
M  V30 4 2 4 5
M  V30 5 1 5 6
M  V30 6 2 6 7
M  V30 7 1 6 8
M  V30 8 1 8 9
M  V30 9 1 9 10
M  V30 10 1 10 11
M  V30 11 1 5 12
M  V30 12 2 12 13
M  V30 13 1 13 14
M  V30 14 1 14 15
M  V30 15 2 15 16
M  V30 16 1 15 17
M  V30 17 2 17 18
M  V30 18 1 18 19
M  V30 19 2 19 20
M  V30 20 1 20 21
M  V30 21 2 21 22
M  V30 22 1 22 23
M  V30 23 2 23 24
M  V30 24 1 24 25
M  V30 25 1 24 26
M  V30 26 2 26 27
M  V30 27 1 20 28
M  V30 28 1 13 2
M  V30 29 1 28 17
M  V30 30 1 11 9
M  V30 31 1 27 21
M  V30 32 1 1 29
M  V30 33 1 1 30
M  V30 34 1 1 31
M  V30 35 1 3 32
M  V30 36 1 4 33
M  V30 37 1 8 34
M  V30 38 1 9 35
M  V30 39 1 10 36
M  V30 40 1 10 37
M  V30 41 1 11 38
M  V30 42 1 11 39
M  V30 43 1 12 40
M  V30 44 1 14 41
M  V30 45 1 18 42
M  V30 46 1 19 43
M  V30 47 1 22 44
M  V30 48 1 23 45
M  V30 49 1 26 46
M  V30 50 1 27 47
M  V30 END BOND
M  V30 END CTAB
M  END
>  <Dataset>  (53) 
ChEMBL_Kinases

>  <Ligand_Instance>  (53) 
nan

>  <PDB_ID>  (53) 
nan

>  <Standardized_SMILES>  (53) 
Cc1ccc(C(=O)NC2CC2)cc1NC(=O)c1ccc(-c2ccc(Cl)cc2)o1

>  <Name>  (53) 
nan

>  <Pocket>  (53) 
nan

>  <ATP_Site>  (53) 
nan

>  <Peripheral>  (53) 
nan

>  <Num_H_Atoms_ProtBoundConf>  (53) 
nan

>  <Num_Resolved_Atoms>  (53) 
nan

>  <Num_Not_Resolved_Atoms>  (53) 
nan

$$$$
CHEMBL218661
     RDKit          3D

  0  0  0  0  0  0  0  0  0  0999 V3000
M  V30 BEGIN CTAB
M  V30 COUNTS 61 64 0 0 0
M  V30 BEGIN ATOM
M  V30 1 O 1.695083 -2.070888 2.911136 0
M  V30 2 C 2.416391 -1.536631 2.025756 0
M  V30 3 C 3.633324 -0.934631 2.635131 0
M  V30 4 C 3.602898 -1.163802 4.123892 0
M  V30 5 C 4.792439 -0.590260 4.823620 0
M  V30 6 C 4.524289 0.902795 4.742391 0
M  V30 7 C 3.006009 0.985760 4.751811 0
M  V30 8 N 2.510574 -0.364270 4.646299 0
M  V30 9 N 2.161505 -1.481976 0.628151 0
M  V30 10 C 0.901732 -2.149745 0.309426 0
M  V30 11 C 0.584797 -2.121074 -1.154522 0
M  V30 12 C 0.458974 -0.732390 -1.706024 0
M  V30 13 N -0.572542 0.035631 -1.078699 0
M  V30 14 C -1.923309 -0.398821 -1.126942 0
M  V30 15 C -2.943845 0.338488 -0.519197 0
M  V30 16 C -4.271055 -0.038989 -0.536982 0
M  V30 17 C -4.559385 -1.223892 -1.207839 0
M  V30 18 O -5.775489 -1.579076 -1.229846 0
M  V30 19 N -3.567053 -1.921259 -1.786981 0
M  V30 20 C -4.008791 -3.108573 -2.434958 0
M  V30 21 C -4.841663 -2.981684 -3.537144 0
M  V30 22 C -5.311687 -4.103027 -4.219236 0
M  V30 23 C -4.930411 -5.367700 -3.775454 0
M  V30 24 C -4.106795 -5.476021 -2.684728 0
M  V30 25 C -3.648606 -4.376981 -2.019449 0
M  V30 26 Cl -2.598199 -4.557325 -0.630121 0
M  V30 27 N -2.297730 -1.523106 -1.747492 0
M  V30 28 C -0.255878 1.244154 -0.398937 0
M  V30 29 C -0.478993 1.526407 0.953820 0
M  V30 30 C -0.110558 2.756260 1.461181 0
M  V30 31 C 0.477151 3.743231 0.694770 0
M  V30 32 C 0.683464 3.431158 -0.638728 0
M  V30 33 C 0.331872 2.217442 -1.187687 0
M  V30 34 Cl 0.679015 2.022372 -2.897603 0
M  V30 35 H 4.545847 -1.389459 2.225334 0
M  V30 36 H 3.622794 0.165196 2.454482 0
M  V30 37 H 3.417384 -2.237450 4.336367 0
M  V30 38 H 4.697002 -0.879823 5.903840 0
M  V30 39 H 5.747205 -0.895040 4.386704 0
M  V30 40 H 4.963866 1.302449 3.817661 0
M  V30 41 H 4.893013 1.396937 5.661975 0
M  V30 42 H 2.628763 1.496233 5.667472 0
M  V30 43 H 2.704692 1.590091 3.873725 0
M  V30 44 H 2.091294 -0.734616 5.510356 0
M  V30 45 H 2.848018 -1.003009 -0.006052 0
M  V30 46 H 0.071221 -1.777460 0.941498 0
M  V30 47 H 1.013948 -3.231627 0.584595 0
M  V30 48 H -0.304649 -2.742307 -1.313365 0
M  V30 49 H 1.435753 -2.627012 -1.683040 0
M  V30 50 H 0.158387 -0.843223 -2.787054 0
M  V30 51 H 1.440215 -0.246536 -1.710497 0
M  V30 52 H -2.735095 1.255879 0.002296 0
M  V30 53 H -5.039976 0.544493 -0.062058 0
M  V30 54 H -5.133419 -1.988214 -3.875458 0
M  V30 55 H -5.965976 -4.036458 -5.086617 0
M  V30 56 H -5.238750 -6.290222 -4.232316 0
M  V30 57 H -3.796391 -6.463228 -2.321286 0
M  V30 58 H -0.939003 0.728867 1.512947 0
M  V30 59 H -0.299261 2.941079 2.518097 0
M  V30 60 H 0.741342 4.685353 1.156060 0
M  V30 61 H 1.146432 4.216916 -1.229051 0
M  V30 END ATOM
M  V30 BEGIN BOND
M  V30 1 2 1 2
M  V30 2 1 2 3
M  V30 3 1 3 4
M  V30 4 1 4 5
M  V30 5 1 5 6
M  V30 6 1 6 7
M  V30 7 1 7 8
M  V30 8 1 2 9
M  V30 9 1 9 10
M  V30 10 1 10 11
M  V30 11 1 11 12
M  V30 12 1 12 13
M  V30 13 1 13 14
M  V30 14 1 14 15
M  V30 15 2 15 16
M  V30 16 1 16 17
M  V30 17 2 17 18
M  V30 18 1 17 19
M  V30 19 1 19 20
M  V30 20 2 20 21
M  V30 21 1 21 22
M  V30 22 2 22 23
M  V30 23 1 23 24
M  V30 24 2 24 25
M  V30 25 1 25 26
M  V30 26 1 19 27
M  V30 27 1 13 28
M  V30 28 2 28 29
M  V30 29 1 29 30
M  V30 30 2 30 31
M  V30 31 1 31 32
M  V30 32 2 32 33
M  V30 33 1 33 34
M  V30 34 1 8 4
M  V30 35 2 27 14
M  V30 36 1 33 28
M  V30 37 1 25 20
M  V30 38 1 3 35
M  V30 39 1 3 36
M  V30 40 1 4 37
M  V30 41 1 5 38
M  V30 42 1 5 39
M  V30 43 1 6 40
M  V30 44 1 6 41
M  V30 45 1 7 42
M  V30 46 1 7 43
M  V30 47 1 8 44
M  V30 48 1 9 45
M  V30 49 1 10 46
M  V30 50 1 10 47
M  V30 51 1 11 48
M  V30 52 1 11 49
M  V30 53 1 12 50
M  V30 54 1 12 51
M  V30 55 1 15 52
M  V30 56 1 16 53
M  V30 57 1 21 54
M  V30 58 1 22 55
M  V30 59 1 23 56
M  V30 60 1 24 57
M  V30 61 1 29 58
M  V30 62 1 30 59
M  V30 63 1 31 60
M  V30 64 1 32 61
M  V30 END BOND
M  V30 END CTAB
M  END
>  <Dataset>  (54) 
ChEMBL_Kinases

>  <Ligand_Instance>  (54) 
nan

>  <PDB_ID>  (54) 
nan

>  <Standardized_SMILES>  (54) 
O=C(CC1CCCN1)NCCCN(c1ccc(=O)n(-c2ccccc2Cl)n1)c1ccccc1Cl

>  <Name>  (54) 
nan

>  <Pocket>  (54) 
nan

>  <ATP_Site>  (54) 
nan

>  <Peripheral>  (54) 
nan

>  <Num_H_Atoms_ProtBoundConf>  (54) 
nan

>  <Num_Resolved_Atoms>  (54) 
nan

>  <Num_Not_Resolved_Atoms>  (54) 
nan

$$$$
CHEMBL2401981
     RDKit          3D

  0  0  0  0  0  0  0  0  0  0999 V3000
M  V30 BEGIN CTAB
M  V30 COUNTS 47 50 0 0 0
M  V30 BEGIN ATOM
M  V30 1 C -0.973064 2.891626 2.518720 0
M  V30 2 C 0.335723 2.731098 1.825103 0
M  V30 3 C 1.236540 3.774092 1.932231 0
M  V30 4 C 2.468596 3.637931 1.286893 0
M  V30 5 C 2.809487 2.516358 0.559105 0
M  V30 6 C 4.124626 2.484269 -0.072336 0
M  V30 7 O 4.863417 3.489815 0.091894 0
M  V30 8 N 4.572722 1.379028 -0.842301 0
M  V30 9 C 5.899716 1.371064 -1.467040 0
M  V30 10 C 6.679293 0.101664 -1.482239 0
M  V30 11 C 6.128064 0.687953 -2.759252 0
M  V30 12 C 1.897185 1.491623 0.466595 0
M  V30 13 C 0.698107 1.615076 1.090058 0
M  V30 14 N -0.310857 0.583682 1.039457 0
M  V30 15 C -0.165007 -0.334916 2.105412 0
M  V30 16 O 0.734629 -0.222335 2.950737 0
M  V30 17 C -1.196834 -1.441007 2.104561 0
M  V30 18 C -1.278263 -2.431283 2.999752 0
M  V30 19 C -2.242267 -3.372420 2.907429 0
M  V30 20 C -3.129485 -3.227744 1.820238 0
M  V30 21 C -4.299558 -4.030965 1.371833 0
M  V30 22 C -4.932773 -3.572952 0.243944 0
M  V30 23 C -6.010434 -4.343291 -0.138874 0
M  V30 24 C -6.398459 -5.476458 0.571836 0
M  V30 25 Cl -7.768721 -6.462942 0.092013 0
M  V30 26 C -5.677011 -5.851212 1.711065 0
M  V30 27 C -4.574193 -5.103967 2.143549 0
M  V30 28 S -2.513934 -1.735064 0.995102 0
M  V30 29 H -1.603194 1.997239 2.403212 0
M  V30 30 H -1.513931 3.730636 2.032714 0
M  V30 31 H -0.858310 3.175950 3.590445 0
M  V30 32 H 0.979441 4.650985 2.496845 0
M  V30 33 H 3.141564 4.493917 1.405851 0
M  V30 34 H 3.963935 0.542592 -0.981625 0
M  V30 35 H 6.473257 2.293651 -1.267146 0
M  V30 36 H 7.759497 0.102243 -1.276646 0
M  V30 37 H 6.188555 -0.856814 -1.166829 0
M  V30 38 H 5.358009 0.130702 -3.292551 0
M  V30 39 H 6.895295 1.150313 -3.434353 0
M  V30 40 H 2.132889 0.618197 -0.086298 0
M  V30 41 H -1.071533 0.503807 0.309512 0
M  V30 42 H -0.561340 -2.506752 3.837170 0
M  V30 43 H -2.440367 -4.225363 3.542316 0
M  V30 44 H -4.614309 -2.689579 -0.293112 0
M  V30 45 H -6.589078 -4.081416 -1.014237 0
M  V30 46 H -5.999663 -6.733542 2.242661 0
M  V30 47 H -4.027873 -5.389760 3.008182 0
M  V30 END ATOM
M  V30 BEGIN BOND
M  V30 1 1 1 2
M  V30 2 2 2 3
M  V30 3 1 3 4
M  V30 4 2 4 5
M  V30 5 1 5 6
M  V30 6 2 6 7
M  V30 7 1 6 8
M  V30 8 1 8 9
M  V30 9 1 9 10
M  V30 10 1 10 11
M  V30 11 1 5 12
M  V30 12 2 12 13
M  V30 13 1 13 14
M  V30 14 1 14 15
M  V30 15 2 15 16
M  V30 16 1 15 17
M  V30 17 2 17 18
M  V30 18 1 18 19
M  V30 19 2 19 20
M  V30 20 1 20 21
M  V30 21 2 21 22
M  V30 22 1 22 23
M  V30 23 2 23 24
M  V30 24 1 24 25
M  V30 25 1 24 26
M  V30 26 2 26 27
M  V30 27 1 20 28
M  V30 28 1 13 2
M  V30 29 1 28 17
M  V30 30 1 11 9
M  V30 31 1 27 21
M  V30 32 1 1 29
M  V30 33 1 1 30
M  V30 34 1 1 31
M  V30 35 1 3 32
M  V30 36 1 4 33
M  V30 37 1 8 34
M  V30 38 1 9 35
M  V30 39 1 10 36
M  V30 40 1 10 37
M  V30 41 1 11 38
M  V30 42 1 11 39
M  V30 43 1 12 40
M  V30 44 1 14 41
M  V30 45 1 18 42
M  V30 46 1 19 43
M  V30 47 1 22 44
M  V30 48 1 23 45
M  V30 49 1 26 46
M  V30 50 1 27 47
M  V30 END BOND
M  V30 END CTAB
M  END
>  <Dataset>  (55) 
ChEMBL_Kinases

>  <Ligand_Instance>  (55) 
nan

>  <PDB_ID>  (55) 
nan

>  <Standardized_SMILES>  (55) 
Cc1ccc(C(=O)NC2CC2)cc1NC(=O)c1ccc(-c2ccc(Cl)cc2)s1

>  <Name>  (55) 
nan

>  <Pocket>  (55) 
nan

>  <ATP_Site>  (55) 
nan

>  <Peripheral>  (55) 
nan

>  <Num_H_Atoms_ProtBoundConf>  (55) 
nan

>  <Num_Resolved_Atoms>  (55) 
nan

>  <Num_Not_Resolved_Atoms>  (55) 
nan

$$$$
CHEMBL2401987
     RDKit          3D

  0  0  0  0  0  0  0  0  0  0999 V3000
M  V30 BEGIN CTAB
M  V30 COUNTS 48 51 0 0 0
M  V30 BEGIN ATOM
M  V30 1 C -1.516335 2.212125 2.815462 0
M  V30 2 C -0.110755 2.410611 2.392280 0
M  V30 3 C 0.555921 3.568391 2.781972 0
M  V30 4 C 1.858021 3.806748 2.420200 0
M  V30 5 C 2.501819 2.866014 1.653731 0
M  V30 6 C 3.874949 3.124330 1.276067 0
M  V30 7 O 4.417204 4.190153 1.661743 0
M  V30 8 N 4.701392 2.283614 0.495981 0
M  V30 9 C 6.062634 2.563962 0.135049 0
M  V30 10 C 6.973219 1.342762 0.049438 0
M  V30 11 C 6.607861 2.123116 -1.172935 0
M  V30 12 C 1.796762 1.737663 1.294958 0
M  V30 13 C 0.511212 1.450400 1.623316 0
M  V30 14 N -0.220959 0.310271 1.268683 0
M  V30 15 C 0.204027 -0.797354 0.491684 0
M  V30 16 O 1.343399 -0.847478 0.030150 0
M  V30 17 C -0.691820 -1.930216 0.203434 0
M  V30 18 C -0.463351 -3.035248 -0.497271 0
M  V30 19 C -1.470434 -3.938909 -0.615834 0
M  V30 20 C -2.675215 -3.668872 -0.007269 0
M  V30 21 C -3.959922 -4.385456 0.083762 0
M  V30 22 C -4.962216 -3.781898 0.800451 0
M  V30 23 C -6.136479 -4.520167 0.837418 0
M  V30 24 C -6.252759 -5.746813 0.200467 0
M  V30 25 O -7.480398 -6.420301 0.293723 0
M  V30 26 C -5.188350 -6.283775 -0.502879 0
M  V30 27 C -3.984378 -5.573206 -0.566540 0
M  V30 28 S -2.352223 -2.051761 0.767943 0
M  V30 29 H -1.671630 1.460931 3.582903 0
M  V30 30 H -2.112355 2.010540 1.886164 0
M  V30 31 H -1.907057 3.177582 3.194705 0
M  V30 32 H -0.002462 4.274611 3.385860 0
M  V30 33 H 2.292994 4.731021 2.768204 0
M  V30 34 H 4.296284 1.385951 0.151590 0
M  V30 35 H 6.442466 3.512413 0.517159 0
M  V30 36 H 7.946760 1.491916 0.537558 0
M  V30 37 H 6.516855 0.347067 0.148978 0
M  V30 38 H 5.928309 1.668063 -1.921586 0
M  V30 39 H 7.439104 2.706707 -1.616595 0
M  V30 40 H 2.369048 1.047971 0.694991 0
M  V30 41 H -1.210079 0.208296 1.588810 0
M  V30 42 H 0.501470 -3.202925 -0.957650 0
M  V30 43 H -1.434961 -4.891736 -1.158527 0
M  V30 44 H -4.846935 -2.824017 1.288531 0
M  V30 45 H -6.991113 -4.118408 1.385829 0
M  V30 46 H -8.278311 -5.932866 -0.101252 0
M  V30 47 H -5.326439 -7.240770 -0.981779 0
M  V30 48 H -3.150753 -5.988267 -1.114351 0
M  V30 END ATOM
M  V30 BEGIN BOND
M  V30 1 1 1 2
M  V30 2 2 2 3
M  V30 3 1 3 4
M  V30 4 2 4 5
M  V30 5 1 5 6
M  V30 6 2 6 7
M  V30 7 1 6 8
M  V30 8 1 8 9
M  V30 9 1 9 10
M  V30 10 1 10 11
M  V30 11 1 5 12
M  V30 12 2 12 13
M  V30 13 1 13 14
M  V30 14 1 14 15
M  V30 15 2 15 16
M  V30 16 1 15 17
M  V30 17 2 17 18
M  V30 18 1 18 19
M  V30 19 2 19 20
M  V30 20 1 20 21
M  V30 21 2 21 22
M  V30 22 1 22 23
M  V30 23 2 23 24
M  V30 24 1 24 25
M  V30 25 1 24 26
M  V30 26 2 26 27
M  V30 27 1 20 28
M  V30 28 1 13 2
M  V30 29 1 28 17
M  V30 30 1 11 9
M  V30 31 1 27 21
M  V30 32 1 1 29
M  V30 33 1 1 30
M  V30 34 1 1 31
M  V30 35 1 3 32
M  V30 36 1 4 33
M  V30 37 1 8 34
M  V30 38 1 9 35
M  V30 39 1 10 36
M  V30 40 1 10 37
M  V30 41 1 11 38
M  V30 42 1 11 39
M  V30 43 1 12 40
M  V30 44 1 14 41
M  V30 45 1 18 42
M  V30 46 1 19 43
M  V30 47 1 22 44
M  V30 48 1 23 45
M  V30 49 1 25 46
M  V30 50 1 26 47
M  V30 51 1 27 48
M  V30 END BOND
M  V30 END CTAB
M  END
>  <Dataset>  (56) 
ChEMBL_Kinases

>  <Ligand_Instance>  (56) 
nan

>  <PDB_ID>  (56) 
nan

>  <Standardized_SMILES>  (56) 
Cc1ccc(C(=O)NC2CC2)cc1NC(=O)c1ccc(-c2ccc(O)cc2)s1

>  <Name>  (56) 
nan

>  <Pocket>  (56) 
nan

>  <ATP_Site>  (56) 
nan

>  <Peripheral>  (56) 
nan

>  <Num_H_Atoms_ProtBoundConf>  (56) 
nan

>  <Num_Resolved_Atoms>  (56) 
nan

>  <Num_Not_Resolved_Atoms>  (56) 
nan

$$$$
CHEMBL218658
     RDKit          3D

  0  0  0  0  0  0  0  0  0  0999 V3000
M  V30 BEGIN CTAB
M  V30 COUNTS 50 51 0 0 0
M  V30 BEGIN ATOM
M  V30 1 C -0.115251 -5.219855 1.371808 0
M  V30 2 C 1.177763 -4.587365 1.804525 0
M  V30 3 C 0.991601 -3.163306 2.218599 0
M  V30 4 C 2.313887 -4.846041 0.877263 0
M  V30 5 O 2.214750 -4.427807 -0.418266 0
M  V30 6 C 2.049141 -3.234558 -1.022275 0
M  V30 7 N 1.922077 -2.008822 -0.479091 0
M  V30 8 C 1.759776 -0.876458 -1.188317 0
M  V30 9 C 1.625731 0.418894 -0.527964 0
M  V30 10 O 1.476302 1.441934 -1.268313 0
M  V30 11 N 1.660429 0.529704 0.872226 0
M  V30 12 C 1.538370 1.747139 1.655195 0
M  V30 13 C 0.107325 2.194894 1.702350 0
M  V30 14 C -0.638679 1.678284 2.744854 0
M  V30 15 C -1.971278 1.999191 2.921772 0
M  V30 16 C -2.600015 2.859686 2.044447 0
M  V30 17 S -4.263772 3.388518 2.092811 0
M  V30 18 C -4.504326 4.854470 3.034008 0
M  V30 19 O -5.167812 2.317367 2.657016 0
M  V30 20 O -4.760082 3.634870 0.694753 0
M  V30 21 C -1.837222 3.368342 1.004854 0
M  V30 22 C -0.505299 3.057017 0.815298 0
M  V30 23 C 1.722808 -0.991300 -2.562145 0
M  V30 24 C 1.843845 -2.200290 -3.216651 0
M  V30 25 N 1.798940 -2.257399 -4.635095 0
M  V30 26 C 2.007267 -3.317011 -2.420763 0
M  V30 27 C 2.131019 -4.568445 -3.133741 0
M  V30 28 N 2.224917 -5.570114 -3.705687 0
M  V30 29 H -0.929866 -4.667910 1.910140 0
M  V30 30 H -0.326810 -5.061461 0.293609 0
M  V30 31 H -0.171045 -6.261948 1.682518 0
M  V30 32 H 1.449222 -5.135305 2.758333 0
M  V30 33 H 0.195694 -2.649907 1.622652 0
M  V30 34 H 0.583877 -3.122453 3.272580 0
M  V30 35 H 1.918698 -2.588286 2.255065 0
M  V30 36 H 3.192596 -4.290623 1.327624 0
M  V30 37 H 2.619704 -5.916245 0.998447 0
M  V30 38 H 1.786448 -0.341347 1.433906 0
M  V30 39 H 1.995697 1.659556 2.639253 0
M  V30 40 H 2.065314 2.571303 1.099881 0
M  V30 41 H -0.271030 0.993036 3.503910 0
M  V30 42 H -2.607282 1.629809 3.714121 0
M  V30 43 H -3.906228 4.867498 3.956558 0
M  V30 44 H -4.353299 5.727625 2.368653 0
M  V30 45 H -5.584878 4.862375 3.357891 0
M  V30 46 H -2.225855 4.056491 0.250368 0
M  V30 47 H 0.106283 3.436351 0.022551 0
M  V30 48 H 1.592827 -0.079834 -3.118683 0
M  V30 49 H 2.356459 -1.504263 -5.082053 0
M  V30 50 H 1.212781 -3.047438 -5.031528 0
M  V30 END ATOM
M  V30 BEGIN BOND
M  V30 1 1 1 2
M  V30 2 1 2 3
M  V30 3 1 2 4
M  V30 4 1 4 5
M  V30 5 1 5 6
M  V30 6 2 6 7
M  V30 7 1 7 8
M  V30 8 1 8 9
M  V30 9 2 9 10
M  V30 10 1 9 11
M  V30 11 1 11 12
M  V30 12 1 12 13
M  V30 13 2 13 14
M  V30 14 1 14 15
M  V30 15 2 15 16
M  V30 16 1 16 17
M  V30 17 1 17 18
M  V30 18 2 17 19
M  V30 19 2 17 20
M  V30 20 1 16 21
M  V30 21 2 21 22
M  V30 22 2 8 23
M  V30 23 1 23 24
M  V30 24 1 24 25
M  V30 25 2 24 26
M  V30 26 1 26 27
M  V30 27 3 27 28
M  V30 28 1 26 6
M  V30 29 1 22 13
M  V30 30 1 1 29
M  V30 31 1 1 30
M  V30 32 1 1 31
M  V30 33 1 2 32
M  V30 34 1 3 33
M  V30 35 1 3 34
M  V30 36 1 3 35
M  V30 37 1 4 36
M  V30 38 1 4 37
M  V30 39 1 11 38
M  V30 40 1 12 39
M  V30 41 1 12 40
M  V30 42 1 14 41
M  V30 43 1 15 42
M  V30 44 1 18 43
M  V30 45 1 18 44
M  V30 46 1 18 45
M  V30 47 1 21 46
M  V30 48 1 22 47
M  V30 49 1 23 48
M  V30 50 1 25 49
M  V30 51 1 25 50
M  V30 END BOND
M  V30 END CTAB
M  END
>  <Dataset>  (57) 
ChEMBL_Kinases

>  <Ligand_Instance>  (57) 
nan

>  <PDB_ID>  (57) 
nan

>  <Standardized_SMILES>  (57) 
CC(C)COc1nc(C(=O)NCc2ccc(S(C)(=O)=O)cc2)cc(N)c1C#N

>  <Name>  (57) 
nan

>  <Pocket>  (57) 
nan

>  <ATP_Site>  (57) 
nan

>  <Peripheral>  (57) 
nan

>  <Num_H_Atoms_ProtBoundConf>  (57) 
nan

>  <Num_Resolved_Atoms>  (57) 
nan

>  <Num_Not_Resolved_Atoms>  (57) 
nan

$$$$
CHEMBL3702120
     RDKit          3D

  0  0  0  0  0  0  0  0  0  0999 V3000
M  V30 BEGIN CTAB
M  V30 COUNTS 62 67 0 0 0
M  V30 BEGIN ATOM
M  V30 1 O 3.403989 -2.158257 4.422628 0
M  V30 2 C 3.421047 -1.975530 3.196549 0
M  V30 3 O 2.684064 -2.929025 2.466234 0
M  V30 4 C 4.052541 -0.964445 2.315107 0
M  V30 5 N 4.819833 0.029847 2.991527 0
M  V30 6 C 5.361379 0.962237 2.017525 0
M  V30 7 C 4.391383 2.063831 1.647544 0
M  V30 8 N 3.044008 1.737500 2.086620 0
M  V30 9 C 1.913611 1.929366 1.241728 0
M  V30 10 C 1.912750 2.678632 0.082126 0
M  V30 11 C 0.783925 2.804831 -0.704245 0
M  V30 12 C -0.397796 2.179047 -0.355774 0
M  V30 13 N -1.600729 2.264137 -1.146647 0
M  V30 14 C -2.742017 1.540651 -0.672659 0
M  V30 15 N -3.872762 1.837406 0.006065 0
M  V30 16 C -4.734116 0.828334 0.289947 0
M  V30 17 C -4.494130 -0.493349 -0.091522 0
M  V30 18 C -5.229475 -1.614995 0.110967 0
M  V30 19 C -6.421919 -1.947457 0.714945 0
M  V30 20 C -6.799231 -3.270544 0.690194 0
M  V30 21 N -6.069692 -4.274282 0.106664 0
M  V30 22 C -4.885194 -3.921036 -0.490693 0
M  V30 23 C -4.483035 -2.603383 -0.480177 0
M  V30 24 N -3.355300 -2.119868 -1.015055 0
M  V30 25 C -2.238541 -2.653885 -1.721874 0
M  V30 26 C -2.112206 -4.069604 -1.976167 0
M  V30 27 C -0.744037 -4.078062 -2.695304 0
M  V30 28 C 0.050983 -3.081708 -1.906801 0
M  V30 29 C -0.915880 -2.360691 -0.993747 0
M  V30 30 C -3.353749 -0.767900 -0.770960 0
M  V30 31 N -2.506693 0.269548 -1.042126 0
M  V30 32 N -0.358424 1.447474 0.798848 0
M  V30 33 N 0.736435 1.344459 1.531693 0
M  V30 34 C 2.810728 1.207369 3.416084 0
M  V30 35 C 4.144252 0.798656 3.980598 0
M  V30 36 H 2.382995 -3.804304 2.896559 0
M  V30 37 H 3.344725 -0.572900 1.556143 0
M  V30 38 H 4.801320 -1.546198 1.696893 0
M  V30 39 H 6.284566 1.391034 2.466652 0
M  V30 40 H 5.683537 0.422065 1.109965 0
M  V30 41 H 4.432002 2.179732 0.533774 0
M  V30 42 H 4.734563 2.986753 2.153036 0
M  V30 43 H 2.830371 3.179153 -0.209903 0
M  V30 44 H 0.761659 3.380984 -1.604733 0
M  V30 45 H -1.521497 2.855403 -2.002234 0
M  V30 46 H -5.613415 1.098138 0.822586 0
M  V30 47 H -7.010122 -1.178765 1.177661 0
M  V30 48 H -7.724416 -3.609940 1.144165 0
M  V30 49 H -4.324194 -4.701142 -0.941089 0
M  V30 50 H -2.149482 -2.107239 -2.694194 0
M  V30 51 H -1.926996 -4.724696 -1.101528 0
M  V30 52 H -2.782650 -4.518697 -2.733982 0
M  V30 53 H -0.306517 -5.079032 -2.718168 0
M  V30 54 H -0.943899 -3.628485 -3.681619 0
M  V30 55 H 0.507191 -2.303436 -2.584161 0
M  V30 56 H 0.865537 -3.576829 -1.310342 0
M  V30 57 H -0.714350 -1.298057 -0.887308 0
M  V30 58 H -0.891596 -2.904989 -0.016114 0
M  V30 59 H 2.406833 2.062827 4.031282 0
M  V30 60 H 2.057740 0.413222 3.443505 0
M  V30 61 H 4.079970 0.358983 4.980799 0
M  V30 62 H 4.718942 1.764870 4.106218 0
M  V30 END ATOM
M  V30 BEGIN BOND
M  V30 1 2 1 2
M  V30 2 1 2 3
M  V30 3 1 2 4
M  V30 4 1 4 5
M  V30 5 1 5 6
M  V30 6 1 6 7
M  V30 7 1 7 8
M  V30 8 1 8 9
M  V30 9 2 9 10
M  V30 10 1 10 11
M  V30 11 2 11 12
M  V30 12 1 12 13
M  V30 13 1 13 14
M  V30 14 2 14 15
M  V30 15 1 15 16
M  V30 16 2 16 17
M  V30 17 1 17 18
M  V30 18 2 18 19
M  V30 19 1 19 20
M  V30 20 2 20 21
M  V30 21 1 21 22
M  V30 22 2 22 23
M  V30 23 1 23 24
M  V30 24 1 24 25
M  V30 25 1 25 26
M  V30 26 1 26 27
M  V30 27 1 27 28
M  V30 28 1 28 29
M  V30 29 1 24 30
M  V30 30 2 30 31
M  V30 31 1 12 32
M  V30 32 2 32 33
M  V30 33 1 8 34
M  V30 34 1 34 35
M  V30 35 1 35 5
M  V30 36 1 33 9
M  V30 37 1 31 14
M  V30 38 1 30 17
M  V30 39 1 23 18
M  V30 40 1 29 25
M  V30 41 1 3 36
M  V30 42 1 4 37
M  V30 43 1 4 38
M  V30 44 1 6 39
M  V30 45 1 6 40
M  V30 46 1 7 41
M  V30 47 1 7 42
M  V30 48 1 10 43
M  V30 49 1 11 44
M  V30 50 1 13 45
M  V30 51 1 16 46
M  V30 52 1 19 47
M  V30 53 1 20 48
M  V30 54 1 22 49
M  V30 55 1 25 50
M  V30 56 1 26 51
M  V30 57 1 26 52
M  V30 58 1 27 53
M  V30 59 1 27 54
M  V30 60 1 28 55
M  V30 61 1 28 56
M  V30 62 1 29 57
M  V30 63 1 29 58
M  V30 64 1 34 59
M  V30 65 1 34 60
M  V30 66 1 35 61
M  V30 67 1 35 62
M  V30 END BOND
M  V30 END CTAB
M  END
>  <Dataset>  (58) 
ChEMBL_Kinases

>  <Ligand_Instance>  (58) 
nan

>  <PDB_ID>  (58) 
nan

>  <Standardized_SMILES>  (58) 
O=C(O)CN1CCN(c2ccc(Nc3ncc4c5ccncc5n(C5CCCC5)c4n3)nn2)CC1

>  <Name>  (58) 
nan

>  <Pocket>  (58) 
nan

>  <ATP_Site>  (58) 
nan

>  <Peripheral>  (58) 
nan

>  <Num_H_Atoms_ProtBoundConf>  (58) 
nan

>  <Num_Resolved_Atoms>  (58) 
nan

>  <Num_Not_Resolved_Atoms>  (58) 
nan

$$$$
CHEMBL3692392
     RDKit          3D

  0  0  0  0  0  0  0  0  0  0999 V3000
M  V30 BEGIN CTAB
M  V30 COUNTS 47 51 0 0 0
M  V30 BEGIN ATOM
M  V30 1 N 2.761829 -4.486979 4.473813 0
M  V30 2 C 2.415653 -3.275857 3.806442 0
M  V30 3 O 3.002811 -2.238093 4.210703 0
M  V30 4 C 1.428449 -3.383772 2.741505 0
M  V30 5 C 0.759063 -4.488313 2.262129 0
M  V30 6 N -0.038808 -4.072185 1.282997 0
M  V30 7 C 0.137885 -2.717781 1.159424 0
M  V30 8 N 1.042793 -2.291807 2.058601 0
M  V30 9 C -0.568973 -1.851422 0.174981 0
M  V30 10 C -0.181048 -0.530470 0.297249 0
M  V30 11 C -0.769250 0.382640 -0.566528 0
M  V30 12 C -0.336953 1.752563 -0.406523 0
M  V30 13 C 0.026293 2.896927 -0.260957 0
M  V30 14 C 0.479778 4.276410 -0.064187 0
M  V30 15 O 0.171805 5.071224 -1.143445 0
M  V30 16 C 1.938015 4.305880 0.313729 0
M  V30 17 C 2.001851 4.117451 1.809519 0
M  V30 18 C 0.602346 4.281748 2.335126 0
M  V30 19 C -0.166584 4.888263 1.181281 0
M  V30 20 C -1.701831 0.007139 -1.511878 0
M  V30 21 C -2.071145 -1.323617 -1.611260 0
M  V30 22 C -1.516924 -2.250985 -0.781798 0
M  V30 23 C -1.993119 -3.671887 -0.978674 0
M  V30 24 C -0.745585 -4.565853 -0.993855 0
M  V30 25 C -0.942112 -4.923849 0.485653 0
M  V30 26 C -2.311979 -4.339200 0.344401 0
M  V30 27 H 2.839254 -5.397841 3.945918 0
M  V30 28 H 2.978769 -4.706924 5.462427 0
M  V30 29 H 0.871686 -5.490550 2.622364 0
M  V30 30 H 0.545417 -0.252186 1.036963 0
M  V30 31 H -0.585979 5.689973 -0.990210 0
M  V30 32 H 2.562088 3.623671 -0.261776 0
M  V30 33 H 2.304588 5.336952 0.113440 0
M  V30 34 H 2.660497 4.839760 2.327729 0
M  V30 35 H 2.400032 3.088026 1.995139 0
M  V30 36 H 0.225280 3.264897 2.566484 0
M  V30 37 H 0.518205 4.879354 3.249513 0
M  V30 38 H -0.118205 5.975470 1.155332 0
M  V30 39 H -1.207199 4.499536 1.247067 0
M  V30 40 H -2.131125 0.749090 -2.159870 0
M  V30 41 H -2.798679 -1.674233 -2.335336 0
M  V30 42 H -2.683351 -3.801771 -1.798375 0
M  V30 43 H -0.866876 -5.474913 -1.598439 0
M  V30 44 H 0.177242 -3.983370 -1.168226 0
M  V30 45 H -0.829938 -5.975721 0.718999 0
M  V30 46 H -3.101170 -5.105179 0.240753 0
M  V30 47 H -2.594710 -3.596486 1.133254 0
M  V30 END ATOM
M  V30 BEGIN BOND
M  V30 1 1 1 2
M  V30 2 2 2 3
M  V30 3 1 2 4
M  V30 4 2 4 5
M  V30 5 1 5 6
M  V30 6 1 6 7
M  V30 7 2 7 8
M  V30 8 1 7 9
M  V30 9 2 9 10
M  V30 10 1 10 11
M  V30 11 1 11 12
M  V30 12 3 12 13
M  V30 13 1 13 14
M  V30 14 1 14 15
M  V30 15 1 14 16
M  V30 16 1 16 17
M  V30 17 1 17 18
M  V30 18 1 18 19
M  V30 19 2 11 20
M  V30 20 1 20 21
M  V30 21 2 21 22
M  V30 22 1 22 23
M  V30 23 1 23 24
M  V30 24 1 24 25
M  V30 25 1 25 26
M  V30 26 1 8 4
M  V30 27 1 22 9
M  V30 28 1 26 23
M  V30 29 1 25 6
M  V30 30 1 19 14
M  V30 31 1 1 27
M  V30 32 1 1 28
M  V30 33 1 5 29
M  V30 34 1 10 30
M  V30 35 1 15 31
M  V30 36 1 16 32
M  V30 37 1 16 33
M  V30 38 1 17 34
M  V30 39 1 17 35
M  V30 40 1 18 36
M  V30 41 1 18 37
M  V30 42 1 19 38
M  V30 43 1 19 39
M  V30 44 1 20 40
M  V30 45 1 21 41
M  V30 46 1 23 42
M  V30 47 1 24 43
M  V30 48 1 24 44
M  V30 49 1 25 45
M  V30 50 1 26 46
M  V30 51 1 26 47
M  V30 END BOND
M  V30 END CTAB
M  END
>  <Dataset>  (59) 
ChEMBL_Kinases

>  <Ligand_Instance>  (59) 
nan

>  <PDB_ID>  (59) 
nan

>  <Standardized_SMILES>  (59) 
NC(=O)c1cn2c(n1)-c1cc(C#CC3(O)CCCC3)ccc1C1CC2C1

>  <Name>  (59) 
nan

>  <Pocket>  (59) 
nan

>  <ATP_Site>  (59) 
nan

>  <Peripheral>  (59) 
nan

>  <Num_H_Atoms_ProtBoundConf>  (59) 
nan

>  <Num_Resolved_Atoms>  (59) 
nan

>  <Num_Not_Resolved_Atoms>  (59) 
nan

$$$$
CHEMBL370808
     RDKit          3D

  0  0  0  0  0  0  0  0  0  0999 V3000
M  V30 BEGIN CTAB
M  V30 COUNTS 52 55 0 0 0
M  V30 BEGIN ATOM
M  V30 1 C 1.242471 0.487934 6.035409 0
M  V30 2 O 0.658298 0.229516 4.810120 0
M  V30 3 C 0.915879 0.762365 3.581877 0
M  V30 4 C 1.924768 1.718356 3.523429 0
M  V30 5 C 2.249662 2.299724 2.341026 0
M  V30 6 C 1.570435 1.936082 1.199574 0
M  V30 7 C 1.940001 2.594649 -0.031655 0
M  V30 8 C 2.245120 3.146072 -1.080822 0
M  V30 9 C 2.630216 3.789530 -2.336073 0
M  V30 10 C 1.770943 5.015247 -2.613203 0
M  V30 11 C 2.508017 2.838152 -3.492197 0
M  V30 12 N 4.010497 4.239959 -2.187209 0
M  V30 13 C 0.569916 0.978247 1.302609 0
M  V30 14 C 0.199768 0.362535 2.448465 0
M  V30 15 C -0.858029 -0.594994 2.597707 0
M  V30 16 N -1.385640 -0.866596 3.803110 0
M  V30 17 N -2.312118 -1.808696 3.735106 0
M  V30 18 C -2.460649 -2.230460 2.449894 0
M  V30 19 N -3.225864 -3.151837 1.814077 0
M  V30 20 C -3.100086 -3.332202 0.485156 0
M  V30 21 N -3.920527 -4.348873 -0.137774 0
M  V30 22 C -3.189698 -5.571665 -0.358757 0
M  V30 23 C -1.853951 -5.739474 -0.063268 0
M  V30 24 C -1.095343 -6.855507 -0.256641 0
M  V30 25 C -1.755301 -7.934943 -0.813738 0
M  V30 26 F -1.084167 -9.095213 -1.049977 0
M  V30 27 C -3.096151 -7.897312 -1.155318 0
M  V30 28 C -3.767561 -6.703187 -0.911420 0
M  V30 29 F -5.087817 -6.681758 -1.252776 0
M  V30 30 N -2.192990 -2.568720 -0.185265 0
M  V30 31 C -1.436366 -1.656227 0.444765 0
M  V30 32 C -1.544557 -1.455013 1.780093 0
M  V30 33 H 1.819759 -0.389307 6.424556 0
M  V30 34 H 1.881630 1.385850 6.099872 0
M  V30 35 H 0.461399 0.649424 6.843846 0
M  V30 36 H 2.505765 2.058594 4.360977 0
M  V30 37 H 3.046398 3.058851 2.269647 0
M  V30 38 H 0.868560 4.674123 -3.127962 0
M  V30 39 H 1.475451 5.432421 -1.631197 0
M  V30 40 H 2.333690 5.778226 -3.196346 0
M  V30 41 H 3.410268 2.874099 -4.150330 0
M  V30 42 H 2.444681 1.790446 -3.129541 0
M  V30 43 H 1.584072 2.993493 -4.097944 0
M  V30 44 H 4.090113 4.914941 -1.399146 0
M  V30 45 H 4.233016 4.748595 -3.081710 0
M  V30 46 H 0.123976 0.811171 0.361446 0
M  V30 47 H -1.351881 -0.606067 4.806419 0
M  V30 48 H -4.901277 -4.318135 -0.428401 0
M  V30 49 H -1.318142 -4.896062 0.379500 0
M  V30 50 H -0.044623 -6.897134 0.004567 0
M  V30 51 H -3.619561 -8.747279 -1.595753 0
M  V30 52 H -0.748129 -1.118484 -0.155135 0
M  V30 END ATOM
M  V30 BEGIN BOND
M  V30 1 1 1 2
M  V30 2 1 2 3
M  V30 3 2 3 4
M  V30 4 1 4 5
M  V30 5 2 5 6
M  V30 6 1 6 7
M  V30 7 3 7 8
M  V30 8 1 8 9
M  V30 9 1 9 10
M  V30 10 1 9 11
M  V30 11 1 9 12
M  V30 12 1 6 13
M  V30 13 2 13 14
M  V30 14 1 14 15
M  V30 15 1 15 16
M  V30 16 1 16 17
M  V30 17 2 17 18
M  V30 18 1 18 19
M  V30 19 2 19 20
M  V30 20 1 20 21
M  V30 21 1 21 22
M  V30 22 2 22 23
M  V30 23 1 23 24
M  V30 24 2 24 25
M  V30 25 1 25 26
M  V30 26 1 25 27
M  V30 27 2 27 28
M  V30 28 1 28 29
M  V30 29 1 20 30
M  V30 30 2 30 31
M  V30 31 1 31 32
M  V30 32 1 14 3
M  V30 33 2 32 15
M  V30 34 1 32 18
M  V30 35 1 28 22
M  V30 36 1 1 33
M  V30 37 1 1 34
M  V30 38 1 1 35
M  V30 39 1 4 36
M  V30 40 1 5 37
M  V30 41 1 10 38
M  V30 42 1 10 39
M  V30 43 1 10 40
M  V30 44 1 11 41
M  V30 45 1 11 42
M  V30 46 1 11 43
M  V30 47 1 12 44
M  V30 48 1 12 45
M  V30 49 1 13 46
M  V30 50 1 16 47
M  V30 51 1 21 48
M  V30 52 1 23 49
M  V30 53 1 24 50
M  V30 54 1 27 51
M  V30 55 1 31 52
M  V30 END BOND
M  V30 END CTAB
M  END
>  <Dataset>  (60) 
ChEMBL_Kinases

>  <Ligand_Instance>  (60) 
nan

>  <PDB_ID>  (60) 
nan

>  <Standardized_SMILES>  (60) 
COc1ccc(C#CC(C)(C)N)cc1-c1[nH]nc2nc(Nc3ccc(F)cc3F)ncc12

>  <Name>  (60) 
nan

>  <Pocket>  (60) 
nan

>  <ATP_Site>  (60) 
nan

>  <Peripheral>  (60) 
nan

>  <Num_H_Atoms_ProtBoundConf>  (60) 
nan

>  <Num_Resolved_Atoms>  (60) 
nan

>  <Num_Not_Resolved_Atoms>  (60) 
nan

$$$$
CHEMBL3692218
     RDKit          3D

  0  0  0  0  0  0  0  0  0  0999 V3000
M  V30 BEGIN CTAB
M  V30 COUNTS 57 61 0 0 0
M  V30 BEGIN ATOM
M  V30 1 C 2.558008 -3.417652 0.728437 0
M  V30 2 O 3.941848 -3.164372 0.924207 0
M  V30 3 C 4.494741 -1.927759 0.649835 0
M  V30 4 C 3.792466 -0.849686 0.175274 0
M  V30 5 C 4.296024 0.391756 -0.110042 0
M  V30 6 N 3.480362 1.447589 -0.599845 0
M  V30 7 C 2.102286 1.239403 -0.858350 0
M  V30 8 N 1.826240 0.889558 -2.148951 0
M  V30 9 C 0.589547 0.648208 -2.597770 0
M  V30 10 C -0.510749 0.738784 -1.768234 0
M  V30 11 C -0.212352 1.093429 -0.467000 0
M  V30 12 N 1.046927 1.344098 0.008124 0
M  V30 13 C -1.152393 1.265608 0.633730 0
M  V30 14 C -0.713901 1.984741 1.706935 0
M  V30 15 C -1.565306 2.187345 2.784128 0
M  V30 16 C -2.855955 1.667777 2.781651 0
M  V30 17 C -3.319002 0.939614 1.708696 0
M  V30 18 Cl -4.953283 0.361767 1.831218 0
M  V30 19 C -2.435872 0.769458 0.672629 0
M  V30 20 C -3.126622 -0.025747 -0.315819 0
M  V30 21 C -4.289283 -0.889416 -0.120796 0
M  V30 22 C -5.503108 -0.540520 -0.767501 0
M  V30 23 F -5.521195 0.628953 -1.489537 0
M  V30 24 C -6.664176 -1.318043 -0.705735 0
M  V30 25 C -6.600440 -2.499018 0.040305 0
M  V30 26 C -5.440016 -2.869167 0.681147 0
M  V30 27 C -4.276783 -2.092684 0.620889 0
M  V30 28 O -3.096740 -2.438009 1.254030 0
M  V30 29 C -2.939690 -3.608432 2.026726 0
M  V30 30 N -2.805787 -0.113757 -1.586317 0
M  V30 31 C -1.793763 0.448876 -2.415376 0
M  V30 32 C 5.642892 0.561726 0.104907 0
M  V30 33 C 6.447349 -0.464267 0.583541 0
M  V30 34 C 5.847445 -1.700890 0.848404 0
M  V30 35 C 6.742940 -2.759540 1.356607 0
M  V30 36 O 7.986970 -2.640758 1.567944 0
M  V30 37 O 6.191086 -4.001365 1.632703 0
M  V30 38 H 2.258453 -4.276154 1.384793 0
M  V30 39 H 1.978310 -2.524434 1.079911 0
M  V30 40 H 2.323895 -3.643116 -0.310124 0
M  V30 41 H 2.721226 -0.964815 -0.001621 0
M  V30 42 H 3.887331 2.389389 -0.774383 0
M  V30 43 H 0.425740 0.369466 -3.649183 0
M  V30 44 H 0.300368 2.359277 1.642207 0
M  V30 45 H -1.168917 2.758599 3.599597 0
M  V30 46 H -3.443741 1.880068 3.667868 0
M  V30 47 H -7.527985 -0.960737 -1.232873 0
M  V30 48 H -7.501761 -3.105354 0.089550 0
M  V30 49 H -5.420997 -3.787653 1.250700 0
M  V30 50 H -1.874081 -3.650237 2.331410 0
M  V30 51 H -3.621155 -3.688359 2.879690 0
M  V30 52 H -3.105624 -4.506674 1.363615 0
M  V30 53 H -2.113813 1.404878 -2.918919 0
M  V30 54 H -1.596479 -0.253283 -3.252832 0
M  V30 55 H 6.082264 1.546184 -0.113368 0
M  V30 56 H 7.521776 -0.310931 0.749407 0
M  V30 57 H 6.726491 -4.837474 1.534853 0
M  V30 END ATOM
M  V30 BEGIN BOND
M  V30 1 1 1 2
M  V30 2 1 2 3
M  V30 3 2 3 4
M  V30 4 1 4 5
M  V30 5 1 5 6
M  V30 6 1 6 7
M  V30 7 2 7 8
M  V30 8 1 8 9
M  V30 9 2 9 10
M  V30 10 1 10 11
M  V30 11 2 11 12
M  V30 12 1 11 13
M  V30 13 2 13 14
M  V30 14 1 14 15
M  V30 15 2 15 16
M  V30 16 1 16 17
M  V30 17 1 17 18
M  V30 18 2 17 19
M  V30 19 1 19 20
M  V30 20 1 20 21
M  V30 21 2 21 22
M  V30 22 1 22 23
M  V30 23 1 22 24
M  V30 24 2 24 25
M  V30 25 1 25 26
M  V30 26 2 26 27
M  V30 27 1 27 28
M  V30 28 1 28 29
M  V30 29 2 20 30
M  V30 30 1 30 31
M  V30 31 2 5 32
M  V30 32 1 32 33
M  V30 33 2 33 34
M  V30 34 1 34 35
M  V30 35 2 35 36
M  V30 36 1 35 37
M  V30 37 1 34 3
M  V30 38 1 12 7
M  V30 39 1 19 13
M  V30 40 1 27 21
M  V30 41 1 31 10
M  V30 42 1 1 38
M  V30 43 1 1 39
M  V30 44 1 1 40
M  V30 45 1 4 41
M  V30 46 1 6 42
M  V30 47 1 9 43
M  V30 48 1 14 44
M  V30 49 1 15 45
M  V30 50 1 16 46
M  V30 51 1 24 47
M  V30 52 1 25 48
M  V30 53 1 26 49
M  V30 54 1 29 50
M  V30 55 1 29 51
M  V30 56 1 29 52
M  V30 57 1 31 53
M  V30 58 1 31 54
M  V30 59 1 32 55
M  V30 60 1 33 56
M  V30 61 1 37 57
M  V30 END BOND
M  V30 END CTAB
M  END
>  <Dataset>  (61) 
ChEMBL_Kinases

>  <Ligand_Instance>  (61) 
nan

>  <PDB_ID>  (61) 
nan

>  <Standardized_SMILES>  (61) 
COc1cc(Nc2ncc3c(n2)-c2cccc(Cl)c2C(c2c(F)cccc2OC)=NC3)ccc1C(=O)O

>  <Name>  (61) 
nan

>  <Pocket>  (61) 
nan

>  <ATP_Site>  (61) 
nan

>  <Peripheral>  (61) 
nan

>  <Num_H_Atoms_ProtBoundConf>  (61) 
nan

>  <Num_Resolved_Atoms>  (61) 
nan

>  <Num_Not_Resolved_Atoms>  (61) 
nan

$$$$
CHEMBL2401983
     RDKit          3D

  0  0  0  0  0  0  0  0  0  0999 V3000
M  V30 BEGIN CTAB
M  V30 COUNTS 47 50 0 0 0
M  V30 BEGIN ATOM
M  V30 1 C -1.571912 2.670077 1.744651 0
M  V30 2 C -0.119819 2.676250 1.352440 0
M  V30 3 C 0.529573 3.877283 1.371811 0
M  V30 4 C 1.860700 3.955388 1.024024 0
M  V30 5 C 2.507279 2.793309 0.660020 0
M  V30 6 C 3.914050 2.881833 0.293460 0
M  V30 7 O 4.461608 4.015012 0.329032 0
M  V30 8 N 4.740080 1.820997 -0.102278 0
M  V30 9 C 6.134360 1.969269 -0.455696 0
M  V30 10 C 7.095886 0.881215 0.069732 0
M  V30 11 C 6.796363 1.013870 -1.372572 0
M  V30 12 C 1.793609 1.615197 0.661777 0
M  V30 13 C 0.486404 1.491843 0.995733 0
M  V30 14 N -0.282584 0.303446 1.010837 0
M  V30 15 C 0.142558 -0.992171 0.685183 0
M  V30 16 O 1.297924 -1.226201 0.334313 0
M  V30 17 C -0.769694 -2.137712 0.746026 0
M  V30 18 C -0.598095 -3.436143 0.488457 0
M  V30 19 C -1.626833 -4.292452 0.627795 0
M  V30 20 C -2.851475 -3.789906 1.041119 0
M  V30 21 C -4.215404 -4.254789 1.334894 0
M  V30 22 C -5.145722 -3.324253 1.738434 0
M  V30 23 C -6.433810 -3.720052 2.022907 0
M  V30 24 C -6.800897 -5.040932 1.907246 0
M  V30 25 C -5.907317 -6.011077 1.507209 0
M  V30 26 C -4.637499 -5.551677 1.238038 0
M  V30 27 Cl -3.498879 -6.773892 0.730578 0
M  V30 28 S -2.442930 -2.042827 1.214545 0
M  V30 29 H -2.158686 2.171248 0.922477 0
M  V30 30 H -1.645406 2.025069 2.637965 0
M  V30 31 H -1.965086 3.679386 1.852235 0
M  V30 32 H -0.006754 4.767910 1.661848 0
M  V30 33 H 2.367190 4.909664 1.041943 0
M  V30 34 H 4.322952 0.865209 -0.144397 0
M  V30 35 H 6.550156 2.985406 -0.403361 0
M  V30 36 H 8.049087 1.195747 0.507676 0
M  V30 37 H 6.588406 0.089029 0.688413 0
M  V30 38 H 7.640216 1.389862 -1.990634 0
M  V30 39 H 6.231006 0.202187 -1.877916 0
M  V30 40 H 2.360548 0.765512 0.370097 0
M  V30 41 H -1.286138 0.357385 1.291318 0
M  V30 42 H 0.390421 -3.750538 0.169639 0
M  V30 43 H -1.558086 -5.349605 0.437272 0
M  V30 44 H -4.965207 -2.260870 1.862699 0
M  V30 45 H -7.179272 -3.006299 2.341117 0
M  V30 46 H -7.813364 -5.310201 2.137625 0
M  V30 47 H -6.189422 -7.041277 1.415861 0
M  V30 END ATOM
M  V30 BEGIN BOND
M  V30 1 1 1 2
M  V30 2 2 2 3
M  V30 3 1 3 4
M  V30 4 2 4 5
M  V30 5 1 5 6
M  V30 6 2 6 7
M  V30 7 1 6 8
M  V30 8 1 8 9
M  V30 9 1 9 10
M  V30 10 1 10 11
M  V30 11 1 5 12
M  V30 12 2 12 13
M  V30 13 1 13 14
M  V30 14 1 14 15
M  V30 15 2 15 16
M  V30 16 1 15 17
M  V30 17 2 17 18
M  V30 18 1 18 19
M  V30 19 2 19 20
M  V30 20 1 20 21
M  V30 21 2 21 22
M  V30 22 1 22 23
M  V30 23 2 23 24
M  V30 24 1 24 25
M  V30 25 2 25 26
M  V30 26 1 26 27
M  V30 27 1 20 28
M  V30 28 1 13 2
M  V30 29 1 28 17
M  V30 30 1 11 9
M  V30 31 1 26 21
M  V30 32 1 1 29
M  V30 33 1 1 30
M  V30 34 1 1 31
M  V30 35 1 3 32
M  V30 36 1 4 33
M  V30 37 1 8 34
M  V30 38 1 9 35
M  V30 39 1 10 36
M  V30 40 1 10 37
M  V30 41 1 11 38
M  V30 42 1 11 39
M  V30 43 1 12 40
M  V30 44 1 14 41
M  V30 45 1 18 42
M  V30 46 1 19 43
M  V30 47 1 22 44
M  V30 48 1 23 45
M  V30 49 1 24 46
M  V30 50 1 25 47
M  V30 END BOND
M  V30 END CTAB
M  END
>  <Dataset>  (62) 
ChEMBL_Kinases

>  <Ligand_Instance>  (62) 
nan

>  <PDB_ID>  (62) 
nan

>  <Standardized_SMILES>  (62) 
Cc1ccc(C(=O)NC2CC2)cc1NC(=O)c1ccc(-c2ccccc2Cl)s1

>  <Name>  (62) 
nan

>  <Pocket>  (62) 
nan

>  <ATP_Site>  (62) 
nan

>  <Peripheral>  (62) 
nan

>  <Num_H_Atoms_ProtBoundConf>  (62) 
nan

>  <Num_Resolved_Atoms>  (62) 
nan

>  <Num_Not_Resolved_Atoms>  (62) 
nan

$$$$
CHEMBL2401984
     RDKit          3D

  0  0  0  0  0  0  0  0  0  0999 V3000
M  V30 BEGIN CTAB
M  V30 COUNTS 47 50 0 0 0
M  V30 BEGIN ATOM
M  V30 1 C -1.050578 2.873630 2.665850 0
M  V30 2 C 0.269253 2.822871 1.984900 0
M  V30 3 C 1.205856 3.841118 2.073295 0
M  V30 4 C 2.419507 3.703012 1.397558 0
M  V30 5 C 2.745723 2.598668 0.637282 0
M  V30 6 C 4.045963 2.565365 -0.024522 0
M  V30 7 O 4.791546 3.570859 0.151602 0
M  V30 8 N 4.463795 1.476887 -0.821656 0
M  V30 9 C 5.743927 1.379773 -1.508122 0
M  V30 10 C 6.451927 0.051577 -1.548343 0
M  V30 11 C 5.834850 0.669436 -2.806335 0
M  V30 12 C 1.822206 1.581968 0.543249 0
M  V30 13 C 0.635635 1.736310 1.214381 0
M  V30 14 N -0.337492 0.673877 1.120111 0
M  V30 15 C -0.161083 -0.279251 2.144732 0
M  V30 16 O 0.765767 -0.091808 2.959538 0
M  V30 17 C -1.141976 -1.424523 2.115107 0
M  V30 18 C -1.185491 -2.452683 2.973308 0
M  V30 19 C -2.117317 -3.418684 2.837929 0
M  V30 20 C -3.005197 -3.259716 1.759667 0
M  V30 21 C -4.144771 -4.100473 1.294580 0
M  V30 22 C -4.801389 -3.624865 0.182264 0
M  V30 23 C -5.865082 -4.435911 -0.228696 0
M  V30 24 C -6.185430 -5.592166 0.449640 0
M  V30 25 F -7.235526 -6.354802 0.010477 0
M  V30 26 C -5.458537 -5.991189 1.568875 0
M  V30 27 C -4.385095 -5.214729 2.020560 0
M  V30 28 S -2.457427 -1.738010 1.000406 0
M  V30 29 H -1.768674 2.237007 2.074140 0
M  V30 30 H -1.417562 3.921753 2.635066 0
M  V30 31 H -1.000507 2.547968 3.717534 0
M  V30 32 H 0.972088 4.718956 2.664988 0
M  V30 33 H 3.094526 4.563764 1.530065 0
M  V30 34 H 3.848513 0.646869 -0.967128 0
M  V30 35 H 6.405456 2.250943 -1.363170 0
M  V30 36 H 7.546270 -0.019588 -1.465965 0
M  V30 37 H 5.939871 -0.855837 -1.166572 0
M  V30 38 H 4.991852 0.165883 -3.284879 0
M  V30 39 H 6.614940 1.041955 -3.531246 0
M  V30 40 H 2.037135 0.718269 -0.031449 0
M  V30 41 H -1.082006 0.632869 0.369251 0
M  V30 42 H -0.460358 -2.525673 3.803945 0
M  V30 43 H -2.278632 -4.301089 3.443434 0
M  V30 44 H -4.516834 -2.710454 -0.321210 0
M  V30 45 H -6.430802 -4.126968 -1.098346 0
M  V30 46 H -5.750675 -6.906469 2.065090 0
M  V30 47 H -3.818079 -5.510971 2.880411 0
M  V30 END ATOM
M  V30 BEGIN BOND
M  V30 1 1 1 2
M  V30 2 2 2 3
M  V30 3 1 3 4
M  V30 4 2 4 5
M  V30 5 1 5 6
M  V30 6 2 6 7
M  V30 7 1 6 8
M  V30 8 1 8 9
M  V30 9 1 9 10
M  V30 10 1 10 11
M  V30 11 1 5 12
M  V30 12 2 12 13
M  V30 13 1 13 14
M  V30 14 1 14 15
M  V30 15 2 15 16
M  V30 16 1 15 17
M  V30 17 2 17 18
M  V30 18 1 18 19
M  V30 19 2 19 20
M  V30 20 1 20 21
M  V30 21 2 21 22
M  V30 22 1 22 23
M  V30 23 2 23 24
M  V30 24 1 24 25
M  V30 25 1 24 26
M  V30 26 2 26 27
M  V30 27 1 20 28
M  V30 28 1 13 2
M  V30 29 1 28 17
M  V30 30 1 11 9
M  V30 31 1 27 21
M  V30 32 1 1 29
M  V30 33 1 1 30
M  V30 34 1 1 31
M  V30 35 1 3 32
M  V30 36 1 4 33
M  V30 37 1 8 34
M  V30 38 1 9 35
M  V30 39 1 10 36
M  V30 40 1 10 37
M  V30 41 1 11 38
M  V30 42 1 11 39
M  V30 43 1 12 40
M  V30 44 1 14 41
M  V30 45 1 18 42
M  V30 46 1 19 43
M  V30 47 1 22 44
M  V30 48 1 23 45
M  V30 49 1 26 46
M  V30 50 1 27 47
M  V30 END BOND
M  V30 END CTAB
M  END
>  <Dataset>  (63) 
ChEMBL_Kinases

>  <Ligand_Instance>  (63) 
nan

>  <PDB_ID>  (63) 
nan

>  <Standardized_SMILES>  (63) 
Cc1ccc(C(=O)NC2CC2)cc1NC(=O)c1ccc(-c2ccc(F)cc2)s1

>  <Name>  (63) 
nan

>  <Pocket>  (63) 
nan

>  <ATP_Site>  (63) 
nan

>  <Peripheral>  (63) 
nan

>  <Num_H_Atoms_ProtBoundConf>  (63) 
nan

>  <Num_Resolved_Atoms>  (63) 
nan

>  <Num_Not_Resolved_Atoms>  (63) 
nan

$$$$
CHEMBL2401985
     RDKit          3D

  0  0  0  0  0  0  0  0  0  0999 V3000
M  V30 BEGIN CTAB
M  V30 COUNTS 50 53 0 0 0
M  V30 BEGIN ATOM
M  V30 1 C 0.665707 1.657949 -2.969656 0
M  V30 2 C 1.832859 1.006332 -2.284093 0
M  V30 3 C 2.572917 0.101907 -3.059114 0
M  V30 4 C 3.617308 -0.454110 -2.379342 0
M  V30 5 C 4.053874 -0.274911 -1.088569 0
M  V30 6 C 5.170222 -0.974621 -0.484917 0
M  V30 7 O 6.046233 -0.480368 0.253144 0
M  V30 8 N 5.267224 -2.381409 -0.772848 0
M  V30 9 C 6.372995 -3.085246 -0.183564 0
M  V30 10 C 6.829240 -4.320184 -0.887663 0
M  V30 11 C 6.047039 -4.428509 0.407137 0
M  V30 12 C 3.272080 0.640438 -0.364732 0
M  V30 13 C 2.193476 1.249219 -0.972843 0
M  V30 14 N 1.348660 2.145463 -0.212426 0
M  V30 15 C 0.328198 1.213068 0.165191 0
M  V30 16 O 0.579644 0.044108 -0.298275 0
M  V30 17 C -0.919698 1.326682 0.955287 0
M  V30 18 C -1.630312 2.247775 1.633621 0
M  V30 19 C -2.767306 1.864678 2.221982 0
M  V30 20 C -3.184122 0.576456 2.131518 0
M  V30 21 C -4.360844 -0.143972 2.658569 0
M  V30 22 C -5.279994 0.611303 3.348264 0
M  V30 23 C -6.391977 -0.004803 3.875504 0
M  V30 24 C -6.482970 -1.359468 3.657266 0
M  V30 25 C -7.737683 -1.911114 4.290342 0
M  V30 26 F -8.790060 -1.894147 3.423966 0
M  V30 27 F -7.461991 -3.208834 4.665497 0
M  V30 28 F -8.059274 -1.205792 5.459618 0
M  V30 29 C -5.591855 -2.152605 2.973963 0
M  V30 30 C -4.455653 -1.515008 2.437553 0
M  V30 31 S -1.840920 -0.154914 1.120233 0
M  V30 32 H 0.533180 2.712134 -2.645631 0
M  V30 33 H 0.827363 1.676309 -4.056133 0
M  V30 34 H -0.257932 1.061879 -2.709578 0
M  V30 35 H 2.385205 -0.162943 -4.093533 0
M  V30 36 H 4.252275 -1.179568 -2.920434 0
M  V30 37 H 4.603447 -2.946896 -1.369730 0
M  V30 38 H 7.128231 -2.528333 0.423050 0
M  V30 39 H 6.341750 -4.614351 -1.849955 0
M  V30 40 H 7.912817 -4.555193 -0.911127 0
M  V30 41 H 6.573444 -4.763590 1.311269 0
M  V30 42 H 5.012570 -4.822289 0.336595 0
M  V30 43 H 3.530155 0.855869 0.660050 0
M  V30 44 H 1.119801 3.078464 0.192598 0
M  V30 45 H -1.219950 3.248422 1.654603 0
M  V30 46 H -3.405165 2.537256 2.797071 0
M  V30 47 H -5.118257 1.681231 3.465510 0
M  V30 48 H -7.067075 0.641825 4.403342 0
M  V30 49 H -5.771265 -3.212619 2.864487 0
M  V30 50 H -3.722090 -2.084406 1.896196 0
M  V30 END ATOM
M  V30 BEGIN BOND
M  V30 1 1 1 2
M  V30 2 2 2 3
M  V30 3 1 3 4
M  V30 4 2 4 5
M  V30 5 1 5 6
M  V30 6 2 6 7
M  V30 7 1 6 8
M  V30 8 1 8 9
M  V30 9 1 9 10
M  V30 10 1 10 11
M  V30 11 1 5 12
M  V30 12 2 12 13
M  V30 13 1 13 14
M  V30 14 1 14 15
M  V30 15 2 15 16
M  V30 16 1 15 17
M  V30 17 2 17 18
M  V30 18 1 18 19
M  V30 19 2 19 20
M  V30 20 1 20 21
M  V30 21 2 21 22
M  V30 22 1 22 23
M  V30 23 2 23 24
M  V30 24 1 24 25
M  V30 25 1 25 26
M  V30 26 1 25 27
M  V30 27 1 25 28
M  V30 28 1 24 29
M  V30 29 2 29 30
M  V30 30 1 20 31
M  V30 31 1 13 2
M  V30 32 1 31 17
M  V30 33 1 11 9
M  V30 34 1 30 21
M  V30 35 1 1 32
M  V30 36 1 1 33
M  V30 37 1 1 34
M  V30 38 1 3 35
M  V30 39 1 4 36
M  V30 40 1 8 37
M  V30 41 1 9 38
M  V30 42 1 10 39
M  V30 43 1 10 40
M  V30 44 1 11 41
M  V30 45 1 11 42
M  V30 46 1 12 43
M  V30 47 1 14 44
M  V30 48 1 18 45
M  V30 49 1 19 46
M  V30 50 1 22 47
M  V30 51 1 23 48
M  V30 52 1 29 49
M  V30 53 1 30 50
M  V30 END BOND
M  V30 END CTAB
M  END
>  <Dataset>  (64) 
ChEMBL_Kinases

>  <Ligand_Instance>  (64) 
nan

>  <PDB_ID>  (64) 
nan

>  <Standardized_SMILES>  (64) 
Cc1ccc(C(=O)NC2CC2)cc1NC(=O)c1ccc(-c2ccc(C(F)(F)F)cc2)s1

>  <Name>  (64) 
nan

>  <Pocket>  (64) 
nan

>  <ATP_Site>  (64) 
nan

>  <Peripheral>  (64) 
nan

>  <Num_H_Atoms_ProtBoundConf>  (64) 
nan

>  <Num_Resolved_Atoms>  (64) 
nan

>  <Num_Not_Resolved_Atoms>  (64) 
nan

$$$$
CHEMBL2401986
     RDKit          3D

  0  0  0  0  0  0  0  0  0  0999 V3000
M  V30 BEGIN CTAB
M  V30 COUNTS 47 50 0 0 0
M  V30 BEGIN ATOM
M  V30 1 C 0.595847 -0.403472 4.988262 0
M  V30 2 C 1.039274 0.695598 4.119223 0
M  V30 3 C 1.274181 1.951381 4.647653 0
M  V30 4 C 1.693665 2.982661 3.813382 0
M  V30 5 C 1.890104 2.809146 2.459212 0
M  V30 6 C 2.331461 3.956128 1.670371 0
M  V30 7 O 2.503590 5.036010 2.282297 0
M  V30 8 N 2.558247 3.861412 0.270212 0
M  V30 9 C 2.993064 4.990369 -0.509829 0
M  V30 10 C 2.426031 5.250140 -1.860121 0
M  V30 11 C 3.851668 4.882386 -1.695074 0
M  V30 12 C 1.652903 1.558246 1.950806 0
M  V30 13 C 1.238261 0.524792 2.754695 0
M  V30 14 N 1.008240 -0.764567 2.147972 0
M  V30 15 C -0.322500 -0.857794 1.724599 0
M  V30 16 O -1.172505 0.033133 1.852416 0
M  V30 17 C -0.714942 -2.172338 1.060381 0
M  V30 18 C -0.017886 -3.255563 0.808211 0
M  V30 19 C -0.628844 -4.279179 0.202977 0
M  V30 20 C -1.921418 -4.138437 -0.111671 0
M  V30 21 C -2.885436 -5.087732 -0.788081 0
M  V30 22 C -4.171353 -4.631840 -0.969901 0
M  V30 23 C -5.011946 -5.557762 -1.600677 0
M  V30 24 C -4.561365 -6.801758 -1.990452 0
M  V30 25 C -3.242133 -7.187127 -1.769468 0
M  V30 26 C -2.377738 -6.300702 -1.148309 0
M  V30 27 S -2.300196 -2.542171 0.447343 0
M  V30 28 H 0.085107 -1.218128 4.435439 0
M  V30 29 H -0.188471 -0.001398 5.682751 0
M  V30 30 H 1.398692 -0.803797 5.642146 0
M  V30 31 H 1.126875 2.110734 5.705940 0
M  V30 32 H 1.852607 3.940140 4.329323 0
M  V30 33 H 2.414514 2.960419 -0.238935 0
M  V30 34 H 3.127696 5.928015 0.104821 0
M  V30 35 H 2.227053 6.299154 -2.184335 0
M  V30 36 H 1.655326 4.559073 -2.234884 0
M  V30 37 H 4.181863 3.866387 -2.003119 0
M  V30 38 H 4.621223 5.668760 -1.901592 0
M  V30 39 H 1.795487 1.391208 0.907687 0
M  V30 40 H 1.703933 -1.535504 2.025562 0
M  V30 41 H 1.048306 -3.269701 1.110353 0
M  V30 42 H -0.140981 -5.237488 -0.057345 0
M  V30 43 H -4.484112 -3.651664 -0.650624 0
M  V30 44 H -6.044454 -5.275112 -1.781525 0
M  V30 45 H -5.278021 -7.477437 -2.480609 0
M  V30 46 H -2.887840 -8.153511 -2.071147 0
M  V30 47 H -1.352993 -6.595382 -0.974739 0
M  V30 END ATOM
M  V30 BEGIN BOND
M  V30 1 1 1 2
M  V30 2 2 2 3
M  V30 3 1 3 4
M  V30 4 2 4 5
M  V30 5 1 5 6
M  V30 6 2 6 7
M  V30 7 1 6 8
M  V30 8 1 8 9
M  V30 9 1 9 10
M  V30 10 1 10 11
M  V30 11 1 5 12
M  V30 12 2 12 13
M  V30 13 1 13 14
M  V30 14 1 14 15
M  V30 15 2 15 16
M  V30 16 1 15 17
M  V30 17 2 17 18
M  V30 18 1 18 19
M  V30 19 2 19 20
M  V30 20 1 20 21
M  V30 21 2 21 22
M  V30 22 1 22 23
M  V30 23 2 23 24
M  V30 24 1 24 25
M  V30 25 2 25 26
M  V30 26 1 20 27
M  V30 27 1 13 2
M  V30 28 1 27 17
M  V30 29 1 11 9
M  V30 30 1 26 21
M  V30 31 1 1 28
M  V30 32 1 1 29
M  V30 33 1 1 30
M  V30 34 1 3 31
M  V30 35 1 4 32
M  V30 36 1 8 33
M  V30 37 1 9 34
M  V30 38 1 10 35
M  V30 39 1 10 36
M  V30 40 1 11 37
M  V30 41 1 11 38
M  V30 42 1 12 39
M  V30 43 1 14 40
M  V30 44 1 18 41
M  V30 45 1 19 42
M  V30 46 1 22 43
M  V30 47 1 23 44
M  V30 48 1 24 45
M  V30 49 1 25 46
M  V30 50 1 26 47
M  V30 END BOND
M  V30 END CTAB
M  END
>  <Dataset>  (65) 
ChEMBL_Kinases

>  <Ligand_Instance>  (65) 
nan

>  <PDB_ID>  (65) 
nan

>  <Standardized_SMILES>  (65) 
Cc1ccc(C(=O)NC2CC2)cc1NC(=O)c1ccc(-c2ccccc2)s1

>  <Name>  (65) 
nan

>  <Pocket>  (65) 
nan

>  <ATP_Site>  (65) 
nan

>  <Peripheral>  (65) 
nan

>  <Num_H_Atoms_ProtBoundConf>  (65) 
nan

>  <Num_Resolved_Atoms>  (65) 
nan

>  <Num_Not_Resolved_Atoms>  (65) 
nan

$$$$
CHEMBL2401982
     RDKit          3D

  0  0  0  0  0  0  0  0  0  0999 V3000
M  V30 BEGIN CTAB
M  V30 COUNTS 47 50 0 0 0
M  V30 BEGIN ATOM
M  V30 1 C -1.212436 2.987698 1.559157 0
M  V30 2 C 0.239354 2.792673 1.208095 0
M  V30 3 C 1.066705 3.894003 1.172841 0
M  V30 4 C 2.382703 3.774840 0.862484 0
M  V30 5 C 2.881088 2.532095 0.582175 0
M  V30 6 C 4.293735 2.412556 0.250124 0
M  V30 7 O 4.998913 3.457624 0.234750 0
M  V30 8 N 4.983110 1.228295 -0.065202 0
M  V30 9 C 6.391204 1.182891 -0.386131 0
M  V30 10 C 7.204108 0.002400 0.112897 0
M  V30 11 C 6.925377 0.176394 -1.331832 0
M  V30 12 C 2.029528 1.462550 0.627158 0
M  V30 13 C 0.691178 1.521964 0.934394 0
M  V30 14 N -0.213690 0.435132 0.989054 0
M  V30 15 C 0.029950 -0.921285 0.750840 0
M  V30 16 O 1.155192 -1.320591 0.445661 0
M  V30 17 C -1.022227 -1.927559 0.849210 0
M  V30 18 C -0.992342 -3.245922 0.663932 0
M  V30 19 C -2.132690 -3.959384 0.821685 0
M  V30 20 C -3.281943 -3.257101 1.173220 0
M  V30 21 C -4.670546 -3.700780 1.422750 0
M  V30 22 C -5.561154 -2.705261 1.755640 0
M  V30 23 C -6.857274 -3.155952 1.983655 0
M  V30 24 C -7.194792 -4.501116 1.877271 0
M  V30 25 C -6.217540 -5.426203 1.534582 0
M  V30 26 Cl -6.601593 -7.148588 1.387691 0
M  V30 27 C -4.899995 -5.034242 1.293860 0
M  V30 28 S -2.702967 -1.574551 1.272012 0
M  V30 29 H -1.811309 2.539786 0.716019 0
M  V30 30 H -1.415855 2.462876 2.514041 0
M  V30 31 H -1.413545 4.047849 1.695359 0
M  V30 32 H 0.624599 4.851486 1.401808 0
M  V30 33 H 2.973271 4.680664 0.853589 0
M  V30 34 H 4.442857 0.335663 -0.065963 0
M  V30 35 H 6.944421 2.148896 -0.378271 0
M  V30 36 H 8.198339 0.165270 0.535483 0
M  V30 37 H 6.597546 -0.727875 0.714978 0
M  V30 38 H 6.272354 -0.586505 -1.798468 0
M  V30 39 H 7.800577 0.433063 -1.961084 0
M  V30 40 H 2.475878 0.509300 0.397846 0
M  V30 41 H -1.208513 0.639083 1.238725 0
M  V30 42 H -0.058189 -3.720722 0.391183 0
M  V30 43 H -2.258425 -5.029065 0.704809 0
M  V30 44 H -5.305538 -1.673479 1.837950 0
M  V30 45 H -7.632358 -2.426340 2.254886 0
M  V30 46 H -8.211805 -4.827678 2.059811 0
M  V30 47 H -4.135178 -5.749123 1.026923 0
M  V30 END ATOM
M  V30 BEGIN BOND
M  V30 1 1 1 2
M  V30 2 2 2 3
M  V30 3 1 3 4
M  V30 4 2 4 5
M  V30 5 1 5 6
M  V30 6 2 6 7
M  V30 7 1 6 8
M  V30 8 1 8 9
M  V30 9 1 9 10
M  V30 10 1 10 11
M  V30 11 1 5 12
M  V30 12 2 12 13
M  V30 13 1 13 14
M  V30 14 1 14 15
M  V30 15 2 15 16
M  V30 16 1 15 17
M  V30 17 2 17 18
M  V30 18 1 18 19
M  V30 19 2 19 20
M  V30 20 1 20 21
M  V30 21 2 21 22
M  V30 22 1 22 23
M  V30 23 2 23 24
M  V30 24 1 24 25
M  V30 25 1 25 26
M  V30 26 2 25 27
M  V30 27 1 20 28
M  V30 28 1 13 2
M  V30 29 1 28 17
M  V30 30 1 11 9
M  V30 31 1 27 21
M  V30 32 1 1 29
M  V30 33 1 1 30
M  V30 34 1 1 31
M  V30 35 1 3 32
M  V30 36 1 4 33
M  V30 37 1 8 34
M  V30 38 1 9 35
M  V30 39 1 10 36
M  V30 40 1 10 37
M  V30 41 1 11 38
M  V30 42 1 11 39
M  V30 43 1 12 40
M  V30 44 1 14 41
M  V30 45 1 18 42
M  V30 46 1 19 43
M  V30 47 1 22 44
M  V30 48 1 23 45
M  V30 49 1 24 46
M  V30 50 1 27 47
M  V30 END BOND
M  V30 END CTAB
M  END
>  <Dataset>  (66) 
ChEMBL_Kinases

>  <Ligand_Instance>  (66) 
nan

>  <PDB_ID>  (66) 
nan

>  <Standardized_SMILES>  (66) 
Cc1ccc(C(=O)NC2CC2)cc1NC(=O)c1ccc(-c2cccc(Cl)c2)s1

>  <Name>  (66) 
nan

>  <Pocket>  (66) 
nan

>  <ATP_Site>  (66) 
nan

>  <Peripheral>  (66) 
nan

>  <Num_H_Atoms_ProtBoundConf>  (66) 
nan

>  <Num_Resolved_Atoms>  (66) 
nan

>  <Num_Not_Resolved_Atoms>  (66) 
nan

$$$$
CHEMBL3692206
     RDKit          3D

  0  0  0  0  0  0  0  0  0  0999 V3000
M  V30 BEGIN CTAB
M  V30 COUNTS 56 59 0 0 0
M  V30 BEGIN ATOM
M  V30 1 C 2.004636 -3.712859 3.961495 0
M  V30 2 C 1.305356 -2.385346 3.884552 0
M  V30 3 C 1.869469 -1.120805 4.004504 0
M  V30 4 C 0.839800 -0.188822 3.865860 0
M  V30 5 N 1.150327 1.196594 3.948972 0
M  V30 6 C 1.490102 1.854830 2.717501 0
M  V30 7 N 1.493655 1.135162 1.584149 0
M  V30 8 C 1.816295 1.757159 0.409769 0
M  V30 9 C 1.806961 0.876669 -0.750243 0
M  V30 10 C 0.531435 0.701627 -1.481531 0
M  V30 11 C 0.050521 2.001102 -2.009887 0
M  V30 12 O 0.332294 3.228327 -2.073145 0
M  V30 13 O -1.138459 1.770724 -2.670953 0
M  V30 14 C -0.578938 0.142715 -0.617209 0
M  V30 15 C -0.486851 -1.330808 -0.413784 0
M  V30 16 N -0.384683 -2.042103 -1.680747 0
M  V30 17 C -1.345528 -2.965437 -2.174163 0
M  V30 18 O -1.251544 -3.577752 -3.271163 0
M  V30 19 C -2.500870 -3.196495 -1.334428 0
M  V30 20 C -3.542898 -2.312051 -1.625212 0
M  V30 21 C -4.741610 -2.391271 -0.907916 0
M  V30 22 C -4.916609 -3.330078 0.086125 0
M  V30 23 C -3.873975 -4.190805 0.353838 0
M  V30 24 Cl -4.013477 -5.403402 1.591480 0
M  V30 25 C -2.693618 -4.130194 -0.335792 0
M  V30 26 Cl -1.306006 -5.172644 -0.078343 0
M  V30 27 C 0.844985 -1.645700 -2.329269 0
M  V30 28 C 0.697941 -0.193843 -2.704216 0
M  V30 29 C 2.117076 3.099982 0.496132 0
M  V30 30 C 2.113145 3.837955 1.658311 0
M  V30 31 C 1.785304 3.195101 2.832464 0
M  V30 32 F 1.758454 3.849031 4.016427 0
M  V30 33 N -0.301904 -0.908002 3.668696 0
M  V30 34 N -0.012225 -2.195202 3.682297 0
M  V30 35 H 3.098173 -3.532384 3.842552 0
M  V30 36 H 1.680958 -4.337065 3.094058 0
M  V30 37 H 1.795149 -4.233550 4.903938 0
M  V30 38 H 2.927035 -0.999477 4.173631 0
M  V30 39 H 1.115140 1.641616 4.867744 0
M  V30 40 H 2.637502 1.229254 -1.435221 0
M  V30 41 H 2.157073 -0.158695 -0.463785 0
M  V30 42 H -1.674256 2.495526 -3.126813 0
M  V30 43 H -0.629000 0.636038 0.351236 0
M  V30 44 H -1.550669 0.363583 -1.141974 0
M  V30 45 H -1.388705 -1.635954 0.153620 0
M  V30 46 H 0.383916 -1.605816 0.187408 0
M  V30 47 H -3.535033 -1.520977 -2.388143 0
M  V30 48 H -5.577853 -1.720958 -1.103421 0
M  V30 49 H -5.850399 -3.406828 0.659314 0
M  V30 50 H 1.052293 -2.193649 -3.257599 0
M  V30 51 H 1.723732 -1.751221 -1.666740 0
M  V30 52 H 1.561913 0.183499 -3.282242 0
M  V30 53 H -0.208622 -0.055212 -3.319833 0
M  V30 54 H 2.383680 3.589323 -0.409367 0
M  V30 55 H 2.361426 4.885974 1.633110 0
M  V30 56 H -0.758512 -2.932252 3.546801 0
M  V30 END ATOM
M  V30 BEGIN BOND
M  V30 1 1 1 2
M  V30 2 2 2 3
M  V30 3 1 3 4
M  V30 4 1 4 5
M  V30 5 1 5 6
M  V30 6 2 6 7
M  V30 7 1 7 8
M  V30 8 1 8 9
M  V30 9 1 9 10
M  V30 10 1 10 11
M  V30 11 2 11 12
M  V30 12 1 11 13
M  V30 13 1 10 14
M  V30 14 1 14 15
M  V30 15 1 15 16
M  V30 16 1 16 17
M  V30 17 2 17 18
M  V30 18 1 17 19
M  V30 19 2 19 20
M  V30 20 1 20 21
M  V30 21 2 21 22
M  V30 22 1 22 23
M  V30 23 1 23 24
M  V30 24 2 23 25
M  V30 25 1 25 26
M  V30 26 1 16 27
M  V30 27 1 27 28
M  V30 28 2 8 29
M  V30 29 1 29 30
M  V30 30 2 30 31
M  V30 31 1 31 32
M  V30 32 2 4 33
M  V30 33 1 33 34
M  V30 34 1 34 2
M  V30 35 1 31 6
M  V30 36 1 28 10
M  V30 37 1 25 19
M  V30 38 1 1 35
M  V30 39 1 1 36
M  V30 40 1 1 37
M  V30 41 1 3 38
M  V30 42 1 5 39
M  V30 43 1 9 40
M  V30 44 1 9 41
M  V30 45 1 13 42
M  V30 46 1 14 43
M  V30 47 1 14 44
M  V30 48 1 15 45
M  V30 49 1 15 46
M  V30 50 1 20 47
M  V30 51 1 21 48
M  V30 52 1 22 49
M  V30 53 1 27 50
M  V30 54 1 27 51
M  V30 55 1 28 52
M  V30 56 1 28 53
M  V30 57 1 29 54
M  V30 58 1 30 55
M  V30 59 1 34 56
M  V30 END BOND
M  V30 END CTAB
M  END
>  <Dataset>  (67) 
ChEMBL_Kinases

>  <Ligand_Instance>  (67) 
nan

>  <PDB_ID>  (67) 
nan

>  <Standardized_SMILES>  (67) 
Cc1cc(Nc2nc(CC3(C(=O)O)CCN(C(=O)c4cccc(Cl)c4Cl)CC3)ccc2F)n[nH]1

>  <Name>  (67) 
TAS-119

>  <Pocket>  (67) 
nan

>  <ATP_Site>  (67) 
nan

>  <Peripheral>  (67) 
nan

>  <Num_H_Atoms_ProtBoundConf>  (67) 
nan

>  <Num_Resolved_Atoms>  (67) 
nan

>  <Num_Not_Resolved_Atoms>  (67) 
nan

$$$$
CHEMBL2402083
     RDKit          3D

  0  0  0  0  0  0  0  0  0  0999 V3000
M  V30 BEGIN CTAB
M  V30 COUNTS 53 57 0 0 0
M  V30 BEGIN ATOM
M  V30 1 C -1.731899 -1.276450 3.651559 0
M  V30 2 C -0.377512 -1.938579 3.522573 0
M  V30 3 C -0.198839 -2.684422 2.225078 0 CFG=2
M  V30 4 C 1.202616 -3.277676 2.270654 0
M  V30 5 O 1.746609 -4.430843 2.352692 0
M  V30 6 N 2.175918 -2.229264 2.200553 0
M  V30 7 C 3.549255 -2.263700 2.738353 0
M  V30 8 C 1.895739 -0.984528 1.556329 0
M  V30 9 C 2.771886 0.072779 1.466749 0
M  V30 10 N 2.384820 1.198350 0.847471 0
M  V30 11 C 1.180726 1.408007 0.283530 0
M  V30 12 C 0.989174 2.702577 -0.348441 0
M  V30 13 C 2.048692 3.574598 -0.624005 0
M  V30 14 N 1.528603 4.687546 -1.189244 0
M  V30 15 N 0.216699 4.563599 -1.281559 0
M  V30 16 C -0.141851 3.366395 -0.776778 0
M  V30 17 C -1.432332 2.736721 -0.602066 0
M  V30 18 N -1.962180 1.731247 -0.193597 0
M  V30 19 C -3.272897 1.520778 -0.206876 0
M  V30 20 C -4.124073 2.558584 -0.743589 0
M  V30 21 S -2.897840 3.782426 -1.192910 0
M  V30 22 N 0.312617 0.385853 0.359249 0
M  V30 23 C 0.661938 -0.777425 0.977230 0
M  V30 24 N -0.272991 -1.839972 1.049459 0
M  V30 25 C -1.262828 -2.114030 0.030970 0
M  V30 26 C -1.358097 -3.586235 -0.293319 0
M  V30 27 C -1.058686 -3.954729 -1.713963 0
M  V30 28 O 0.107544 -3.431376 -2.228980 0
M  V30 29 C 0.376421 -2.146008 -1.783845 0
M  V30 30 C -0.917214 -1.519259 -1.318086 0
M  V30 31 H -1.922371 -0.597556 2.795383 0
M  V30 32 H -2.551479 -2.015853 3.766374 0
M  V30 33 H -1.698279 -0.691142 4.592908 0
M  V30 34 H -0.226461 -2.641949 4.356053 0
M  V30 35 H 0.367732 -1.094988 3.609008 0
M  V30 36 H -0.868166 -3.532187 2.252705 0
M  V30 37 H 3.650503 -1.388351 3.417611 0
M  V30 38 H 4.311868 -2.179200 1.960322 0
M  V30 39 H 3.668335 -3.161237 3.382548 0
M  V30 40 H 3.740586 -0.031111 1.894530 0
M  V30 41 H 3.122263 3.476005 -0.456740 0
M  V30 42 H -0.443754 5.265836 -1.676461 0
M  V30 43 H -3.473710 0.528110 0.222917 0
M  V30 44 H -5.272800 2.111735 -0.637247 0
M  V30 45 H -2.222717 -1.694905 0.366692 0
M  V30 46 H -2.411275 -3.883118 -0.108342 0
M  V30 47 H -0.751507 -4.241324 0.348324 0
M  V30 48 H -1.945789 -3.859638 -2.405379 0
M  V30 49 H -0.890996 -5.080003 -1.740372 0
M  V30 50 H 0.867097 -1.525334 -2.546693 0
M  V30 51 H 1.082499 -2.256531 -0.937516 0
M  V30 52 H -1.730678 -1.901229 -2.007278 0
M  V30 53 H -0.954852 -0.454976 -1.416938 0
M  V30 END ATOM
M  V30 BEGIN BOND
M  V30 1 1 1 2
M  V30 2 1 2 3
M  V30 3 1 3 4
M  V30 4 2 4 5
M  V30 5 1 4 6
M  V30 6 1 6 7
M  V30 7 1 6 8
M  V30 8 2 8 9
M  V30 9 1 9 10
M  V30 10 2 10 11
M  V30 11 1 11 12
M  V30 12 1 12 13
M  V30 13 2 13 14
M  V30 14 1 14 15
M  V30 15 1 15 16
M  V30 16 1 16 17
M  V30 17 2 17 18
M  V30 18 1 18 19
M  V30 19 2 19 20
M  V30 20 1 20 21
M  V30 21 1 11 22
M  V30 22 2 22 23
M  V30 23 1 23 24
M  V30 24 1 24 25
M  V30 25 1 25 26
M  V30 26 1 26 27
M  V30 27 1 27 28
M  V30 28 1 28 29
M  V30 29 1 29 30
M  V30 30 1 24 3
M  V30 31 1 30 25
M  V30 32 1 23 8
M  V30 33 2 16 12
M  V30 34 1 21 17
M  V30 35 1 1 31
M  V30 36 1 1 32
M  V30 37 1 1 33
M  V30 38 1 2 34
M  V30 39 1 2 35
M  V30 40 1 3 36 CFG=3
M  V30 41 1 7 37
M  V30 42 1 7 38
M  V30 43 1 7 39
M  V30 44 1 9 40
M  V30 45 1 13 41
M  V30 46 1 15 42
M  V30 47 1 19 43
M  V30 48 1 20 44
M  V30 49 1 25 45
M  V30 50 1 26 46
M  V30 51 1 26 47
M  V30 52 1 27 48
M  V30 53 1 27 49
M  V30 54 1 29 50
M  V30 55 1 29 51
M  V30 56 1 30 52
M  V30 57 1 30 53
M  V30 END BOND
M  V30 END CTAB
M  END
>  <Dataset>  (68) 
ChEMBL_Kinases

>  <Ligand_Instance>  (68) 
nan

>  <PDB_ID>  (68) 
nan

>  <Standardized_SMILES>  (68) 
CC[C@@H]1C(=O)N(C)c2cnc(-c3cn[nH]c3-c3nccs3)nc2N1C1CCOCC1

>  <Name>  (68) 
nan

>  <Pocket>  (68) 
nan

>  <ATP_Site>  (68) 
nan

>  <Peripheral>  (68) 
nan

>  <Num_H_Atoms_ProtBoundConf>  (68) 
nan

>  <Num_Resolved_Atoms>  (68) 
nan

>  <Num_Not_Resolved_Atoms>  (68) 
nan

$$$$
CHEMBL3691986
     RDKit          3D

  0  0  0  0  0  0  0  0  0  0999 V3000
M  V30 BEGIN CTAB
M  V30 COUNTS 72 75 0 0 0
M  V30 BEGIN ATOM
M  V30 1 C 0.662156 -0.923325 8.186599 0
M  V30 2 C 1.975416 -1.415650 7.612806 0
M  V30 3 O 2.056376 -0.981544 6.291034 0
M  V30 4 C 3.225489 -1.373709 5.655694 0
M  V30 5 C 3.265733 -0.887270 4.248353 0
M  V30 6 C 3.812093 0.343888 3.961228 0
M  V30 7 C 3.870699 0.831467 2.673539 0
M  V30 8 F 4.380091 2.017886 2.268945 0
M  V30 9 C 3.373943 0.079563 1.635884 0
M  V30 10 C 3.317036 0.365561 0.208539 0
M  V30 11 N 2.246796 0.974798 -0.290252 0
M  V30 12 C 2.169890 1.250326 -1.599368 0
M  V30 13 C 1.059168 1.901722 -2.246058 0
M  V30 14 O 0.973108 2.170371 -3.483494 0
M  V30 15 N -0.061740 2.287834 -1.426818 0
M  V30 16 C -1.293736 2.930040 -1.719026 0
M  V30 17 C -1.526000 4.285905 -1.720023 0
M  V30 18 N -2.724473 4.819754 -2.004595 0
M  V30 19 C -3.734342 4.009141 -2.298911 0
M  V30 20 C -3.560265 2.626178 -2.313870 0
M  V30 21 C -2.316013 2.055922 -2.019053 0
M  V30 22 N -2.322012 0.635340 -2.081072 0
M  V30 23 C -1.573235 -0.239718 -2.913543 0
M  V30 24 C -2.302978 -1.509834 -3.274507 0 CFG=1
M  V30 25 N -1.293691 -2.378446 -3.885265 0
M  V30 26 C -3.015278 -2.132076 -2.127735 0 CFG=1
M  V30 27 N -2.580895 -3.505915 -1.841010 0
M  V30 28 C -3.564003 -4.530206 -1.868649 0
M  V30 29 O -4.795367 -4.306390 -2.129871 0
M  V30 30 O -3.333795 -5.896917 -1.620491 0
M  V30 31 C -4.380579 -6.847336 -1.670694 0
M  V30 32 C -2.855460 -1.357584 -0.837056 0 CFG=1
M  V30 33 C -1.496452 -1.491774 -0.237930 0
M  V30 34 C -3.236695 0.067378 -1.144841 0
M  V30 35 C 3.215785 0.893242 -2.419063 0
M  V30 36 C 4.323420 0.261258 -1.894934 0
M  V30 37 C 4.397059 -0.021680 -0.537775 0
M  V30 38 F 5.510634 -0.650624 -0.051069 0
M  V30 39 C 2.817786 -1.170372 1.917103 0
M  V30 40 F 2.281570 -2.043908 1.005782 0
M  V30 41 C 2.757706 -1.663775 3.214660 0
M  V30 42 H 0.848637 0.048837 8.703713 0
M  V30 43 H -0.097875 -0.709489 7.383859 0
M  V30 44 H 0.192930 -1.659732 8.859023 0
M  V30 45 H 2.787560 -1.004456 8.240952 0
M  V30 46 H 1.974746 -2.526339 7.605408 0
M  V30 47 H 3.314560 -2.498002 5.645880 0
M  V30 48 H 4.151672 -1.026724 6.146621 0
M  V30 49 H 4.226298 0.999812 4.719737 0
M  V30 50 H -0.040255 2.089948 -0.403207 0
M  V30 51 H -0.668368 4.923093 -1.472305 0
M  V30 52 H -4.707585 4.430431 -2.530147 0
M  V30 53 H -4.437213 2.042800 -2.563624 0
M  V30 54 H -1.334592 0.290642 -3.877269 0
M  V30 55 H -0.591784 -0.455322 -2.447618 0
M  V30 56 H -3.031944 -1.311376 -4.086752 0
M  V30 57 H -1.707665 -3.313238 -4.157022 0
M  V30 58 H -1.067047 -1.922392 -4.798826 0
M  V30 59 H -4.112825 -2.205270 -2.334444 0
M  V30 60 H -1.670599 -3.914281 -1.612481 0
M  V30 61 H -4.233562 -7.606803 -2.462809 0
M  V30 62 H -4.346463 -7.358544 -0.665162 0
M  V30 63 H -5.363119 -6.338169 -1.725106 0
M  V30 64 H -3.579945 -1.815106 -0.111589 0
M  V30 65 H -1.010365 -0.504802 -0.092143 0
M  V30 66 H -0.902802 -2.202579 -0.839073 0
M  V30 67 H -1.519834 -1.942019 0.788788 0
M  V30 68 H -4.288869 0.013043 -1.551621 0
M  V30 69 H -3.331875 0.625348 -0.194242 0
M  V30 70 H 3.209241 1.090948 -3.483674 0
M  V30 71 H 5.153246 -0.025137 -2.530281 0
M  V30 72 H 2.343021 -2.612776 3.492859 0
M  V30 END ATOM
M  V30 BEGIN BOND
M  V30 1 1 1 2
M  V30 2 1 2 3
M  V30 3 1 3 4
M  V30 4 1 4 5
M  V30 5 2 5 6
M  V30 6 1 6 7
M  V30 7 1 7 8
M  V30 8 2 7 9
M  V30 9 1 9 10
M  V30 10 2 10 11
M  V30 11 1 11 12
M  V30 12 1 12 13
M  V30 13 2 13 14
M  V30 14 1 13 15
M  V30 15 1 15 16
M  V30 16 2 16 17
M  V30 17 1 17 18
M  V30 18 2 18 19
M  V30 19 1 19 20
M  V30 20 2 20 21
M  V30 21 1 21 22
M  V30 22 1 22 23
M  V30 23 1 23 24
M  V30 24 1 24 25
M  V30 25 1 24 26
M  V30 26 1 26 27
M  V30 27 1 27 28
M  V30 28 2 28 29
M  V30 29 1 28 30
M  V30 30 1 30 31
M  V30 31 1 26 32
M  V30 32 1 32 33
M  V30 33 1 32 34
M  V30 34 2 12 35
M  V30 35 1 35 36
M  V30 36 2 36 37
M  V30 37 1 37 38
M  V30 38 1 9 39
M  V30 39 1 39 40
M  V30 40 2 39 41
M  V30 41 1 41 5
M  V30 42 1 37 10
M  V30 43 1 21 16
M  V30 44 1 34 22
M  V30 45 1 1 42
M  V30 46 1 1 43
M  V30 47 1 1 44
M  V30 48 1 2 45
M  V30 49 1 2 46
M  V30 50 1 4 47
M  V30 51 1 4 48
M  V30 52 1 6 49
M  V30 53 1 15 50
M  V30 54 1 17 51
M  V30 55 1 19 52
M  V30 56 1 20 53
M  V30 57 1 23 54
M  V30 58 1 23 55
M  V30 59 1 24 56 CFG=3
M  V30 60 1 25 57
M  V30 61 1 25 58
M  V30 62 1 26 59 CFG=3
M  V30 63 1 27 60
M  V30 64 1 31 61
M  V30 65 1 31 62
M  V30 66 1 31 63
M  V30 67 1 32 64 CFG=1
M  V30 68 1 33 65
M  V30 69 1 33 66
M  V30 70 1 33 67
M  V30 71 1 34 68
M  V30 72 1 34 69
M  V30 73 1 35 70
M  V30 74 1 36 71
M  V30 75 1 41 72
M  V30 END BOND
M  V30 END CTAB
M  END
>  <Dataset>  (69) 
ChEMBL_Kinases

>  <Ligand_Instance>  (69) 
nan

>  <PDB_ID>  (69) 
nan

>  <Standardized_SMILES>  (69) 
CCOCc1cc(F)c(-c2nc(C(=O)Nc3cnccc3N3C[C@@H](N)[C@@H](NC(=O)OC)[C@@H](C)C3)ccc2F)c(F)c1

>  <Name>  (69) 
nan

>  <Pocket>  (69) 
nan

>  <ATP_Site>  (69) 
nan

>  <Peripheral>  (69) 
nan

>  <Num_H_Atoms_ProtBoundConf>  (69) 
nan

>  <Num_Resolved_Atoms>  (69) 
nan

>  <Num_Not_Resolved_Atoms>  (69) 
nan

$$$$
CHEMBL2402084
     RDKit          3D

  0  0  0  0  0  0  0  0  0  0999 V3000
M  V30 BEGIN CTAB
M  V30 COUNTS 50 54 0 0 0
M  V30 BEGIN ATOM
M  V30 1 C -0.708461 -0.340590 3.793243 0
M  V30 2 C 0.762113 -0.555194 3.660351 0
M  V30 3 C 1.172275 -1.787539 2.922509 0 CFG=2
M  V30 4 C 2.694994 -1.799984 2.914173 0
M  V30 5 O 3.627403 -2.535346 3.392098 0
M  V30 6 N 3.232272 -0.682416 2.166494 0
M  V30 7 C 4.536244 -0.034271 2.375074 0
M  V30 8 C 2.478768 -0.105544 1.097108 0
M  V30 9 C 2.920533 0.955987 0.347392 0
M  V30 10 N 2.134125 1.418350 -0.631445 0
M  V30 11 C 0.919972 0.932090 -0.960778 0
M  V30 12 C 0.325787 1.611257 -2.093114 0
M  V30 13 C 1.012388 2.419260 -2.984474 0
M  V30 14 N 0.142443 2.891404 -3.896584 0
M  V30 15 N -1.065298 2.451478 -3.665906 0
M  V30 16 C -0.920322 1.704627 -2.599224 0
M  V30 17 C -2.136312 1.062482 -2.025589 0
M  V30 18 N -3.168307 0.880370 -2.050213 0
M  V30 19 C -4.373514 0.580891 -1.941152 0
M  V30 20 C -4.190847 -0.133417 -0.751392 0
M  V30 21 S -2.332415 0.045821 -0.471001 0
M  V30 22 N 0.489148 -0.102873 -0.231104 0
M  V30 23 C 1.239199 -0.605680 0.760251 0
M  V30 24 N 0.782070 -1.702433 1.517375 0
M  V30 25 C -0.012216 -2.772444 1.023298 0 CFG=1
M  V30 26 C -1.414952 -2.850799 1.581200 0
M  V30 27 C -2.135774 -3.606053 0.502305 0
M  V30 28 O -1.289345 -3.801670 -0.548564 0
M  V30 29 C -0.208963 -2.926951 -0.425197 0
M  V30 30 H -1.273390 -1.220959 4.132476 0
M  V30 31 H -1.091962 0.098973 2.851088 0
M  V30 32 H -0.850543 0.429436 4.584332 0
M  V30 33 H 1.174260 0.335675 3.114162 0
M  V30 34 H 1.214300 -0.530993 4.684108 0
M  V30 35 H 0.851743 -2.719663 3.406156 0
M  V30 36 H 5.085319 -0.605625 3.157590 0
M  V30 37 H 4.418045 1.008352 2.754321 0
M  V30 38 H 5.049448 -0.058937 1.393208 0
M  V30 39 H 3.883243 1.396981 0.556852 0
M  V30 40 H 2.077856 2.691000 -3.027125 0
M  V30 41 H -1.901240 2.683659 -4.240886 0
M  V30 42 H -5.425814 0.481776 -2.103583 0
M  V30 43 H -4.654420 -0.805003 0.174164 0
M  V30 44 H 0.444704 -3.774718 1.371093 0
M  V30 45 H -1.439404 -3.393662 2.554085 0
M  V30 46 H -1.921850 -1.899254 1.708191 0
M  V30 47 H -3.126784 -3.165358 0.248667 0
M  V30 48 H -2.401673 -4.617545 0.929617 0
M  V30 49 H -0.400825 -2.060231 -1.040638 0
M  V30 50 H 0.677500 -3.526154 -0.815745 0
M  V30 END ATOM
M  V30 BEGIN BOND
M  V30 1 1 1 2
M  V30 2 1 2 3
M  V30 3 1 3 4
M  V30 4 2 4 5
M  V30 5 1 4 6
M  V30 6 1 6 7
M  V30 7 1 6 8
M  V30 8 2 8 9
M  V30 9 1 9 10
M  V30 10 2 10 11
M  V30 11 1 11 12
M  V30 12 1 12 13
M  V30 13 2 13 14
M  V30 14 1 14 15
M  V30 15 1 15 16
M  V30 16 1 16 17
M  V30 17 2 17 18
M  V30 18 1 18 19
M  V30 19 2 19 20
M  V30 20 1 20 21
M  V30 21 1 11 22
M  V30 22 2 22 23
M  V30 23 1 23 24
M  V30 24 1 24 25
M  V30 25 1 25 26
M  V30 26 1 26 27
M  V30 27 1 27 28
M  V30 28 1 28 29
M  V30 29 1 24 3
M  V30 30 1 29 25
M  V30 31 1 23 8
M  V30 32 2 16 12
M  V30 33 1 21 17
M  V30 34 1 1 30
M  V30 35 1 1 31
M  V30 36 1 1 32
M  V30 37 1 2 33
M  V30 38 1 2 34
M  V30 39 1 3 35 CFG=1
M  V30 40 1 7 36
M  V30 41 1 7 37
M  V30 42 1 7 38
M  V30 43 1 9 39
M  V30 44 1 13 40
M  V30 45 1 15 41
M  V30 46 1 19 42
M  V30 47 1 20 43
M  V30 48 1 25 44 CFG=1
M  V30 49 1 26 45
M  V30 50 1 26 46
M  V30 51 1 27 47
M  V30 52 1 27 48
M  V30 53 1 29 49
M  V30 54 1 29 50
M  V30 END BOND
M  V30 END CTAB
M  END
>  <Dataset>  (70) 
ChEMBL_Kinases

>  <Ligand_Instance>  (70) 
nan

>  <PDB_ID>  (70) 
nan

>  <Standardized_SMILES>  (70) 
CC[C@@H]1C(=O)N(C)c2cnc(-c3cn[nH]c3-c3nccs3)nc2N1[C@H]1CCOC1

>  <Name>  (70) 
nan

>  <Pocket>  (70) 
nan

>  <ATP_Site>  (70) 
nan

>  <Peripheral>  (70) 
nan

>  <Num_H_Atoms_ProtBoundConf>  (70) 
nan

>  <Num_Resolved_Atoms>  (70) 
nan

>  <Num_Not_Resolved_Atoms>  (70) 
nan

$$$$
CHEMBL2402085
     RDKit          3D

  0  0  0  0  0  0  0  0  0  0999 V3000
M  V30 BEGIN CTAB
M  V30 COUNTS 46 50 0 0 0
M  V30 BEGIN ATOM
M  V30 1 C -0.520079 -1.897552 3.722691 0
M  V30 2 C 0.848133 -2.296332 3.236760 0
M  V30 3 C 0.847019 -2.948063 1.878507 0 CFG=2
M  V30 4 C 2.293381 -3.270999 1.570870 0
M  V30 5 O 2.988922 -4.338408 1.453127 0
M  V30 6 N 3.073003 -2.072170 1.359672 0
M  V30 7 C 4.523019 -1.945553 1.577175 0
M  V30 8 C 2.449975 -0.883643 0.899325 0
M  V30 9 C 3.131301 0.284366 0.686329 0
M  V30 10 N 2.464297 1.363539 0.254491 0
M  V30 11 C 1.144904 1.419554 -0.000364 0
M  V30 12 C 0.650405 2.701675 -0.473360 0
M  V30 13 C 1.474997 3.755569 -0.811665 0
M  V30 14 N 0.723601 4.796891 -1.198200 0
M  V30 15 N -0.533026 4.478413 -1.128996 0
M  V30 16 C -0.605114 3.210755 -0.690489 0
M  V30 17 C -1.835217 2.437200 -0.441855 0
M  V30 18 N -2.010051 1.088718 0.027419 0
M  V30 19 C -3.315911 0.841097 0.092259 0
M  V30 20 C -4.534958 1.713192 -0.233547 0
M  V30 21 S -3.423323 3.168165 -0.724421 0
M  V30 22 N 0.491456 0.268682 0.211710 0
M  V30 23 C 1.097360 -0.849214 0.642746 0
M  V30 24 N 0.370594 -2.043293 0.854129 0
M  V30 25 C -0.770440 -2.372464 0.077602 0
M  V30 26 C -1.357083 -1.882766 -1.066272 0
M  V30 27 N -2.456808 -2.566807 -1.395780 0
M  V30 28 N -2.637019 -3.510026 -0.508265 0
M  V30 29 C -1.642623 -3.423068 0.391850 0
M  V30 30 H -1.011266 -2.738279 4.254731 0
M  V30 31 H -1.117497 -1.479580 2.910860 0
M  V30 32 H -0.366677 -1.112019 4.490747 0
M  V30 33 H 1.406290 -1.324797 3.096334 0
M  V30 34 H 1.422403 -2.851434 3.975949 0
M  V30 35 H 0.271979 -3.895942 1.864035 0
M  V30 36 H 4.886326 -2.889646 2.064808 0
M  V30 37 H 5.025792 -1.827481 0.597497 0
M  V30 38 H 4.661066 -1.076143 2.239523 0
M  V30 39 H 4.178519 0.347503 0.858210 0
M  V30 40 H 2.572162 3.860145 -0.811354 0
M  V30 41 H -1.342797 5.086125 -1.367183 0
M  V30 42 H -3.272560 -0.203940 0.458945 0
M  V30 43 H -5.375858 1.149946 -0.050395 0
M  V30 44 H -0.901781 -1.024427 -1.581355 0
M  V30 45 H -3.437411 -4.153960 -0.582594 0
M  V30 46 H -1.641108 -4.140001 1.205695 0
M  V30 END ATOM
M  V30 BEGIN BOND
M  V30 1 1 1 2
M  V30 2 1 2 3
M  V30 3 1 3 4
M  V30 4 2 4 5
M  V30 5 1 4 6
M  V30 6 1 6 7
M  V30 7 1 6 8
M  V30 8 2 8 9
M  V30 9 1 9 10
M  V30 10 2 10 11
M  V30 11 1 11 12
M  V30 12 1 12 13
M  V30 13 2 13 14
M  V30 14 1 14 15
M  V30 15 1 15 16
M  V30 16 1 16 17
M  V30 17 2 17 18
M  V30 18 1 18 19
M  V30 19 2 19 20
M  V30 20 1 20 21
M  V30 21 1 11 22
M  V30 22 2 22 23
M  V30 23 1 23 24
M  V30 24 1 24 25
M  V30 25 1 25 26
M  V30 26 2 26 27
M  V30 27 1 27 28
M  V30 28 1 28 29
M  V30 29 1 24 3
M  V30 30 2 29 25
M  V30 31 1 23 8
M  V30 32 2 16 12
M  V30 33 1 21 17
M  V30 34 1 1 30
M  V30 35 1 1 31
M  V30 36 1 1 32
M  V30 37 1 2 33
M  V30 38 1 2 34
M  V30 39 1 3 35 CFG=1
M  V30 40 1 7 36
M  V30 41 1 7 37
M  V30 42 1 7 38
M  V30 43 1 9 39
M  V30 44 1 13 40
M  V30 45 1 15 41
M  V30 46 1 19 42
M  V30 47 1 20 43
M  V30 48 1 26 44
M  V30 49 1 28 45
M  V30 50 1 29 46
M  V30 END BOND
M  V30 END CTAB
M  END
>  <Dataset>  (71) 
ChEMBL_Kinases

>  <Ligand_Instance>  (71) 
nan

>  <PDB_ID>  (71) 
nan

>  <Standardized_SMILES>  (71) 
CC[C@@H]1C(=O)N(C)c2cnc(-c3cn[nH]c3-c3nccs3)nc2N1c1cn[nH]c1

>  <Name>  (71) 
nan

>  <Pocket>  (71) 
nan

>  <ATP_Site>  (71) 
nan

>  <Peripheral>  (71) 
nan

>  <Num_H_Atoms_ProtBoundConf>  (71) 
nan

>  <Num_Resolved_Atoms>  (71) 
nan

>  <Num_Not_Resolved_Atoms>  (71) 
nan

$$$$
CHEMBL2402086
     RDKit          3D

  0  0  0  0  0  0  0  0  0  0999 V3000
M  V30 BEGIN CTAB
M  V30 COUNTS 49 53 0 0 0
M  V30 BEGIN ATOM
M  V30 1 C 0.838826 -2.755572 3.684103 0
M  V30 2 C 0.298293 -3.744719 2.682623 0
M  V30 3 C 0.806245 -3.382122 1.287843 0
M  V30 4 C 2.296171 -3.436420 1.293121 0
M  V30 5 O 2.803821 -4.471308 1.767565 0
M  V30 6 N 3.123072 -2.392111 0.796346 0
M  V30 7 C 4.565895 -2.509561 0.713361 0
M  V30 8 C 2.432652 -1.225077 0.386041 0
M  V30 9 C 3.234644 -0.215712 -0.099422 0
M  V30 10 N 2.638204 0.915051 -0.507416 0
M  V30 11 C 1.313567 1.150930 -0.484369 0
M  V30 12 C 0.932077 2.471082 -0.953614 0
M  V30 13 C 1.847604 3.518293 -1.135039 0
M  V30 14 N 1.168934 4.584550 -1.584535 0
M  V30 15 N -0.111271 4.337241 -1.717713 0
M  V30 16 C -0.246882 3.059806 -1.336643 0
M  V30 17 C -1.448380 2.249961 -1.313560 0
M  V30 18 N -1.824117 0.914092 -0.967303 0
M  V30 19 C -3.109657 0.753139 -1.170596 0
M  V30 20 C -4.193925 1.568720 -1.641489 0
M  V30 21 S -3.052368 3.059697 -1.885092 0
M  V30 22 N 0.552757 0.166244 -0.011635 0
M  V30 23 C 1.074975 -0.994772 0.417211 0
M  V30 24 N 0.309172 -2.065149 0.927167 0
M  V30 25 C -1.077139 -1.922032 1.181264 0
M  V30 26 C -2.129580 -2.836018 1.017947 0
M  V30 27 N -3.298456 -2.303670 1.413228 0
M  V30 28 N -3.073711 -1.061746 1.838217 0
M  V30 29 C -4.113957 -0.185755 2.340311 0
M  V30 30 C -1.753694 -0.846877 1.695944 0
M  V30 31 H 0.327503 -1.789407 3.640310 0
M  V30 32 H 0.618594 -3.166888 4.702620 0
M  V30 33 H 1.913899 -2.598940 3.576278 0
M  V30 34 H -0.772195 -3.877332 2.687668 0
M  V30 35 H 0.756172 -4.745280 2.936145 0
M  V30 36 H 0.450044 -4.099817 0.533961 0
M  V30 37 H 5.075508 -1.628007 1.177850 0
M  V30 38 H 4.936128 -2.687906 -0.312795 0
M  V30 39 H 4.891912 -3.377748 1.351051 0
M  V30 40 H 4.297644 -0.302000 -0.161024 0
M  V30 41 H 2.919186 3.569978 -0.975268 0
M  V30 42 H -0.876343 4.961504 -2.040743 0
M  V30 43 H -3.187515 -0.305728 -0.853089 0
M  V30 44 H -5.111438 1.150617 -1.690870 0
M  V30 45 H -1.991028 -3.852492 0.616150 0
M  V30 46 H -3.693890 0.638204 2.956998 0
M  V30 47 H -4.767959 -0.799711 2.986695 0
M  V30 48 H -4.659660 0.292496 1.497594 0
M  V30 49 H -1.337433 0.110819 1.982200 0
M  V30 END ATOM
M  V30 BEGIN BOND
M  V30 1 1 1 2
M  V30 2 1 2 3
M  V30 3 1 3 4
M  V30 4 2 4 5
M  V30 5 1 4 6
M  V30 6 1 6 7
M  V30 7 1 6 8
M  V30 8 2 8 9
M  V30 9 1 9 10
M  V30 10 2 10 11
M  V30 11 1 11 12
M  V30 12 1 12 13
M  V30 13 2 13 14
M  V30 14 1 14 15
M  V30 15 1 15 16
M  V30 16 1 16 17
M  V30 17 2 17 18
M  V30 18 1 18 19
M  V30 19 2 19 20
M  V30 20 1 20 21
M  V30 21 1 11 22
M  V30 22 2 22 23
M  V30 23 1 23 24
M  V30 24 1 24 25
M  V30 25 1 25 26
M  V30 26 2 26 27
M  V30 27 1 27 28
M  V30 28 1 28 29
M  V30 29 1 28 30
M  V30 30 1 24 3
M  V30 31 2 30 25
M  V30 32 1 23 8
M  V30 33 2 16 12
M  V30 34 1 21 17
M  V30 35 1 1 31
M  V30 36 1 1 32
M  V30 37 1 1 33
M  V30 38 1 2 34
M  V30 39 1 2 35
M  V30 40 1 3 36
M  V30 41 1 7 37
M  V30 42 1 7 38
M  V30 43 1 7 39
M  V30 44 1 9 40
M  V30 45 1 13 41
M  V30 46 1 15 42
M  V30 47 1 19 43
M  V30 48 1 20 44
M  V30 49 1 26 45
M  V30 50 1 29 46
M  V30 51 1 29 47
M  V30 52 1 29 48
M  V30 53 1 30 49
M  V30 END BOND
M  V30 END CTAB
M  END
>  <Dataset>  (72) 
ChEMBL_Kinases

>  <Ligand_Instance>  (72) 
nan

>  <PDB_ID>  (72) 
nan

>  <Standardized_SMILES>  (72) 
CCC1C(=O)N(C)c2cnc(-c3cn[nH]c3-c3nccs3)nc2N1c1cnn(C)c1

>  <Name>  (72) 
nan

>  <Pocket>  (72) 
nan

>  <ATP_Site>  (72) 
nan

>  <Peripheral>  (72) 
nan

>  <Num_H_Atoms_ProtBoundConf>  (72) 
nan

>  <Num_Resolved_Atoms>  (72) 
nan

>  <Num_Not_Resolved_Atoms>  (72) 
nan

$$$$
CHEMBL3691985
     RDKit          3D

  0  0  0  0  0  0  0  0  0  0999 V3000
M  V30 BEGIN CTAB
M  V30 COUNTS 73 76 0 0 0
M  V30 BEGIN ATOM
M  V30 1 C -0.140926 -1.609891 8.773075 0
M  V30 2 C 1.193773 -2.015030 8.196757 0
M  V30 3 O 1.324300 -1.523114 6.883227 0
M  V30 4 C 2.541900 -1.880585 6.337763 0
M  V30 5 C 2.621195 -1.346298 4.954401 0
M  V30 6 C 3.111555 -0.090980 4.593674 0
M  V30 7 C 3.145989 0.311409 3.265758 0
M  V30 8 F 3.637602 1.550187 2.996766 0
M  V30 9 C 2.696573 -0.511960 2.240258 0
M  V30 10 C 2.733268 -0.096568 0.860145 0
M  V30 11 N 1.688834 0.537903 0.322247 0
M  V30 12 C 1.689565 0.949597 -0.970661 0
M  V30 13 C 0.649466 1.653016 -1.714302 0
M  V30 14 O 0.781061 1.996518 -2.942347 0
M  V30 15 N -0.653066 2.080522 -1.255955 0
M  V30 16 C -1.185871 2.705294 -2.412991 0
M  V30 17 C -0.860005 4.043697 -2.512434 0
M  V30 18 N -1.295881 4.758070 -3.575187 0
M  V30 19 C -2.028173 4.160605 -4.502350 0
M  V30 20 C -2.334246 2.822925 -4.369187 0
M  V30 21 C -1.937562 1.986654 -3.312531 0
M  V30 22 C -2.312086 0.596442 -3.229036 0 CFG=1
M  V30 23 C -1.351827 -0.423548 -3.737219 0
M  V30 24 C -2.017665 -1.765898 -3.908747 0 CFG=1
M  V30 25 N -0.974606 -2.740281 -4.162978 0
M  V30 26 C -2.624195 -2.143599 -2.568782 0 CFG=1
M  V30 27 N -1.521355 -2.206148 -1.654176 0
M  V30 28 C -1.310665 -3.529829 -1.118233 0
M  V30 29 O -1.965288 -4.547240 -1.370430 0
M  V30 30 O -0.285596 -3.796604 -0.209764 0
M  V30 31 C -0.070167 -5.087023 0.323811 0
M  V30 32 C -3.654415 -1.119655 -2.269019 0 CFG=1
M  V30 33 C -4.749070 -1.539794 -1.335759 0
M  V30 34 C -2.966301 0.170276 -1.914558 0
M  V30 35 C 2.824325 0.677608 -1.696546 0
M  V30 36 C 3.907583 0.025940 -1.159271 0
M  V30 37 C 3.878360 -0.381770 0.161588 0
M  V30 38 F 4.937418 -1.016983 0.675753 0
M  V30 39 C 2.220085 -1.741975 2.629800 0
M  V30 40 F 1.784231 -2.541391 1.630882 0
M  V30 41 C 2.165468 -2.185398 3.930842 0
M  V30 42 H -0.025023 -1.381037 9.854135 0
M  V30 43 H -0.889270 -2.405320 8.600195 0
M  V30 44 H -0.529436 -0.675244 8.291781 0
M  V30 45 H 1.987067 -1.631422 8.851644 0
M  V30 46 H 1.228905 -3.134313 8.167394 0
M  V30 47 H 2.628962 -2.996738 6.291749 0
M  V30 48 H 3.400114 -1.515391 6.959404 0
M  V30 49 H 3.449411 0.511396 5.424815 0
M  V30 50 H -0.846964 1.833468 -0.256628 0
M  V30 51 H -0.271382 4.576717 -1.790862 0
M  V30 52 H -2.371379 4.728645 -5.342993 0
M  V30 53 H -2.947306 2.405153 -5.180972 0
M  V30 54 H -3.194188 0.483779 -3.953965 0
M  V30 55 H -0.442288 -0.587506 -3.176053 0
M  V30 56 H -1.040832 -0.079207 -4.751780 0
M  V30 57 H -2.776956 -1.756418 -4.721991 0
M  V30 58 H -0.059915 -2.337651 -4.383756 0
M  V30 59 H -1.268455 -3.571720 -4.681155 0
M  V30 60 H -3.104451 -3.141984 -2.714147 0
M  V30 61 H -0.908373 -1.412656 -1.374686 0
M  V30 62 H 0.197351 -5.853335 -0.402150 0
M  V30 63 H -0.983827 -5.430906 0.871128 0
M  V30 64 H 0.702576 -4.972160 1.132601 0
M  V30 65 H -4.205836 -0.893899 -3.234303 0
M  V30 66 H -5.641666 -1.965079 -1.873807 0
M  V30 67 H -5.182966 -0.688710 -0.767980 0
M  V30 68 H -4.443822 -2.398055 -0.677010 0
M  V30 69 H -2.273067 0.094090 -1.079693 0
M  V30 70 H -3.767606 0.900592 -1.676478 0
M  V30 71 H 2.949362 0.958887 -2.749372 0
M  V30 72 H 4.801011 -0.186564 -1.737906 0
M  V30 73 H 1.777399 -3.168136 4.171687 0
M  V30 END ATOM
M  V30 BEGIN BOND
M  V30 1 1 1 2
M  V30 2 1 2 3
M  V30 3 1 3 4
M  V30 4 1 4 5
M  V30 5 2 5 6
M  V30 6 1 6 7
M  V30 7 1 7 8
M  V30 8 2 7 9
M  V30 9 1 9 10
M  V30 10 2 10 11
M  V30 11 1 11 12
M  V30 12 1 12 13
M  V30 13 2 13 14
M  V30 14 1 13 15
M  V30 15 1 15 16
M  V30 16 2 16 17
M  V30 17 1 17 18
M  V30 18 2 18 19
M  V30 19 1 19 20
M  V30 20 2 20 21
M  V30 21 1 21 22
M  V30 22 1 22 23
M  V30 23 1 23 24
M  V30 24 1 24 25
M  V30 25 1 24 26
M  V30 26 1 26 27
M  V30 27 1 27 28
M  V30 28 2 28 29
M  V30 29 1 28 30
M  V30 30 1 30 31
M  V30 31 1 26 32
M  V30 32 1 32 33
M  V30 33 1 32 34
M  V30 34 2 12 35
M  V30 35 1 35 36
M  V30 36 2 36 37
M  V30 37 1 37 38
M  V30 38 1 9 39
M  V30 39 1 39 40
M  V30 40 2 39 41
M  V30 41 1 41 5
M  V30 42 1 37 10
M  V30 43 1 21 16
M  V30 44 1 34 22
M  V30 45 1 1 42
M  V30 46 1 1 43
M  V30 47 1 1 44
M  V30 48 1 2 45
M  V30 49 1 2 46
M  V30 50 1 4 47
M  V30 51 1 4 48
M  V30 52 1 6 49
M  V30 53 1 15 50
M  V30 54 1 17 51
M  V30 55 1 19 52
M  V30 56 1 20 53
M  V30 57 1 22 54 CFG=3
M  V30 58 1 23 55
M  V30 59 1 23 56
M  V30 60 1 24 57 CFG=3
M  V30 61 1 25 58
M  V30 62 1 25 59
M  V30 63 1 26 60 CFG=3
M  V30 64 1 27 61
M  V30 65 1 31 62
M  V30 66 1 31 63
M  V30 67 1 31 64
M  V30 68 1 32 65 CFG=3
M  V30 69 1 33 66
M  V30 70 1 33 67
M  V30 71 1 33 68
M  V30 72 1 34 69
M  V30 73 1 34 70
M  V30 74 1 35 71
M  V30 75 1 36 72
M  V30 76 1 41 73
M  V30 END BOND
M  V30 END CTAB
M  END
>  <Dataset>  (73) 
ChEMBL_Kinases

>  <Ligand_Instance>  (73) 
nan

>  <PDB_ID>  (73) 
nan

>  <Standardized_SMILES>  (73) 
CCOCc1cc(F)c(-c2nc(C(=O)Nc3cnccc3[C@H]3C[C@@H](N)[C@@H](NC(=O)OC)[C@@H](C)C3)ccc2F)c(F)c1

>  <Name>  (73) 
nan

>  <Pocket>  (73) 
nan

>  <ATP_Site>  (73) 
nan

>  <Peripheral>  (73) 
nan

>  <Num_H_Atoms_ProtBoundConf>  (73) 
nan

>  <Num_Resolved_Atoms>  (73) 
nan

>  <Num_Not_Resolved_Atoms>  (73) 
nan

$$$$
CHEMBL3691984
     RDKit          3D

  0  0  0  0  0  0  0  0  0  0999 V3000
M  V30 BEGIN CTAB
M  V30 COUNTS 77 81 0 0 0
M  V30 BEGIN ATOM
M  V30 1 C 6.289723 -3.030893 5.617142 0
M  V30 2 O 5.958539 -3.232172 4.246223 0
M  V30 3 C 4.785504 -2.698618 3.754526 0
M  V30 4 O 4.091686 -2.057290 4.604252 0
M  V30 5 N 4.300949 -2.796926 2.435422 0
M  V30 6 C 3.108348 -2.258913 1.919812 0 CFG=2
M  V30 7 C 2.050707 -3.120511 1.365536 0 CFG=2
M  V30 8 N 1.634238 -4.200506 2.201196 0
M  V30 9 C 2.242135 -3.523043 -0.099199 0
M  V30 10 C 2.146130 -2.211320 -0.857264 0 CFG=2
M  V30 11 C 2.043487 -2.354109 -2.303556 0
M  V30 12 C 3.205206 -2.390037 -3.056842 0
M  V30 13 C 3.177435 -2.522884 -4.432385 0
M  V30 14 N 2.029172 -2.623066 -5.102205 0
M  V30 15 C 0.868745 -2.592746 -4.407684 0
M  V30 16 C 0.867733 -2.459396 -3.017116 0
M  V30 17 N -0.348802 -2.428923 -2.314118 0
M  V30 18 C -1.131477 -3.487873 -1.746595 0
M  V30 19 O -0.819853 -4.706079 -1.797717 0
M  V30 20 C -2.354467 -3.053402 -1.082590 0
M  V30 21 C -3.175984 -4.000081 -0.507319 0
M  V30 22 C -4.358114 -3.734872 0.150140 0
M  V30 23 C -4.726171 -2.414507 0.225284 0
M  V30 24 F -5.855107 -1.986194 0.834774 0
M  V30 25 C -3.920345 -1.450865 -0.342622 0
M  V30 26 C -4.174502 -0.013988 -0.344770 0
M  V30 27 C -3.607163 0.578646 0.788923 0
M  V30 28 F -2.916124 -0.049918 1.769248 0
M  V30 29 C -3.721871 1.950721 1.002282 0
M  V30 30 C -4.403363 2.713258 0.077914 0
M  V30 31 C -4.596377 4.171289 0.185664 0
M  V30 32 F -5.955812 4.414876 0.242911 0
M  V30 33 C -3.975298 4.770047 1.421679 0
M  V30 34 C -2.511989 5.042692 1.280972 0
M  V30 35 O -2.386919 5.999518 0.247024 0
M  V30 36 C -2.640213 5.298169 -0.926686 0
M  V30 37 C -4.080324 4.871884 -1.068700 0
M  V30 38 C -4.954700 2.124162 -1.027709 0
M  V30 39 C -4.852138 0.767836 -1.256908 0
M  V30 40 F -5.342374 0.055377 -2.295852 0
M  V30 41 N -2.772516 -1.794115 -0.972056 0
M  V30 42 C 3.427718 -1.489017 -0.460036 0
M  V30 43 C 3.444041 -1.135783 0.995120 0 CFG=2
M  V30 44 C 4.833810 -0.593774 1.288894 0
M  V30 45 H 7.002422 -3.775684 5.991701 0
M  V30 46 H 5.351148 -2.941579 6.200912 0
M  V30 47 H 6.722908 -1.988421 5.640651 0
M  V30 48 H 4.897079 -3.335340 1.749711 0
M  V30 49 H 2.640122 -1.737043 2.808541 0
M  V30 50 H 1.124437 -2.485540 1.318315 0
M  V30 51 H 1.149434 -3.811211 3.037798 0
M  V30 52 H 1.121416 -4.929869 1.700328 0
M  V30 53 H 3.258595 -3.898184 -0.292906 0
M  V30 54 H 1.462562 -4.243657 -0.339349 0
M  V30 55 H 1.286229 -1.650812 -0.408102 0
M  V30 56 H 4.207745 -2.321332 -2.667542 0
M  V30 57 H 4.060546 -2.554859 -5.053160 0
M  V30 58 H -0.061338 -2.676314 -4.976751 0
M  V30 59 H -0.637710 -1.428066 -2.253299 0
M  V30 60 H -2.887434 -5.051017 -0.564662 0
M  V30 61 H -4.978775 -4.494321 0.589265 0
M  V30 62 H -3.312796 2.465293 1.845747 0
M  V30 63 H -4.465603 5.780611 1.540436 0
M  V30 64 H -4.279733 4.202742 2.299119 0
M  V30 65 H -2.172057 5.534945 2.206089 0
M  V30 66 H -1.893321 4.201412 0.971189 0
M  V30 67 H -1.931041 4.456543 -1.069840 0
M  V30 68 H -2.451590 6.026154 -1.754852 0
M  V30 69 H -4.114774 4.180469 -1.934455 0
M  V30 70 H -4.692583 5.765069 -1.291089 0
M  V30 71 H -5.512968 2.646632 -1.815416 0
M  V30 72 H 3.488487 -0.579687 -1.056878 0
M  V30 73 H 4.299368 -2.160661 -0.635815 0
M  V30 74 H 2.759059 -0.243286 1.100618 0
M  V30 75 H 5.589999 -1.234297 0.832450 0
M  V30 76 H 4.975096 -0.385669 2.368312 0
M  V30 77 H 4.933505 0.407338 0.783601 0
M  V30 END ATOM
M  V30 BEGIN BOND
M  V30 1 1 1 2
M  V30 2 1 2 3
M  V30 3 2 3 4
M  V30 4 1 3 5
M  V30 5 1 5 6
M  V30 6 1 6 7
M  V30 7 1 7 8
M  V30 8 1 7 9
M  V30 9 1 9 10
M  V30 10 1 10 11
M  V30 11 2 11 12
M  V30 12 1 12 13
M  V30 13 2 13 14
M  V30 14 1 14 15
M  V30 15 2 15 16
M  V30 16 1 16 17
M  V30 17 1 17 18
M  V30 18 2 18 19
M  V30 19 1 18 20
M  V30 20 2 20 21
M  V30 21 1 21 22
M  V30 22 2 22 23
M  V30 23 1 23 24
M  V30 24 1 23 25
M  V30 25 1 25 26
M  V30 26 2 26 27
M  V30 27 1 27 28
M  V30 28 1 27 29
M  V30 29 2 29 30
M  V30 30 1 30 31
M  V30 31 1 31 32
M  V30 32 1 31 33
M  V30 33 1 33 34
M  V30 34 1 34 35
M  V30 35 1 35 36
M  V30 36 1 36 37
M  V30 37 1 30 38
M  V30 38 2 38 39
M  V30 39 1 39 40
M  V30 40 2 25 41
M  V30 41 1 10 42
M  V30 42 1 42 43
M  V30 43 1 43 44
M  V30 44 1 43 6
M  V30 45 1 16 11
M  V30 46 1 41 20
M  V30 47 1 39 26
M  V30 48 1 37 31
M  V30 49 1 1 45
M  V30 50 1 1 46
M  V30 51 1 1 47
M  V30 52 1 5 48
M  V30 53 1 6 49 CFG=1
M  V30 54 1 7 50 CFG=3
M  V30 55 1 8 51
M  V30 56 1 8 52
M  V30 57 1 9 53
M  V30 58 1 9 54
M  V30 59 1 10 55 CFG=1
M  V30 60 1 12 56
M  V30 61 1 13 57
M  V30 62 1 15 58
M  V30 63 1 17 59
M  V30 64 1 21 60
M  V30 65 1 22 61
M  V30 66 1 29 62
M  V30 67 1 33 63
M  V30 68 1 33 64
M  V30 69 1 34 65
M  V30 70 1 34 66
M  V30 71 1 36 67
M  V30 72 1 36 68
M  V30 73 1 37 69
M  V30 74 1 37 70
M  V30 75 1 38 71
M  V30 76 1 42 72
M  V30 77 1 42 73
M  V30 78 1 43 74 CFG=3
M  V30 79 1 44 75
M  V30 80 1 44 76
M  V30 81 1 44 77
M  V30 END BOND
M  V30 END CTAB
M  END
>  <Dataset>  (74) 
ChEMBL_Kinases

>  <Ligand_Instance>  (74) 
nan

>  <PDB_ID>  (74) 
nan

>  <Standardized_SMILES>  (74) 
COC(=O)N[C@@H]1[C@H](N)C[C@H](c2ccncc2NC(=O)c2ccc(F)c(-c3c(F)cc(C4(F)CCOCC4)cc3F)n2)C[C@@H]1C

>  <Name>  (74) 
nan

>  <Pocket>  (74) 
nan

>  <ATP_Site>  (74) 
nan

>  <Peripheral>  (74) 
nan

>  <Num_H_Atoms_ProtBoundConf>  (74) 
nan

>  <Num_Resolved_Atoms>  (74) 
nan

>  <Num_Not_Resolved_Atoms>  (74) 
nan

$$$$
CHEMBL3692213
     RDKit          3D

  0  0  0  0  0  0  0  0  0  0999 V3000
M  V30 BEGIN CTAB
M  V30 COUNTS 64 68 0 0 0
M  V30 BEGIN ATOM
M  V30 1 C 1.949561 -1.125080 4.954084 0
M  V30 2 C 2.686123 -0.935021 3.695466 0
M  V30 3 C 3.051578 0.311452 3.173935 0
M  V30 4 C 3.716865 0.097854 1.965812 0
M  V30 5 N 4.196580 1.237087 1.212254 0
M  V30 6 C 3.057119 1.933590 0.640962 0
M  V30 7 N 1.807364 1.560680 0.937519 0
M  V30 8 C 0.695244 2.141466 0.448865 0
M  V30 9 C -0.525574 1.509299 0.991401 0
M  V30 10 C -1.021847 0.335203 0.152387 0
M  V30 11 C -1.318305 0.874031 -1.195946 0
M  V30 12 O -0.677191 0.339132 -2.175787 0
M  V30 13 N -2.254396 1.930869 -1.454013 0
M  V30 14 C -3.201264 2.859315 -0.861936 0
M  V30 15 C -4.017677 2.723848 -2.149073 0
M  V30 16 C -2.636529 2.560807 -2.732113 0
M  V30 17 C -2.230292 -0.212791 0.852504 0
M  V30 18 C -2.743231 -1.497785 0.250652 0
M  V30 19 N -1.705891 -2.481181 0.315893 0
M  V30 20 C -2.088270 -3.772281 -0.124758 0
M  V30 21 O -3.298664 -3.707158 -0.454587 0
M  V30 22 C -1.295070 -5.010930 -0.214841 0
M  V30 23 C -0.714349 -5.174958 -1.482698 0
M  V30 24 C 0.048704 -6.331035 -1.681906 0
M  V30 25 C 0.244109 -7.282410 -0.711109 0
M  V30 26 C -0.368860 -7.027258 0.497811 0
M  V30 27 Cl -0.138637 -8.225767 1.770828 0
M  V30 28 C -1.131917 -5.933853 0.793952 0
M  V30 29 F -1.731792 -5.670714 1.965872 0
M  V30 30 C -0.421840 -2.016545 0.834732 0
M  V30 31 C -0.013275 -0.766478 0.064050 0
M  V30 32 C 0.829246 3.200270 -0.423387 0
M  V30 33 C 2.094455 3.624618 -0.762404 0
M  V30 34 C 3.203933 3.001250 -0.238449 0
M  V30 35 F 4.451749 3.414042 -0.563333 0
M  V30 36 N 3.743479 -1.251926 1.778062 0
M  V30 37 N 3.131641 -1.830644 2.808333 0
M  V30 38 H 1.121092 -1.860607 4.844175 0
M  V30 39 H 2.609728 -1.426946 5.783353 0
M  V30 40 H 1.435773 -0.179444 5.279947 0
M  V30 41 H 2.831050 1.249067 3.664269 0
M  V30 42 H 5.138552 1.611274 1.025830 0
M  V30 43 H -0.402465 1.258234 2.044179 0
M  V30 44 H -1.319623 2.289768 0.916636 0
M  V30 45 H -2.828018 3.890516 -0.725762 0
M  V30 46 H -3.810400 2.524183 -0.030302 0
M  V30 47 H -4.547731 3.647383 -2.438024 0
M  V30 48 H -4.570396 1.784852 -2.230946 0
M  V30 49 H -2.519638 1.935942 -3.613564 0
M  V30 50 H -2.149762 3.558031 -2.761878 0
M  V30 51 H -3.087596 0.466682 0.910521 0
M  V30 52 H -1.952464 -0.431746 1.915190 0
M  V30 53 H -3.671913 -1.817187 0.772646 0
M  V30 54 H -2.964110 -1.302659 -0.814618 0
M  V30 55 H -0.825274 -4.465363 -2.294568 0
M  V30 56 H 0.486810 -6.441901 -2.675064 0
M  V30 57 H 0.839138 -8.175173 -0.881483 0
M  V30 58 H 0.330255 -2.800046 0.599570 0
M  V30 59 H -0.463839 -1.834260 1.916316 0
M  V30 60 H 0.079677 -1.122159 -1.003569 0
M  V30 61 H 0.998885 -0.534730 0.387685 0
M  V30 62 H -0.115982 3.597864 -0.758417 0
M  V30 63 H 2.159071 4.457071 -1.449468 0
M  V30 64 H 3.036769 -2.865027 2.872029 0
M  V30 END ATOM
M  V30 BEGIN BOND
M  V30 1 1 1 2
M  V30 2 2 2 3
M  V30 3 1 3 4
M  V30 4 1 4 5
M  V30 5 1 5 6
M  V30 6 2 6 7
M  V30 7 1 7 8
M  V30 8 1 8 9
M  V30 9 1 9 10
M  V30 10 1 10 11
M  V30 11 2 11 12
M  V30 12 1 11 13
M  V30 13 1 13 14
M  V30 14 1 14 15
M  V30 15 1 15 16
M  V30 16 1 10 17
M  V30 17 1 17 18
M  V30 18 1 18 19
M  V30 19 1 19 20
M  V30 20 2 20 21
M  V30 21 1 20 22
M  V30 22 2 22 23
M  V30 23 1 23 24
M  V30 24 2 24 25
M  V30 25 1 25 26
M  V30 26 1 26 27
M  V30 27 2 26 28
M  V30 28 1 28 29
M  V30 29 1 19 30
M  V30 30 1 30 31
M  V30 31 2 8 32
M  V30 32 1 32 33
M  V30 33 2 33 34
M  V30 34 1 34 35
M  V30 35 2 4 36
M  V30 36 1 36 37
M  V30 37 1 37 2
M  V30 38 1 34 6
M  V30 39 1 31 10
M  V30 40 1 16 13
M  V30 41 1 28 22
M  V30 42 1 1 38
M  V30 43 1 1 39
M  V30 44 1 1 40
M  V30 45 1 3 41
M  V30 46 1 5 42
M  V30 47 1 9 43
M  V30 48 1 9 44
M  V30 49 1 14 45
M  V30 50 1 14 46
M  V30 51 1 15 47
M  V30 52 1 15 48
M  V30 53 1 16 49
M  V30 54 1 16 50
M  V30 55 1 17 51
M  V30 56 1 17 52
M  V30 57 1 18 53
M  V30 58 1 18 54
M  V30 59 1 23 55
M  V30 60 1 24 56
M  V30 61 1 25 57
M  V30 62 1 30 58
M  V30 63 1 30 59
M  V30 64 1 31 60
M  V30 65 1 31 61
M  V30 66 1 32 62
M  V30 67 1 33 63
M  V30 68 1 37 64
M  V30 END BOND
M  V30 END CTAB
M  END
>  <Dataset>  (75) 
ChEMBL_Kinases

>  <Ligand_Instance>  (75) 
nan

>  <PDB_ID>  (75) 
nan

>  <Standardized_SMILES>  (75) 
Cc1cc(Nc2nc(CC3(C(=O)N4CCC4)CCN(C(=O)c4cccc(Cl)c4F)CC3)ccc2F)n[nH]1

>  <Name>  (75) 
nan

>  <Pocket>  (75) 
nan

>  <ATP_Site>  (75) 
nan

>  <Peripheral>  (75) 
nan

>  <Num_H_Atoms_ProtBoundConf>  (75) 
nan

>  <Num_Resolved_Atoms>  (75) 
nan

>  <Num_Not_Resolved_Atoms>  (75) 
nan

$$$$
CHEMBL4456961
     RDKit          3D

  0  0  0  0  0  0  0  0  0  0999 V3000
M  V30 BEGIN CTAB
M  V30 COUNTS 47 50 0 0 0
M  V30 BEGIN ATOM
M  V30 1 C 1.608111 -0.240542 -2.580894 0
M  V30 2 O 1.640774 0.170578 -1.235136 0
M  V30 3 C 2.138573 -0.574777 -0.194125 0
M  V30 4 C 2.671231 -1.840097 -0.378635 0
M  V30 5 C 3.173244 -2.595308 0.662018 0
M  V30 6 C 3.148819 -2.075031 1.953582 0
M  V30 7 C 2.617886 -0.819495 2.121771 0
M  V30 8 C 2.110211 -0.049596 1.087298 0
M  V30 9 C 1.556655 1.279067 1.318113 0
M  V30 10 N 2.347338 2.254892 1.790321 0
M  V30 11 C 1.658727 3.411449 1.938268 0
M  V30 12 C 2.165973 4.702578 2.426254 0
M  V30 13 N 3.536372 4.791305 2.798405 0
M  V30 14 O 1.366785 5.676460 2.494773 0
M  V30 15 N 0.398833 3.139221 1.543428 0
M  V30 16 C 0.311615 1.852452 1.162714 0
M  V30 17 C -0.809291 1.064184 0.659524 0
M  V30 18 C -1.420809 1.442706 -0.519116 0
M  V30 19 C -2.486607 0.742243 -1.052344 0
M  V30 20 N -2.931720 -0.344423 -0.386981 0
M  V30 21 C -2.355067 -0.751155 0.780130 0
M  V30 22 N -2.893822 -1.916098 1.417201 0
M  V30 23 C -2.247183 -3.082026 0.964789 0
M  V30 24 O -1.312951 -3.233712 0.124387 0
M  V30 25 C -2.515958 -4.479993 1.382240 0
M  V30 26 C -3.995395 -4.957771 1.369995 0
M  V30 27 C -3.223771 -4.823857 2.620696 0
M  V30 28 C -1.282797 -0.051673 1.322422 0
M  V30 29 H 0.699103 0.185479 -3.062572 0
M  V30 30 H 1.509579 -1.335474 -2.695437 0
M  V30 31 H 2.528689 0.046512 -3.148757 0
M  V30 32 H 2.715322 -2.290084 -1.354046 0
M  V30 33 H 3.591539 -3.575431 0.554648 0
M  V30 34 H 3.523459 -2.603187 2.828976 0
M  V30 35 H 2.592249 -0.399815 3.126245 0
M  V30 36 H 4.468947 4.898212 2.340412 0
M  V30 37 H 4.155452 4.897683 1.949629 0
M  V30 38 H -0.419454 3.799710 1.520200 0
M  V30 39 H -1.120964 2.293253 -1.100141 0
M  V30 40 H -2.986571 1.020599 -1.980993 0
M  V30 41 H -3.621414 -2.183101 2.118394 0
M  V30 42 H -1.842764 -5.196746 0.849512 0
M  V30 43 H -4.703147 -4.150574 1.061416 0
M  V30 44 H -4.220063 -5.923524 0.892440 0
M  V30 45 H -3.494072 -3.958420 3.278663 0
M  V30 46 H -2.933904 -5.784236 3.104430 0
M  V30 47 H -0.827676 -0.376711 2.247479 0
M  V30 END ATOM
M  V30 BEGIN BOND
M  V30 1 1 1 2
M  V30 2 1 2 3
M  V30 3 2 3 4
M  V30 4 1 4 5
M  V30 5 2 5 6
M  V30 6 1 6 7
M  V30 7 2 7 8
M  V30 8 1 8 9
M  V30 9 1 9 10
M  V30 10 2 10 11
M  V30 11 1 11 12
M  V30 12 1 12 13
M  V30 13 2 12 14
M  V30 14 1 11 15
M  V30 15 1 15 16
M  V30 16 1 16 17
M  V30 17 2 17 18
M  V30 18 1 18 19
M  V30 19 2 19 20
M  V30 20 1 20 21
M  V30 21 1 21 22
M  V30 22 1 22 23
M  V30 23 2 23 24
M  V30 24 1 23 25
M  V30 25 1 25 26
M  V30 26 1 26 27
M  V30 27 2 21 28
M  V30 28 1 8 3
M  V30 29 2 16 9
M  V30 30 1 28 17
M  V30 31 1 27 25
M  V30 32 1 1 29
M  V30 33 1 1 30
M  V30 34 1 1 31
M  V30 35 1 4 32
M  V30 36 1 5 33
M  V30 37 1 6 34
M  V30 38 1 7 35
M  V30 39 1 13 36
M  V30 40 1 13 37
M  V30 41 1 15 38
M  V30 42 1 18 39
M  V30 43 1 19 40
M  V30 44 1 22 41
M  V30 45 1 25 42
M  V30 46 1 26 43
M  V30 47 1 26 44
M  V30 48 1 27 45
M  V30 49 1 27 46
M  V30 50 1 28 47
M  V30 END BOND
M  V30 END CTAB
M  END
>  <Dataset>  (76) 
ChEMBL_Kinases

>  <Ligand_Instance>  (76) 
nan

>  <PDB_ID>  (76) 
nan

>  <Standardized_SMILES>  (76) 
COc1ccccc1-c1nc(C(N)=O)[nH]c1-c1ccnc(NC(=O)C2CC2)c1

>  <Name>  (76) 
nan

>  <Pocket>  (76) 
nan

>  <ATP_Site>  (76) 
nan

>  <Peripheral>  (76) 
nan

>  <Num_H_Atoms_ProtBoundConf>  (76) 
nan

>  <Num_Resolved_Atoms>  (76) 
nan

>  <Num_Not_Resolved_Atoms>  (76) 
nan

$$$$
CHEMBL3691983
     RDKit          3D

  0  0  0  0  0  0  0  0  0  0999 V3000
M  V30 BEGIN CTAB
M  V30 COUNTS 78 81 0 0 0
M  V30 BEGIN ATOM
M  V30 1 C 4.546249 -2.608465 -1.545132 0
M  V30 2 O 3.481615 -1.784921 -1.107475 0
M  V30 3 C 3.631482 -0.444500 -0.797622 0
M  V30 4 O 4.851247 -0.367851 -1.038821 0
M  V30 5 N 2.597707 0.417430 -0.356766 0
M  V30 6 C 2.760945 1.810471 -0.036021 0 CFG=2
M  V30 7 C 2.481594 1.958573 1.442092 0 CFG=2
M  V30 8 N 3.286346 0.924065 2.110066 0
M  V30 9 C 1.005424 1.741058 1.692030 0
M  V30 10 C 0.270930 2.809890 0.912395 0 CFG=2
M  V30 11 C -1.047937 3.114897 1.427509 0
M  V30 12 C -1.230748 4.143924 2.365252 0
M  V30 13 C -2.418830 4.528886 2.944263 0
M  V30 14 N -3.552729 3.858327 2.588803 0
M  V30 15 C -3.462065 2.858733 1.695430 0
M  V30 16 C -2.249692 2.506331 1.139541 0
M  V30 17 N -2.269787 1.426409 0.215210 0
M  V30 18 C -2.584565 1.608733 -1.183736 0
M  V30 19 O -2.848870 2.779790 -1.556604 0
M  V30 20 C -2.590116 0.491538 -2.088889 0
M  V30 21 N -2.269465 -0.737827 -1.655657 0
M  V30 22 C -2.241859 -1.832405 -2.433224 0
M  V30 23 C -1.866929 -3.090086 -1.817849 0
M  V30 24 C -1.548200 -3.102435 -0.483868 0
M  V30 25 C -1.179440 -4.235334 0.185091 0
M  V30 26 C -0.855996 -4.159483 1.602551 0
M  V30 27 O -0.937725 -3.040596 2.213311 0
M  V30 28 N -0.441287 -5.248669 2.407237 0
M  V30 29 C -0.128140 -5.123502 3.822115 0
M  V30 30 C -0.904706 -6.042795 4.699797 0
M  V30 31 C 1.376201 -5.379626 3.938170 0
M  V30 32 C -1.105978 -5.452919 -0.455675 0
M  V30 33 C -1.417965 -5.485995 -1.795013 0
M  V30 34 C -1.783480 -4.318982 -2.424735 0
M  V30 35 F -2.075126 -4.427027 -3.736202 0
M  V30 36 C -2.576531 -1.586974 -3.738503 0
M  V30 37 C -2.914779 -0.357246 -4.251504 0
M  V30 38 C -2.931793 0.743148 -3.422093 0
M  V30 39 N -3.281107 2.018168 -3.941837 0
M  V30 40 C 0.407838 2.501988 -0.536843 0
M  V30 41 C 1.895652 2.727743 -0.866368 0 CFG=2
M  V30 42 C 2.202561 2.555685 -2.309514 0
M  V30 43 H 4.097802 -3.636504 -1.631770 0
M  V30 44 H 4.879686 -2.259397 -2.533043 0
M  V30 45 H 5.341829 -2.582871 -0.774080 0
M  V30 46 H 1.692172 -0.095458 -0.295409 0
M  V30 47 H 3.808045 2.092638 -0.198442 0
M  V30 48 H 2.755396 2.966842 1.812934 0
M  V30 49 H 2.607194 0.286507 2.599390 0
M  V30 50 H 3.958120 1.328606 2.795492 0
M  V30 51 H 0.757240 0.729745 1.311625 0
M  V30 52 H 0.763299 1.845242 2.768449 0
M  V30 53 H 0.899058 3.740822 1.079470 0
M  V30 54 H -0.343683 4.715804 2.684275 0
M  V30 55 H -2.451510 5.328098 3.649250 0
M  V30 56 H -4.372113 2.332650 1.421283 0
M  V30 57 H -2.055383 0.424047 0.493189 0
M  V30 58 H -1.581412 -2.184665 0.092090 0
M  V30 59 H -0.353400 -6.190706 1.971697 0
M  V30 60 H -0.262844 -4.083042 4.178552 0
M  V30 61 H -1.733522 -6.467457 4.094871 0
M  V30 62 H -0.326606 -6.918860 5.057911 0
M  V30 63 H -1.351169 -5.479843 5.524137 0
M  V30 64 H 1.599231 -6.458513 3.843492 0
M  V30 65 H 1.855018 -4.829840 3.095212 0
M  V30 66 H 1.766769 -4.961686 4.891105 0
M  V30 67 H -0.822710 -6.380952 0.012742 0
M  V30 68 H -1.369561 -6.423761 -2.323524 0
M  V30 69 H -2.580221 -2.398716 -4.427591 0
M  V30 70 H -3.165475 -0.234955 -5.282461 0
M  V30 71 H -2.772722 2.355724 -4.802762 0
M  V30 72 H -4.004195 2.709756 -3.581559 0
M  V30 73 H 0.248222 1.410706 -0.746321 0
M  V30 74 H -0.161566 3.154434 -1.200106 0
M  V30 75 H 2.117642 3.759076 -0.558435 0
M  V30 76 H 2.240607 3.541025 -2.821253 0
M  V30 77 H 3.252865 2.172411 -2.378814 0
M  V30 78 H 1.522803 1.844478 -2.820599 0
M  V30 END ATOM
M  V30 BEGIN BOND
M  V30 1 1 1 2
M  V30 2 1 2 3
M  V30 3 2 3 4
M  V30 4 1 3 5
M  V30 5 1 5 6
M  V30 6 1 6 7
M  V30 7 1 7 8
M  V30 8 1 7 9
M  V30 9 1 9 10
M  V30 10 1 10 11
M  V30 11 2 11 12
M  V30 12 1 12 13
M  V30 13 2 13 14
M  V30 14 1 14 15
M  V30 15 2 15 16
M  V30 16 1 16 17
M  V30 17 1 17 18
M  V30 18 2 18 19
M  V30 19 1 18 20
M  V30 20 2 20 21
M  V30 21 1 21 22
M  V30 22 1 22 23
M  V30 23 2 23 24
M  V30 24 1 24 25
M  V30 25 1 25 26
M  V30 26 2 26 27
M  V30 27 1 26 28
M  V30 28 1 28 29
M  V30 29 1 29 30
M  V30 30 1 29 31
M  V30 31 2 25 32
M  V30 32 1 32 33
M  V30 33 2 33 34
M  V30 34 1 34 35
M  V30 35 2 22 36
M  V30 36 1 36 37
M  V30 37 2 37 38
M  V30 38 1 38 39
M  V30 39 1 10 40
M  V30 40 1 40 41
M  V30 41 1 41 42
M  V30 42 1 41 6
M  V30 43 1 16 11
M  V30 44 1 38 20
M  V30 45 1 34 23
M  V30 46 1 1 43
M  V30 47 1 1 44
M  V30 48 1 1 45
M  V30 49 1 5 46
M  V30 50 1 6 47 CFG=1
M  V30 51 1 7 48 CFG=1
M  V30 52 1 8 49
M  V30 53 1 8 50
M  V30 54 1 9 51
M  V30 55 1 9 52
M  V30 56 1 10 53 CFG=3
M  V30 57 1 12 54
M  V30 58 1 13 55
M  V30 59 1 15 56
M  V30 60 1 17 57
M  V30 61 1 24 58
M  V30 62 1 28 59
M  V30 63 1 29 60
M  V30 64 1 30 61
M  V30 65 1 30 62
M  V30 66 1 30 63
M  V30 67 1 31 64
M  V30 68 1 31 65
M  V30 69 1 31 66
M  V30 70 1 32 67
M  V30 71 1 33 68
M  V30 72 1 36 69
M  V30 73 1 37 70
M  V30 74 1 39 71
M  V30 75 1 39 72
M  V30 76 1 40 73
M  V30 77 1 40 74
M  V30 78 1 41 75 CFG=1
M  V30 79 1 42 76
M  V30 80 1 42 77
M  V30 81 1 42 78
M  V30 END BOND
M  V30 END CTAB
M  END
>  <Dataset>  (77) 
ChEMBL_Kinases

>  <Ligand_Instance>  (77) 
nan

>  <PDB_ID>  (77) 
nan

>  <Standardized_SMILES>  (77) 
COC(=O)N[C@@H]1[C@H](N)C[C@H](c2ccncc2NC(=O)c2nc(-c3cc(C(=O)NC(C)C)ccc3F)ccc2N)C[C@@H]1C

>  <Name>  (77) 
nan

>  <Pocket>  (77) 
nan

>  <ATP_Site>  (77) 
nan

>  <Peripheral>  (77) 
nan

>  <Num_H_Atoms_ProtBoundConf>  (77) 
nan

>  <Num_Resolved_Atoms>  (77) 
nan

>  <Num_Not_Resolved_Atoms>  (77) 
nan

$$$$
CHEMBL4456469
     RDKit          3D

  0  0  0  0  0  0  0  0  0  0999 V3000
M  V30 BEGIN CTAB
M  V30 COUNTS 29 31 0 0 0
M  V30 BEGIN ATOM
M  V30 1 O 1.078510 -1.092815 2.730471 0
M  V30 2 C 2.096883 -1.853836 2.619267 0
M  V30 3 N 2.908582 -1.999879 3.801354 0
M  V30 4 C 3.966762 -2.874025 3.458759 0
M  V30 5 S 5.193386 -3.391416 4.435012 0
M  V30 6 N 3.857248 -3.295067 2.081986 0
M  V30 7 C 2.707164 -2.673535 1.549555 0
M  V30 8 C 2.109845 -2.697983 0.357188 0
M  V30 9 C 0.885834 -1.966066 0.028976 0
M  V30 10 C -0.097926 -2.713598 -0.628842 0
M  V30 11 C -1.118766 -1.767061 -0.801954 0
M  V30 12 C -0.744712 -0.560561 -0.278521 0
M  V30 13 C -1.379833 0.742078 -0.170513 0
M  V30 14 C -0.659651 1.800922 0.397639 0
M  V30 15 C -1.306948 3.042579 0.490520 0
M  V30 16 C -2.578750 3.280241 0.067483 0
M  V30 17 C -3.294975 2.232816 -0.495633 0
M  V30 18 C -2.671635 1.016210 -0.590950 0
M  V30 19 Cl -3.673014 -0.221884 -1.308962 0
M  V30 20 O 0.457495 -0.747505 0.198600 0
M  V30 21 H 2.838036 -1.597562 4.776203 0
M  V30 22 H 4.459127 -3.932919 1.496195 0
M  V30 23 H 2.646638 -3.330115 -0.348995 0
M  V30 24 H -0.165682 -3.740995 -0.964432 0
M  V30 25 H -2.039665 -1.988939 -1.275360 0
M  V30 26 H 0.347712 1.727985 0.766040 0
M  V30 27 H -0.743549 3.866853 0.932080 0
M  V30 28 H -3.054875 4.253568 0.149395 0
M  V30 29 H -4.300347 2.430113 -0.823867 0
M  V30 END ATOM
M  V30 BEGIN BOND
M  V30 1 2 1 2
M  V30 2 1 2 3
M  V30 3 1 3 4
M  V30 4 2 4 5
M  V30 5 1 4 6
M  V30 6 1 6 7
M  V30 7 2 7 8
M  V30 8 1 8 9
M  V30 9 2 9 10
M  V30 10 1 10 11
M  V30 11 2 11 12
M  V30 12 1 12 13
M  V30 13 2 13 14
M  V30 14 1 14 15
M  V30 15 2 15 16
M  V30 16 1 16 17
M  V30 17 2 17 18
M  V30 18 1 18 19
M  V30 19 1 12 20
M  V30 20 1 7 2
M  V30 21 1 20 9
M  V30 22 1 18 13
M  V30 23 1 3 21
M  V30 24 1 6 22
M  V30 25 1 8 23
M  V30 26 1 10 24
M  V30 27 1 11 25
M  V30 28 1 14 26
M  V30 29 1 15 27
M  V30 30 1 16 28
M  V30 31 1 17 29
M  V30 END BOND
M  V30 END CTAB
M  END
>  <Dataset>  (78) 
ChEMBL_Kinases

>  <Ligand_Instance>  (78) 
nan

>  <PDB_ID>  (78) 
nan

>  <Standardized_SMILES>  (78) 
O=C1NC(=S)N/C1=C/c1ccc(-c2ccccc2Cl)o1

>  <Name>  (78) 
nan

>  <Pocket>  (78) 
nan

>  <ATP_Site>  (78) 
nan

>  <Peripheral>  (78) 
nan

>  <Num_H_Atoms_ProtBoundConf>  (78) 
nan

>  <Num_Resolved_Atoms>  (78) 
nan

>  <Num_Not_Resolved_Atoms>  (78) 
nan

$$$$
CHEMBL3691982
     RDKit          3D

  0  0  0  0  0  0  0  0  0  0999 V3000
M  V30 BEGIN CTAB
M  V30 COUNTS 76 80 0 0 0
M  V30 BEGIN ATOM
M  V30 1 C 4.873349 -4.245712 4.540668 0
M  V30 2 O 4.167118 -3.919553 3.340758 0
M  V30 3 C 4.542192 -2.835265 2.554924 0
M  V30 4 O 5.518729 -2.193886 2.977882 0
M  V30 5 N 3.798426 -2.564370 1.373337 0
M  V30 6 C 4.130280 -1.442397 0.493901 0 CFG=2
M  V30 7 C 2.964325 -0.497854 0.426290 0 CFG=2
M  V30 8 N 2.490054 -0.086366 1.712550 0
M  V30 9 C 1.852917 -1.140673 -0.327057 0
M  V30 10 N 2.354619 -1.429752 -1.674414 0
M  V30 11 C 2.039851 -0.919915 -2.960405 0
M  V30 12 C 2.975184 -0.292434 -3.764980 0
M  V30 13 C 2.609096 0.189489 -5.021129 0
M  V30 14 N 1.331607 0.041771 -5.453966 0
M  V30 15 C 0.441700 -0.573286 -4.649455 0
M  V30 16 C 0.727734 -1.073837 -3.400185 0
M  V30 17 N -0.296540 -1.688913 -2.675183 0
M  V30 18 C -0.831725 -2.999006 -2.523634 0
M  V30 19 O -0.349226 -3.949887 -3.150075 0
M  V30 20 C -1.953312 -3.087994 -1.595706 0
M  V30 21 C -2.501837 -4.339817 -1.418230 0
M  V30 22 C -3.567394 -4.518137 -0.558012 0
M  V30 23 C -4.097101 -3.444238 0.135505 0
M  V30 24 F -5.123242 -3.426511 1.007222 0
M  V30 25 C -3.523266 -2.204310 -0.066104 0
M  V30 26 C -3.881322 -0.908588 0.532616 0
M  V30 27 C -4.801757 -0.051762 -0.038343 0
M  V30 28 F -5.339070 -0.510999 -1.189961 0
M  V30 29 C -5.112770 1.172378 0.565825 0
M  V30 30 C -4.491485 1.547621 1.764322 0
M  V30 31 C -4.986752 2.879860 2.190213 0
M  V30 32 F -6.355819 2.790596 2.345634 0
M  V30 33 C -4.423143 3.318770 3.522066 0
M  V30 34 C -3.168443 4.123269 3.430854 0
M  V30 35 O -2.592006 3.890341 2.187425 0
M  V30 36 C -3.376069 4.546444 1.241417 0
M  V30 37 C -4.742023 3.919967 1.115492 0
M  V30 38 C -3.574795 0.683319 2.323526 0
M  V30 39 C -3.282423 -0.517301 1.713233 0
M  V30 40 F -2.367569 -1.283138 2.354056 0
M  V30 41 N -2.489310 -2.053266 -0.905815 0
M  V30 42 C 3.390161 -2.456870 -1.666336 0
M  V30 43 C 4.527674 -1.905618 -0.865975 0 CFG=2
M  V30 44 C 5.575898 -2.998166 -0.787863 0
M  V30 45 H 5.446542 -5.184350 4.406106 0
M  V30 46 H 4.097449 -4.460564 5.305104 0
M  V30 47 H 5.479962 -3.400454 4.894796 0
M  V30 48 H 2.998463 -3.184808 1.133185 0
M  V30 49 H 5.023334 -0.897483 0.914774 0
M  V30 50 H 3.261191 0.419612 -0.122216 0
M  V30 51 H 2.142833 0.893277 1.770377 0
M  V30 52 H 1.904676 -0.768652 2.217704 0
M  V30 53 H 0.915247 -0.565505 -0.344866 0
M  V30 54 H 1.571310 -2.074989 0.203005 0
M  V30 55 H 3.999973 -0.179206 -3.406360 0
M  V30 56 H 3.402535 0.664281 -5.579373 0
M  V30 57 H -0.546376 -0.644897 -5.076238 0
M  V30 58 H -0.668154 -0.841095 -2.166050 0
M  V30 59 H -2.120925 -5.211065 -1.939553 0
M  V30 60 H -4.064216 -5.458886 -0.353073 0
M  V30 61 H -5.854205 1.690296 -0.036859 0
M  V30 62 H -4.300627 2.424843 4.163959 0
M  V30 63 H -5.159566 3.959008 4.080901 0
M  V30 64 H -3.389585 5.210629 3.482552 0
M  V30 65 H -2.501047 3.824772 4.265251 0
M  V30 66 H -3.463968 5.601996 1.569001 0
M  V30 67 H -2.811811 4.551623 0.287681 0
M  V30 68 H -4.779029 3.397115 0.141692 0
M  V30 69 H -5.517041 4.709040 1.093949 0
M  V30 70 H -3.160504 1.062993 3.228827 0
M  V30 71 H 2.980293 -3.368307 -1.146619 0
M  V30 72 H 3.722214 -2.792945 -2.639131 0
M  V30 73 H 4.997562 -1.075391 -1.416974 0
M  V30 74 H 6.053563 -3.069189 -1.790340 0
M  V30 75 H 5.117321 -3.980669 -0.548300 0
M  V30 76 H 6.372675 -2.774859 -0.062344 0
M  V30 END ATOM
M  V30 BEGIN BOND
M  V30 1 1 1 2
M  V30 2 1 2 3
M  V30 3 2 3 4
M  V30 4 1 3 5
M  V30 5 1 5 6
M  V30 6 1 6 7
M  V30 7 1 7 8
M  V30 8 1 7 9
M  V30 9 1 9 10
M  V30 10 1 10 11
M  V30 11 2 11 12
M  V30 12 1 12 13
M  V30 13 2 13 14
M  V30 14 1 14 15
M  V30 15 2 15 16
M  V30 16 1 16 17
M  V30 17 1 17 18
M  V30 18 2 18 19
M  V30 19 1 18 20
M  V30 20 2 20 21
M  V30 21 1 21 22
M  V30 22 2 22 23
M  V30 23 1 23 24
M  V30 24 1 23 25
M  V30 25 1 25 26
M  V30 26 2 26 27
M  V30 27 1 27 28
M  V30 28 1 27 29
M  V30 29 2 29 30
M  V30 30 1 30 31
M  V30 31 1 31 32
M  V30 32 1 31 33
M  V30 33 1 33 34
M  V30 34 1 34 35
M  V30 35 1 35 36
M  V30 36 1 36 37
M  V30 37 1 30 38
M  V30 38 2 38 39
M  V30 39 1 39 40
M  V30 40 2 25 41
M  V30 41 1 10 42
M  V30 42 1 42 43
M  V30 43 1 43 44
M  V30 44 1 43 6
M  V30 45 1 16 11
M  V30 46 1 41 20
M  V30 47 1 39 26
M  V30 48 1 37 31
M  V30 49 1 1 45
M  V30 50 1 1 46
M  V30 51 1 1 47
M  V30 52 1 5 48
M  V30 53 1 6 49 CFG=1
M  V30 54 1 7 50 CFG=3
M  V30 55 1 8 51
M  V30 56 1 8 52
M  V30 57 1 9 53
M  V30 58 1 9 54
M  V30 59 1 12 55
M  V30 60 1 13 56
M  V30 61 1 15 57
M  V30 62 1 17 58
M  V30 63 1 21 59
M  V30 64 1 22 60
M  V30 65 1 29 61
M  V30 66 1 33 62
M  V30 67 1 33 63
M  V30 68 1 34 64
M  V30 69 1 34 65
M  V30 70 1 36 66
M  V30 71 1 36 67
M  V30 72 1 37 68
M  V30 73 1 37 69
M  V30 74 1 38 70
M  V30 75 1 42 71
M  V30 76 1 42 72
M  V30 77 1 43 73 CFG=3
M  V30 78 1 44 74
M  V30 79 1 44 75
M  V30 80 1 44 76
M  V30 END BOND
M  V30 END CTAB
M  END
>  <Dataset>  (79) 
ChEMBL_Kinases

>  <Ligand_Instance>  (79) 
nan

>  <PDB_ID>  (79) 
nan

>  <Standardized_SMILES>  (79) 
COC(=O)N[C@@H]1[C@H](N)CN(c2ccncc2NC(=O)c2ccc(F)c(-c3c(F)cc(C4(F)CCOCC4)cc3F)n2)C[C@@H]1C

>  <Name>  (79) 
nan

>  <Pocket>  (79) 
nan

>  <ATP_Site>  (79) 
nan

>  <Peripheral>  (79) 
nan

>  <Num_H_Atoms_ProtBoundConf>  (79) 
nan

>  <Num_Resolved_Atoms>  (79) 
nan

>  <Num_Not_Resolved_Atoms>  (79) 
nan

$$$$
CHEMBL3691981
     RDKit          3D

  0  0  0  0  0  0  0  0  0  0999 V3000
M  V30 BEGIN CTAB
M  V30 COUNTS 75 79 0 0 0
M  V30 BEGIN ATOM
M  V30 1 C -2.282838 -1.519390 4.943672 0
M  V30 2 C -1.035569 -1.108677 5.740152 0
M  V30 3 C -0.222511 -2.371340 5.947902 0
M  V30 4 N -0.288252 -0.253911 4.866223 0
M  V30 5 C 0.067256 1.071614 5.148647 0
M  V30 6 O -0.335752 1.486704 6.285938 0
M  V30 7 C 0.823168 1.986687 4.302477 0
M  V30 8 C 1.045074 3.252910 4.800997 0
M  V30 9 C 1.756469 4.144805 4.026696 0
M  V30 10 C 2.205234 3.719139 2.797793 0
M  V30 11 F 2.895001 4.635944 2.086517 0
M  V30 12 C 2.010884 2.473870 2.259080 0
M  V30 13 C 2.463362 1.983740 0.975353 0
M  V30 14 C 3.174421 2.636824 0.003297 0
M  V30 15 C 3.570441 2.103322 -1.200440 0
M  V30 16 C 3.233253 0.795761 -1.476191 0
M  V30 17 N 3.633684 0.226223 -2.716030 0
M  V30 18 C 2.517872 0.124844 -0.508302 0
M  V30 19 C 2.139191 -1.247736 -0.742768 0
M  V30 20 O 2.482616 -1.776088 -1.831162 0
M  V30 21 N 1.397248 -2.002870 0.217905 0
M  V30 22 C 1.021543 -3.356463 -0.004269 0
M  V30 23 C 1.865283 -4.375130 0.386437 0
M  V30 24 N 1.451567 -5.631951 0.147925 0
M  V30 25 C 0.280108 -5.935304 -0.440413 0
M  V30 26 C -0.564368 -4.904807 -0.831101 0
M  V30 27 C -0.178467 -3.579565 -0.604560 0
M  V30 28 N -1.120624 -2.612500 -1.043283 0
M  V30 29 C -1.918799 -1.548401 -0.465071 0
M  V30 30 C -1.998352 -0.350518 -1.374773 0 CFG=1
M  V30 31 N -0.742393 0.326504 -1.514690 0
M  V30 32 C -2.641826 -0.667196 -2.700752 0 CFG=1
M  V30 33 N -1.883741 -0.123661 -3.812291 0
M  V30 34 C -2.455214 0.367758 -4.931687 0
M  V30 35 C -1.416810 0.786437 -5.745788 0
M  V30 36 N -0.276878 0.527549 -5.079266 0
M  V30 37 N -0.581484 -0.020922 -3.916038 0
M  V30 38 C -2.723465 -2.160608 -2.841116 0 CFG=1
M  V30 39 C -3.058228 -2.606022 -4.248402 0
M  V30 40 C -1.347468 -2.723645 -2.475259 0
M  V30 41 N 2.165735 0.715211 0.647628 0
M  V30 42 C 1.295739 1.620648 3.070151 0
M  V30 43 H -2.778350 -0.594895 4.523852 0
M  V30 44 H -1.981100 -2.122987 4.073459 0
M  V30 45 H -3.044860 -2.000877 5.579770 0
M  V30 46 H -1.320786 -0.636465 6.689379 0
M  V30 47 H -0.532062 -2.956263 6.828294 0
M  V30 48 H -0.334350 -2.959167 4.996759 0
M  V30 49 H 0.854967 -2.105184 6.001901 0
M  V30 50 H 0.015806 -0.646112 3.948291 0
M  V30 51 H 0.688505 3.579201 5.768315 0
M  V30 52 H 1.946916 5.145178 4.389963 0
M  V30 53 H 3.451513 3.658021 0.190449 0
M  V30 54 H 4.128034 2.698057 -1.901799 0
M  V30 55 H 3.065580 -0.173013 -3.499122 0
M  V30 56 H 2.978112 -0.157458 -3.457486 0
M  V30 57 H 1.110899 -1.560877 1.123799 0
M  V30 58 H 2.798203 -4.171902 0.853948 0
M  V30 59 H 0.101901 -6.994255 -0.557027 0
M  V30 60 H -1.492690 -5.227443 -1.299375 0
M  V30 61 H -1.565748 -1.272781 0.548975 0
M  V30 62 H -2.935919 -1.976945 -0.303943 0
M  V30 63 H -2.673792 0.381486 -0.840397 0
M  V30 64 H -0.356763 0.484596 -0.537934 0
M  V30 65 H -0.829831 1.263097 -1.929748 0
M  V30 66 H -3.705780 -0.289001 -2.725806 0
M  V30 67 H -3.499682 0.464726 -5.237992 0
M  V30 68 H -1.398092 1.242734 -6.734806 0
M  V30 69 H -3.503130 -2.549229 -2.176414 0
M  V30 70 H -3.689837 -1.881762 -4.771228 0
M  V30 71 H -2.178561 -2.842427 -4.860780 0
M  V30 72 H -3.673776 -3.550468 -4.197244 0
M  V30 73 H -1.405698 -3.798302 -2.813439 0
M  V30 74 H -0.579506 -2.249724 -3.085777 0
M  V30 75 H 1.073886 0.609537 2.762877 0
M  V30 END ATOM
M  V30 BEGIN BOND
M  V30 1 1 1 2
M  V30 2 1 2 3
M  V30 3 1 2 4
M  V30 4 1 4 5
M  V30 5 2 5 6
M  V30 6 1 5 7
M  V30 7 2 7 8
M  V30 8 1 8 9
M  V30 9 2 9 10
M  V30 10 1 10 11
M  V30 11 1 10 12
M  V30 12 1 12 13
M  V30 13 2 13 14
M  V30 14 1 14 15
M  V30 15 2 15 16
M  V30 16 1 16 17
M  V30 17 1 16 18
M  V30 18 1 18 19
M  V30 19 2 19 20
M  V30 20 1 19 21
M  V30 21 1 21 22
M  V30 22 2 22 23
M  V30 23 1 23 24
M  V30 24 2 24 25
M  V30 25 1 25 26
M  V30 26 2 26 27
M  V30 27 1 27 28
M  V30 28 1 28 29
M  V30 29 1 29 30
M  V30 30 1 30 31
M  V30 31 1 30 32
M  V30 32 1 32 33
M  V30 33 1 33 34
M  V30 34 2 34 35
M  V30 35 1 35 36
M  V30 36 2 36 37
M  V30 37 1 32 38
M  V30 38 1 38 39
M  V30 39 1 38 40
M  V30 40 2 18 41
M  V30 41 2 12 42
M  V30 42 1 42 7
M  V30 43 1 41 13
M  V30 44 1 27 22
M  V30 45 1 40 28
M  V30 46 1 37 33
M  V30 47 1 1 43
M  V30 48 1 1 44
M  V30 49 1 1 45
M  V30 50 1 2 46
M  V30 51 1 3 47
M  V30 52 1 3 48
M  V30 53 1 3 49
M  V30 54 1 4 50
M  V30 55 1 8 51
M  V30 56 1 9 52
M  V30 57 1 14 53
M  V30 58 1 15 54
M  V30 59 1 17 55
M  V30 60 1 17 56
M  V30 61 1 21 57
M  V30 62 1 23 58
M  V30 63 1 25 59
M  V30 64 1 26 60
M  V30 65 1 29 61
M  V30 66 1 29 62
M  V30 67 1 30 63 CFG=1
M  V30 68 1 31 64
M  V30 69 1 31 65
M  V30 70 1 32 66 CFG=1
M  V30 71 1 34 67
M  V30 72 1 35 68
M  V30 73 1 38 69 CFG=1
M  V30 74 1 39 70
M  V30 75 1 39 71
M  V30 76 1 39 72
M  V30 77 1 40 73
M  V30 78 1 40 74
M  V30 79 1 42 75
M  V30 END BOND
M  V30 END CTAB
M  END
>  <Dataset>  (80) 
ChEMBL_Kinases

>  <Ligand_Instance>  (80) 
nan

>  <PDB_ID>  (80) 
nan

>  <Standardized_SMILES>  (80) 
CC(C)NC(=O)c1ccc(F)c(-c2ccc(N)c(C(=O)Nc3cnccc3N3C[C@@H](N)[C@@H](n4ccnn4)[C@@H](C)C3)n2)c1

>  <Name>  (80) 
nan

>  <Pocket>  (80) 
nan

>  <ATP_Site>  (80) 
nan

>  <Peripheral>  (80) 
nan

>  <Num_H_Atoms_ProtBoundConf>  (80) 
nan

>  <Num_Resolved_Atoms>  (80) 
nan

>  <Num_Not_Resolved_Atoms>  (80) 
nan

$$$$
CHEMBL4456165
     RDKit          3D

  0  0  0  0  0  0  0  0  0  0999 V3000
M  V30 BEGIN CTAB
M  V30 COUNTS 57 61 0 0 0
M  V30 BEGIN ATOM
M  V30 1 C 3.056785 -4.509993 1.571575 0
M  V30 2 C 3.254875 -3.575540 2.738855 0 CFG=1
M  V30 3 N 4.589649 -3.545935 3.244177 0
M  V30 4 C 5.188779 -2.256316 3.145139 0
M  V30 5 O 6.337600 -1.881854 3.490925 0
M  V30 6 C 4.164077 -1.427088 2.539751 0
M  V30 7 C 3.852719 -0.162810 2.097398 0
M  V30 8 C 2.570574 -0.104864 1.590012 0
M  V30 9 C 1.975682 1.111815 1.050874 0
M  V30 10 C 2.684990 2.295476 1.021325 0
M  V30 11 C 2.175086 3.473799 0.524639 0
M  V30 12 C 0.888946 3.456077 0.034948 0
M  V30 13 C 0.132795 2.293468 0.041128 0
M  V30 14 C -1.158662 2.264496 -0.447428 0
M  V30 15 O -1.567218 3.367566 -0.885023 0
M  V30 16 N -1.937973 1.172871 -0.468401 0
M  V30 17 C -3.269203 1.160159 -0.957064 0
M  V30 18 C -4.307632 0.470739 -0.058380 0
M  V30 19 C -3.442585 0.828577 -2.431392 0
M  V30 20 C -3.837532 2.166519 -1.859123 0
M  V30 21 C -1.336178 0.082118 0.040432 0
M  V30 22 N -1.931139 -1.205722 0.108139 0
M  V30 23 C -2.131021 -2.479681 -0.541052 0
M  V30 24 C -0.730854 -3.116433 -0.664079 0
M  V30 25 C -2.970068 -3.407694 0.313122 0
M  V30 26 C -2.670263 -2.396239 -1.931409 0
M  V30 27 N -0.084163 0.055179 0.528731 0
M  V30 28 C 0.673612 1.131049 0.545620 0
M  V30 29 N 2.122599 -1.361319 1.738637 0
M  V30 30 C 3.032952 -2.174351 2.295930 0
M  V30 31 H 4.000891 -4.644163 1.009895 0
M  V30 32 H 2.282553 -4.037954 0.914387 0
M  V30 33 H 2.607507 -5.455667 1.911686 0
M  V30 34 H 2.534556 -3.870066 3.539964 0
M  V30 35 H 5.044768 -4.405677 3.638555 0
M  V30 36 H 4.571441 0.664398 2.162363 0
M  V30 37 H 3.700377 2.343006 1.399361 0
M  V30 38 H 2.766287 4.372357 0.522470 0
M  V30 39 H 0.467367 4.367664 -0.359718 0
M  V30 40 H -4.051407 0.639592 1.015344 0
M  V30 41 H -4.341103 -0.614547 -0.265625 0
M  V30 42 H -5.334321 0.855217 -0.247220 0
M  V30 43 H -2.564205 0.777163 -3.095891 0
M  V30 44 H -4.235031 0.121090 -2.742489 0
M  V30 45 H -3.331657 3.013256 -2.312737 0
M  V30 46 H -4.951687 2.333307 -1.830910 0
M  V30 47 H -2.404021 -1.102340 1.052234 0
M  V30 48 H -0.013217 -2.385821 -1.091198 0
M  V30 49 H -0.849230 -3.982698 -1.320470 0
M  V30 50 H -0.428962 -3.389652 0.349750 0
M  V30 51 H -2.296171 -4.014864 0.935414 0
M  V30 52 H -3.540567 -4.084839 -0.359772 0
M  V30 53 H -3.706894 -2.831163 0.929739 0
M  V30 54 H -2.593060 -3.407078 -2.420318 0
M  V30 55 H -2.044669 -1.695914 -2.515725 0
M  V30 56 H -3.727789 -2.123862 -2.000812 0
M  V30 57 H 1.173030 -1.678564 1.454805 0
M  V30 END ATOM
M  V30 BEGIN BOND
M  V30 1 1 1 2
M  V30 2 1 2 3
M  V30 3 1 3 4
M  V30 4 2 4 5
M  V30 5 1 4 6
M  V30 6 1 6 7
M  V30 7 2 7 8
M  V30 8 1 8 9
M  V30 9 2 9 10
M  V30 10 1 10 11
M  V30 11 2 11 12
M  V30 12 1 12 13
M  V30 13 1 13 14
M  V30 14 2 14 15
M  V30 15 1 14 16
M  V30 16 1 16 17
M  V30 17 1 17 18
M  V30 18 1 17 19
M  V30 19 1 19 20
M  V30 20 1 16 21
M  V30 21 1 21 22
M  V30 22 1 22 23
M  V30 23 1 23 24
M  V30 24 1 23 25
M  V30 25 1 23 26
M  V30 26 2 21 27
M  V30 27 1 27 28
M  V30 28 1 8 29
M  V30 29 1 29 30
M  V30 30 1 30 2
M  V30 31 2 30 6
M  V30 32 1 28 9
M  V30 33 2 28 13
M  V30 34 1 20 17
M  V30 35 1 1 31
M  V30 36 1 1 32
M  V30 37 1 1 33
M  V30 38 1 2 34 CFG=1
M  V30 39 1 3 35
M  V30 40 1 7 36
M  V30 41 1 10 37
M  V30 42 1 11 38
M  V30 43 1 12 39
M  V30 44 1 18 40
M  V30 45 1 18 41
M  V30 46 1 18 42
M  V30 47 1 19 43
M  V30 48 1 19 44
M  V30 49 1 20 45
M  V30 50 1 20 46
M  V30 51 1 22 47
M  V30 52 1 24 48
M  V30 53 1 24 49
M  V30 54 1 24 50
M  V30 55 1 25 51
M  V30 56 1 25 52
M  V30 57 1 25 53
M  V30 58 1 26 54
M  V30 59 1 26 55
M  V30 60 1 26 56
M  V30 61 1 29 57
M  V30 END BOND
M  V30 END CTAB
M  END
>  <Dataset>  (81) 
ChEMBL_Kinases

>  <Ligand_Instance>  (81) 
nan

>  <PDB_ID>  (81) 
nan

>  <Standardized_SMILES>  (81) 
C[C@H]1NC(=O)c2cc(-c3cccc4c(=O)n(C5(C)CC5)c(NC(C)(C)C)nc34)[nH]c21

>  <Name>  (81) 
nan

>  <Pocket>  (81) 
nan

>  <ATP_Site>  (81) 
nan

>  <Peripheral>  (81) 
nan

>  <Num_H_Atoms_ProtBoundConf>  (81) 
nan

>  <Num_Resolved_Atoms>  (81) 
nan

>  <Num_Not_Resolved_Atoms>  (81) 
nan

$$$$
CHEMBL4456135
     RDKit          3D

  0  0  0  0  0  0  0  0  0  0999 V3000
M  V30 BEGIN CTAB
M  V30 COUNTS 42 44 0 0 0
M  V30 BEGIN ATOM
M  V30 1 N -0.210471 -4.645002 2.154135 0
M  V30 2 C -0.149863 -3.225411 2.096433 0
M  V30 3 O -0.544521 -2.587860 3.106330 0
M  V30 4 C 0.362031 -2.581474 0.880994 0
M  V30 5 C 0.780000 -3.359925 -0.194334 0
M  V30 6 C 1.268517 -2.800324 -1.357585 0
M  V30 7 C 1.332757 -1.423505 -1.427825 0
M  V30 8 C 1.850102 -0.849016 -2.664144 0
M  V30 9 C 2.543453 0.337113 -2.717063 0
M  V30 10 C 2.977367 0.765943 -3.969427 0
M  V30 11 C 2.756927 0.080126 -5.153167 0
M  V30 12 N 2.072850 -1.080965 -5.065317 0
M  V30 13 C 1.636611 -1.527601 -3.866299 0
M  V30 14 C 0.918941 -0.647974 -0.362883 0
M  V30 15 C 0.428715 -1.190832 0.805765 0
M  V30 16 O -0.000385 -0.504859 1.901513 0
M  V30 17 C -0.056869 0.861465 2.124659 0
M  V30 18 C -1.455409 1.387383 2.343775 0
M  V30 19 C -2.181312 0.578165 3.385835 0
M  V30 20 C -1.386096 0.640082 4.653954 0
M  V30 21 C -0.116862 1.412539 4.580057 0
M  V30 22 C 0.736194 1.149699 3.377852 0
M  V30 23 H -0.848941 -5.092700 1.430604 0
M  V30 24 H 0.278169 -5.321868 2.800890 0
M  V30 25 H 0.710147 -4.451209 -0.091339 0
M  V30 26 H 1.562576 -3.495487 -2.124020 0
M  V30 27 H 2.730877 0.891470 -1.818384 0
M  V30 28 H 3.521256 1.709390 -3.959678 0
M  V30 29 H 3.120104 0.466389 -6.095286 0
M  V30 30 H 1.091465 -2.458675 -3.818853 0
M  V30 31 H 0.975751 0.424529 -0.433349 0
M  V30 32 H 0.323818 1.390505 1.229046 0
M  V30 33 H -2.043317 1.529084 1.437622 0
M  V30 34 H -1.317227 2.411714 2.801168 0
M  V30 35 H -2.331981 -0.478176 3.081565 0
M  V30 36 H -3.204908 1.019952 3.488569 0
M  V30 37 H -1.252007 -0.385447 5.070821 0
M  V30 38 H -2.034496 1.174208 5.407619 0
M  V30 39 H 0.485896 1.110795 5.486157 0
M  V30 40 H -0.272873 2.511388 4.720671 0
M  V30 41 H 1.491309 0.374098 3.605210 0
M  V30 42 H 1.316595 2.089727 3.179423 0
M  V30 END ATOM
M  V30 BEGIN BOND
M  V30 1 1 1 2
M  V30 2 2 2 3
M  V30 3 1 2 4
M  V30 4 2 4 5
M  V30 5 1 5 6
M  V30 6 2 6 7
M  V30 7 1 7 8
M  V30 8 2 8 9
M  V30 9 1 9 10
M  V30 10 2 10 11
M  V30 11 1 11 12
M  V30 12 2 12 13
M  V30 13 1 7 14
M  V30 14 2 14 15
M  V30 15 1 15 16
M  V30 16 1 16 17
M  V30 17 1 17 18
M  V30 18 1 18 19
M  V30 19 1 19 20
M  V30 20 1 20 21
M  V30 21 1 21 22
M  V30 22 1 15 4
M  V30 23 1 22 17
M  V30 24 1 13 8
M  V30 25 1 1 23
M  V30 26 1 1 24
M  V30 27 1 5 25
M  V30 28 1 6 26
M  V30 29 1 9 27
M  V30 30 1 10 28
M  V30 31 1 11 29
M  V30 32 1 13 30
M  V30 33 1 14 31
M  V30 34 1 17 32
M  V30 35 1 18 33
M  V30 36 1 18 34
M  V30 37 1 19 35
M  V30 38 1 19 36
M  V30 39 1 20 37
M  V30 40 1 20 38
M  V30 41 1 21 39
M  V30 42 1 21 40
M  V30 43 1 22 41
M  V30 44 1 22 42
M  V30 END BOND
M  V30 END CTAB
M  END
>  <Dataset>  (82) 
ChEMBL_Kinases

>  <Ligand_Instance>  (82) 
nan

>  <PDB_ID>  (82) 
nan

>  <Standardized_SMILES>  (82) 
NC(=O)c1ccc(-c2cccnc2)cc1OC1CCCCC1

>  <Name>  (82) 
nan

>  <Pocket>  (82) 
nan

>  <ATP_Site>  (82) 
nan

>  <Peripheral>  (82) 
nan

>  <Num_H_Atoms_ProtBoundConf>  (82) 
nan

>  <Num_Resolved_Atoms>  (82) 
nan

>  <Num_Not_Resolved_Atoms>  (82) 
nan

$$$$
CHEMBL4455930
     RDKit          3D

  0  0  0  0  0  0  0  0  0  0999 V3000
M  V30 BEGIN CTAB
M  V30 COUNTS 62 66 0 0 0
M  V30 BEGIN ATOM
M  V30 1 C 2.186235 -1.271610 7.219583 0
M  V30 2 C 3.006265 -1.464192 5.975193 0
M  V30 3 N 4.026608 -2.238944 5.547109 0
M  V30 4 O 4.302942 -1.926119 4.320383 0
M  V30 5 C 3.524705 -0.971473 3.872053 0
M  V30 6 C 3.473991 -0.316609 2.571254 0
M  V30 7 C 4.307235 -0.645498 1.530625 0
M  V30 8 C 4.160606 0.034524 0.316279 0
M  V30 9 C 3.212940 1.020269 0.125408 0
M  V30 10 N 2.871433 1.800881 -0.933256 0
M  V30 11 C 1.840298 2.611045 -0.569513 0
M  V30 12 N 1.074172 3.592153 -1.258907 0
M  V30 13 C -0.314705 3.283427 -1.514992 0
M  V30 14 C -0.894950 2.114047 -1.103883 0
M  V30 15 C -2.214547 1.754491 -1.298838 0
M  V30 16 C -2.590219 0.432495 -0.750828 0
M  V30 17 C -4.072132 0.187334 -0.664569 0
M  V30 18 N -1.798804 -0.580497 -1.266840 0
M  V30 19 C -2.137427 -1.180135 -2.517457 0
M  V30 20 C -2.514929 -2.637417 -2.323091 0
M  V30 21 N -1.768060 -3.236216 -1.235913 0
M  V30 22 C -2.212725 -4.496293 -0.699053 0
M  V30 23 O -3.237361 -5.008154 -1.210131 0
M  V30 24 C -1.437871 -5.098033 0.408811 0
M  V30 25 C -1.994969 -6.425540 0.855858 0
M  V30 26 F -2.009713 -7.350528 -0.143396 0
M  V30 27 F -1.157714 -6.849885 1.888279 0
M  V30 28 F -3.219477 -6.185324 1.423230 0
M  V30 29 C -0.596623 -2.610966 -0.690876 0
M  V30 30 C -0.689680 -1.104371 -0.598211 0
M  V30 31 C -3.004442 2.669526 -1.971627 0
M  V30 32 C -2.432759 3.853753 -2.394021 0
M  V30 33 N -1.132691 4.155463 -2.175536 0
M  V30 34 N 1.557509 2.325513 0.702550 0
M  V30 35 C 2.362527 1.362903 1.174627 0
M  V30 36 C 2.549384 0.666839 2.341797 0
M  V30 37 N 2.731953 -0.703353 4.916168 0
M  V30 38 H 2.303887 -2.161492 7.850101 0
M  V30 39 H 2.468743 -0.361976 7.769496 0
M  V30 40 H 1.109153 -1.205670 6.941883 0
M  V30 41 H 5.040327 -1.411287 1.688443 0
M  V30 42 H 4.820979 -0.218388 -0.527215 0
M  V30 43 H 1.410236 4.519771 -1.605417 0
M  V30 44 H -0.218459 1.467300 -0.586658 0
M  V30 45 H -2.289941 0.531299 0.363983 0
M  V30 46 H -4.254616 -0.675008 -0.009753 0
M  V30 47 H -4.530461 1.079225 -0.190104 0
M  V30 48 H -4.554975 0.094753 -1.656754 0
M  V30 49 H -1.246270 -1.154654 -3.173999 0
M  V30 50 H -2.926354 -0.588599 -3.001270 0
M  V30 51 H -3.611976 -2.699510 -2.122658 0
M  V30 52 H -2.327278 -3.232805 -3.236919 0
M  V30 53 H -1.526277 -4.392097 1.282870 0
M  V30 54 H -0.345162 -5.152860 0.147353 0
M  V30 55 H -0.457119 -2.973017 0.344739 0
M  V30 56 H 0.337172 -2.945121 -1.225800 0
M  V30 57 H 0.238214 -0.738855 -1.142411 0
M  V30 58 H -0.621949 -0.718639 0.416758 0
M  V30 59 H -4.026499 2.360202 -2.106849 0
M  V30 60 H -3.080685 4.538005 -2.915453 0
M  V30 61 H 0.841955 2.718134 1.347269 0
M  V30 62 H 1.889164 0.935542 3.163802 0
M  V30 END ATOM
M  V30 BEGIN BOND
M  V30 1 1 1 2
M  V30 2 2 2 3
M  V30 3 1 3 4
M  V30 4 1 4 5
M  V30 5 1 5 6
M  V30 6 2 6 7
M  V30 7 1 7 8
M  V30 8 2 8 9
M  V30 9 1 9 10
M  V30 10 2 10 11
M  V30 11 1 11 12
M  V30 12 1 12 13
M  V30 13 2 13 14
M  V30 14 1 14 15
M  V30 15 1 15 16
M  V30 16 1 16 17
M  V30 17 1 16 18
M  V30 18 1 18 19
M  V30 19 1 19 20
M  V30 20 1 20 21
M  V30 21 1 21 22
M  V30 22 2 22 23
M  V30 23 1 22 24
M  V30 24 1 24 25
M  V30 25 1 25 26
M  V30 26 1 25 27
M  V30 27 1 25 28
M  V30 28 1 21 29
M  V30 29 1 29 30
M  V30 30 2 15 31
M  V30 31 1 31 32
M  V30 32 2 32 33
M  V30 33 1 11 34
M  V30 34 1 34 35
M  V30 35 2 35 36
M  V30 36 2 5 37
M  V30 37 1 37 2
M  V30 38 1 36 6
M  V30 39 1 35 9
M  V30 40 1 33 13
M  V30 41 1 30 18
M  V30 42 1 1 38
M  V30 43 1 1 39
M  V30 44 1 1 40
M  V30 45 1 7 41
M  V30 46 1 8 42
M  V30 47 1 12 43
M  V30 48 1 14 44
M  V30 49 1 16 45
M  V30 50 1 17 46
M  V30 51 1 17 47
M  V30 52 1 17 48
M  V30 53 1 19 49
M  V30 54 1 19 50
M  V30 55 1 20 51
M  V30 56 1 20 52
M  V30 57 1 24 53
M  V30 58 1 24 54
M  V30 59 1 29 55
M  V30 60 1 29 56
M  V30 61 1 30 57
M  V30 62 1 30 58
M  V30 63 1 31 59
M  V30 64 1 32 60
M  V30 65 1 34 61
M  V30 66 1 36 62
M  V30 END BOND
M  V30 END CTAB
M  END
>  <Dataset>  (83) 
ChEMBL_Kinases

>  <Ligand_Instance>  (83) 
nan

>  <PDB_ID>  (83) 
nan

>  <Standardized_SMILES>  (83) 
Cc1noc(-c2ccc3nc(Nc4cc(C(C)N5CCN(C(=O)CC(F)(F)F)CC5)ccn4)[nH]c3c2)n1

>  <Name>  (83) 
nan

>  <Pocket>  (83) 
nan

>  <ATP_Site>  (83) 
nan

>  <Peripheral>  (83) 
nan

>  <Num_H_Atoms_ProtBoundConf>  (83) 
nan

>  <Num_Resolved_Atoms>  (83) 
nan

>  <Num_Not_Resolved_Atoms>  (83) 
nan

$$$$
CHEMBL3691980
     RDKit          3D

  0  0  0  0  0  0  0  0  0  0999 V3000
M  V30 BEGIN CTAB
M  V30 COUNTS 76 80 0 0 0
M  V30 BEGIN ATOM
M  V30 1 C 1.949832 -3.931189 2.637031 0
M  V30 2 C 2.221179 -3.126872 3.896113 0
M  V30 3 C 1.176013 -3.401733 4.953180 0
M  V30 4 N 2.254382 -1.729134 3.521715 0
M  V30 5 C 3.375142 -0.885549 3.670767 0
M  V30 6 O 4.382203 -1.458257 4.172923 0
M  V30 7 C 3.434726 0.522600 3.301723 0
M  V30 8 C 4.633422 1.146299 3.566552 0
M  V30 9 C 4.742229 2.485410 3.232468 0
M  V30 10 C 3.658358 3.111257 2.660825 0
M  V30 11 F 3.819786 4.415454 2.355448 0
M  V30 12 C 2.454020 2.515960 2.385814 0
M  V30 13 C 1.282351 3.121695 1.782646 0
M  V30 14 C 1.092948 4.408627 1.350669 0
M  V30 15 C -0.045602 4.898801 0.788202 0
M  V30 16 C -1.118534 4.073116 0.619379 0
M  V30 17 N -2.340400 4.508932 0.040886 0
M  V30 18 C -0.944329 2.774371 1.048869 0
M  V30 19 C -2.049189 1.833938 0.894225 0
M  V30 20 O -3.130294 2.193301 0.370270 0
M  V30 21 N -1.939603 0.503615 1.324143 0
M  V30 22 C -2.946822 -0.521320 1.229682 0
M  V30 23 C -3.887260 -0.741848 2.214353 0
M  V30 24 N -4.814559 -1.730711 2.066987 0
M  V30 25 C -4.729849 -2.447013 0.911611 0
M  V30 26 C -3.810442 -2.270393 -0.107299 0
M  V30 27 C -2.890775 -1.279175 0.053410 0
M  V30 28 C -1.885246 -1.027515 -0.975284 0 CFG=1
M  V30 29 C -0.642247 -1.818838 -0.731613 0
M  V30 30 C -0.119769 -2.570476 -1.907992 0 CFG=1
M  V30 31 N -0.800429 -3.838206 -2.096146 0
M  V30 32 C -0.075933 -1.728691 -3.167096 0 CFG=1
M  V30 33 N 0.324498 -2.513719 -4.317951 0
M  V30 34 C -0.304496 -3.620838 -4.805926 0
M  V30 35 C 0.389225 -4.073736 -5.908966 0
M  V30 36 N 1.421983 -3.239063 -6.071434 0
M  V30 37 N 1.355330 -2.343891 -5.130560 0
M  V30 38 C -1.302200 -0.901219 -3.388432 0 CFG=1
M  V30 39 C -1.850763 -1.229571 -4.771199 0
M  V30 40 C -2.411059 -1.169106 -2.383450 0
M  V30 41 N 0.194441 2.355688 1.591621 0
M  V30 42 C 2.393562 1.184477 2.735448 0
M  V30 43 H 0.933001 -3.680414 2.245173 0
M  V30 44 H 2.691756 -3.613675 1.875336 0
M  V30 45 H 2.071228 -5.016681 2.787642 0
M  V30 46 H 3.196958 -3.465416 4.299416 0
M  V30 47 H 0.589157 -2.493110 5.200970 0
M  V30 48 H 0.463932 -4.150380 4.541441 0
M  V30 49 H 1.631078 -3.851062 5.857694 0
M  V30 50 H 1.379640 -1.332646 3.114466 0
M  V30 51 H 5.494795 0.676568 4.013560 0
M  V30 52 H 5.662273 3.020157 3.419540 0
M  V30 53 H 1.917103 5.091949 1.466239 0
M  V30 54 H -0.104702 5.925696 0.477916 0
M  V30 55 H -3.221325 4.741560 0.553057 0
M  V30 56 H -2.299299 4.588462 -1.009208 0
M  V30 57 H -1.023388 0.233698 1.759402 0
M  V30 58 H -3.879798 -0.121730 3.104161 0
M  V30 59 H -5.497648 -3.221502 0.855199 0
M  V30 60 H -3.838047 -2.893815 -0.972806 0
M  V30 61 H -1.610627 0.051429 -0.887096 0
M  V30 62 H 0.197290 -1.173355 -0.340087 0
M  V30 63 H -0.806366 -2.558472 0.083636 0
M  V30 64 H 0.944846 -2.844370 -1.643482 0
M  V30 65 H -1.137854 -4.151476 -1.136059 0
M  V30 66 H -0.107063 -4.596734 -2.353649 0
M  V30 67 H 0.766796 -0.994568 -2.994495 0
M  V30 68 H -1.196702 -4.101797 -4.429822 0
M  V30 69 H 0.163952 -4.936817 -6.542462 0
M  V30 70 H -1.086106 0.206444 -3.418191 0
M  V30 71 H -2.507545 -2.108089 -4.658758 0
M  V30 72 H -2.515643 -0.380867 -5.061641 0
M  V30 73 H -1.022034 -1.367190 -5.493279 0
M  V30 74 H -2.844437 -2.134637 -2.627908 0
M  V30 75 H -3.181561 -0.394651 -2.576991 0
M  V30 76 H 1.493111 0.612186 2.564927 0
M  V30 END ATOM
M  V30 BEGIN BOND
M  V30 1 1 1 2
M  V30 2 1 2 3
M  V30 3 1 2 4
M  V30 4 1 4 5
M  V30 5 2 5 6
M  V30 6 1 5 7
M  V30 7 2 7 8
M  V30 8 1 8 9
M  V30 9 2 9 10
M  V30 10 1 10 11
M  V30 11 1 10 12
M  V30 12 1 12 13
M  V30 13 2 13 14
M  V30 14 1 14 15
M  V30 15 2 15 16
M  V30 16 1 16 17
M  V30 17 1 16 18
M  V30 18 1 18 19
M  V30 19 2 19 20
M  V30 20 1 19 21
M  V30 21 1 21 22
M  V30 22 2 22 23
M  V30 23 1 23 24
M  V30 24 2 24 25
M  V30 25 1 25 26
M  V30 26 2 26 27
M  V30 27 1 27 28
M  V30 28 1 28 29
M  V30 29 1 29 30
M  V30 30 1 30 31
M  V30 31 1 30 32
M  V30 32 1 32 33
M  V30 33 1 33 34
M  V30 34 2 34 35
M  V30 35 1 35 36
M  V30 36 2 36 37
M  V30 37 1 32 38
M  V30 38 1 38 39
M  V30 39 1 38 40
M  V30 40 2 18 41
M  V30 41 2 12 42
M  V30 42 1 42 7
M  V30 43 1 41 13
M  V30 44 1 27 22
M  V30 45 1 40 28
M  V30 46 1 37 33
M  V30 47 1 1 43
M  V30 48 1 1 44
M  V30 49 1 1 45
M  V30 50 1 2 46
M  V30 51 1 3 47
M  V30 52 1 3 48
M  V30 53 1 3 49
M  V30 54 1 4 50
M  V30 55 1 8 51
M  V30 56 1 9 52
M  V30 57 1 14 53
M  V30 58 1 15 54
M  V30 59 1 17 55
M  V30 60 1 17 56
M  V30 61 1 21 57
M  V30 62 1 23 58
M  V30 63 1 25 59
M  V30 64 1 26 60
M  V30 65 1 28 61 CFG=3
M  V30 66 1 29 62
M  V30 67 1 29 63
M  V30 68 1 30 64 CFG=1
M  V30 69 1 31 65
M  V30 70 1 31 66
M  V30 71 1 32 67 CFG=1
M  V30 72 1 34 68
M  V30 73 1 35 69
M  V30 74 1 38 70 CFG=3
M  V30 75 1 39 71
M  V30 76 1 39 72
M  V30 77 1 39 73
M  V30 78 1 40 74
M  V30 79 1 40 75
M  V30 80 1 42 76
M  V30 END BOND
M  V30 END CTAB
M  END
>  <Dataset>  (84) 
ChEMBL_Kinases

>  <Ligand_Instance>  (84) 
nan

>  <PDB_ID>  (84) 
nan

>  <Standardized_SMILES>  (84) 
CC(C)NC(=O)c1ccc(F)c(-c2ccc(N)c(C(=O)Nc3cnccc3[C@H]3C[C@@H](N)[C@@H](n4ccnn4)[C@@H](C)C3)n2)c1

>  <Name>  (84) 
nan

>  <Pocket>  (84) 
nan

>  <ATP_Site>  (84) 
nan

>  <Peripheral>  (84) 
nan

>  <Num_H_Atoms_ProtBoundConf>  (84) 
nan

>  <Num_Resolved_Atoms>  (84) 
nan

>  <Num_Not_Resolved_Atoms>  (84) 
nan

$$$$
CHEMBL4457016
     RDKit          3D

  0  0  0  0  0  0  0  0  0  0999 V3000
M  V30 BEGIN CTAB
M  V30 COUNTS 25 26 0 0 0
M  V30 BEGIN ATOM
M  V30 1 N 0.052076 -3.212575 4.414846 0
M  V30 2 C 1.026633 -2.237501 4.110809 0
M  V30 3 O 1.954894 -2.113191 4.933803 0
M  V30 4 C 0.727061 -1.560613 2.855444 0
M  V30 5 C -0.336433 -1.748793 1.999399 0
M  V30 6 C -0.389466 -0.970498 0.864324 0
M  V30 7 C 0.553873 -0.020292 0.537446 0
M  V30 8 C 0.345901 0.719738 -0.708774 0
M  V30 9 C -0.920076 1.003681 -1.183126 0
M  V30 10 C -1.136270 1.707793 -2.374465 0
M  V30 11 C -0.035879 2.131936 -3.097418 0
M  V30 12 N 1.224227 1.858647 -2.641344 0
M  V30 13 C 1.399064 1.176072 -1.486517 0
M  V30 14 C 1.605617 0.150647 1.404604 0
M  V30 15 C 1.678249 -0.614924 2.542624 0
M  V30 16 Cl 3.064937 -0.298160 3.572700 0
M  V30 17 H -0.447416 -2.962023 5.321131 0
M  V30 18 H -0.665701 -3.922708 4.646700 0
M  V30 19 H -1.030981 -2.508700 2.325260 0
M  V30 20 H -1.263573 -1.181688 0.240153 0
M  V30 21 H -1.799341 0.691306 -0.649139 0
M  V30 22 H -2.123562 1.931695 -2.748246 0
M  V30 23 H -0.175746 2.679957 -4.019465 0
M  V30 24 H 2.430194 0.987954 -1.168672 0
M  V30 25 H 2.347164 0.907605 1.137882 0
M  V30 END ATOM
M  V30 BEGIN BOND
M  V30 1 1 1 2
M  V30 2 2 2 3
M  V30 3 1 2 4
M  V30 4 2 4 5
M  V30 5 1 5 6
M  V30 6 2 6 7
M  V30 7 1 7 8
M  V30 8 2 8 9
M  V30 9 1 9 10
M  V30 10 2 10 11
M  V30 11 1 11 12
M  V30 12 2 12 13
M  V30 13 1 7 14
M  V30 14 2 14 15
M  V30 15 1 15 16
M  V30 16 1 15 4
M  V30 17 1 13 8
M  V30 18 1 1 17
M  V30 19 1 1 18
M  V30 20 1 5 19
M  V30 21 1 6 20
M  V30 22 1 9 21
M  V30 23 1 10 22
M  V30 24 1 11 23
M  V30 25 1 13 24
M  V30 26 1 14 25
M  V30 END BOND
M  V30 END CTAB
M  END
>  <Dataset>  (85) 
ChEMBL_Kinases

>  <Ligand_Instance>  (85) 
nan

>  <PDB_ID>  (85) 
nan

>  <Standardized_SMILES>  (85) 
NC(=O)c1ccc(-c2cccnc2)cc1Cl

>  <Name>  (85) 
nan

>  <Pocket>  (85) 
nan

>  <ATP_Site>  (85) 
nan

>  <Peripheral>  (85) 
nan

>  <Num_H_Atoms_ProtBoundConf>  (85) 
nan

>  <Num_Resolved_Atoms>  (85) 
nan

>  <Num_Not_Resolved_Atoms>  (85) 
nan

$$$$
CHEMBL2401999
     RDKit          3D

  0  0  0  0  0  0  0  0  0  0999 V3000
M  V30 BEGIN CTAB
M  V30 COUNTS 46 49 0 0 0
M  V30 BEGIN ATOM
M  V30 1 C -1.708529 3.089851 0.771102 0
M  V30 2 C -0.231642 2.996728 0.744493 0
M  V30 3 C 0.607745 4.084190 0.708504 0
M  V30 4 C 2.000092 3.958935 0.684141 0
M  V30 5 C 2.558115 2.676434 0.696953 0
M  V30 6 C 4.011900 2.570468 0.671041 0
M  V30 7 O 4.660575 3.646043 0.638752 0
M  V30 8 N 4.691704 1.348591 0.680563 0
M  V30 9 C 6.099931 1.085368 0.658412 0
M  V30 10 C 6.672975 -0.063167 1.469028 0
M  V30 11 C 6.663930 -0.102180 -0.023098 0
M  V30 12 C 1.686248 1.629566 0.732821 0
M  V30 13 C 0.324374 1.726530 0.757111 0
M  V30 14 N -0.464271 0.542299 0.793834 0
M  V30 15 C -0.890032 -0.108703 1.969844 0
M  V30 16 O -0.619407 0.286090 3.107129 0
M  V30 17 C -1.703736 -1.327973 1.747584 0
M  V30 18 C -2.237638 -2.138602 2.666766 0
M  V30 19 C -2.959291 -3.218058 2.287843 0
M  V30 20 C -3.092545 -3.404265 0.906783 0
M  V30 21 C -3.796538 -4.453408 0.142278 0
M  V30 22 C -3.727936 -4.337074 -1.228913 0
M  V30 23 N -4.379087 -5.307523 -1.935431 0
M  V30 24 C -5.026645 -6.286021 -1.262990 0
M  V30 25 C -5.089635 -6.394088 0.124217 0
M  V30 26 F -5.763999 -7.412007 0.711088 0
M  V30 27 C -4.434427 -5.417842 0.861287 0
M  V30 28 S -2.195472 -2.050737 0.212307 0
M  V30 29 H -2.209139 2.337401 0.134721 0
M  V30 30 H -2.118240 3.026396 1.806784 0
M  V30 31 H -2.043959 4.078464 0.386383 0
M  V30 32 H 0.163524 5.078713 0.698789 0
M  V30 33 H 2.603458 4.856826 0.656132 0
M  V30 34 H 4.152000 0.455168 0.707413 0
M  V30 35 H 6.764953 1.989663 0.628854 0
M  V30 36 H 7.604045 0.077586 2.036257 0
M  V30 37 H 5.885842 -0.650659 1.987956 0
M  V30 38 H 6.017468 -0.871686 -0.492766 0
M  V30 39 H 7.664677 -0.036400 -0.497823 0
M  V30 40 H 2.120865 0.640869 0.742630 0
M  V30 41 H -0.663897 0.252570 -0.190347 0
M  V30 42 H -2.093590 -1.933183 3.742005 0
M  V30 43 H -3.446882 -3.956158 2.910392 0
M  V30 44 H -3.195623 -3.533318 -1.721571 0
M  V30 45 H -5.528164 -7.032733 -1.883373 0
M  V30 46 H -4.445799 -5.445431 1.942016 0
M  V30 END ATOM
M  V30 BEGIN BOND
M  V30 1 1 1 2
M  V30 2 2 2 3
M  V30 3 1 3 4
M  V30 4 2 4 5
M  V30 5 1 5 6
M  V30 6 2 6 7
M  V30 7 1 6 8
M  V30 8 1 8 9
M  V30 9 1 9 10
M  V30 10 1 10 11
M  V30 11 1 5 12
M  V30 12 2 12 13
M  V30 13 1 13 14
M  V30 14 1 14 15
M  V30 15 2 15 16
M  V30 16 1 15 17
M  V30 17 2 17 18
M  V30 18 1 18 19
M  V30 19 2 19 20
M  V30 20 1 20 21
M  V30 21 2 21 22
M  V30 22 1 22 23
M  V30 23 2 23 24
M  V30 24 1 24 25
M  V30 25 1 25 26
M  V30 26 2 25 27
M  V30 27 1 20 28
M  V30 28 1 13 2
M  V30 29 1 28 17
M  V30 30 1 11 9
M  V30 31 1 27 21
M  V30 32 1 1 29
M  V30 33 1 1 30
M  V30 34 1 1 31
M  V30 35 1 3 32
M  V30 36 1 4 33
M  V30 37 1 8 34
M  V30 38 1 9 35
M  V30 39 1 10 36
M  V30 40 1 10 37
M  V30 41 1 11 38
M  V30 42 1 11 39
M  V30 43 1 12 40
M  V30 44 1 14 41
M  V30 45 1 18 42
M  V30 46 1 19 43
M  V30 47 1 22 44
M  V30 48 1 24 45
M  V30 49 1 27 46
M  V30 END BOND
M  V30 END CTAB
M  END
>  <Dataset>  (86) 
ChEMBL_Kinases

>  <Ligand_Instance>  (86) 
nan

>  <PDB_ID>  (86) 
nan

>  <Standardized_SMILES>  (86) 
Cc1ccc(C(=O)NC2CC2)cc1NC(=O)c1ccc(-c2cncc(F)c2)s1

>  <Name>  (86) 
nan

>  <Pocket>  (86) 
nan

>  <ATP_Site>  (86) 
nan

>  <Peripheral>  (86) 
nan

>  <Num_H_Atoms_ProtBoundConf>  (86) 
nan

>  <Num_Resolved_Atoms>  (86) 
nan

>  <Num_Not_Resolved_Atoms>  (86) 
nan

$$$$
CHEMBL218419
     RDKit          3D

  0  0  0  0  0  0  0  0  0  0999 V3000
M  V30 BEGIN CTAB
M  V30 COUNTS 52 54 0 0 0
M  V30 BEGIN ATOM
M  V30 1 C -3.458643 -4.713334 -0.292970 0
M  V30 2 O -2.391720 -5.582697 0.203241 0
M  V30 3 C -1.186943 -4.960156 0.349843 0
M  V30 4 C 0.009969 -5.326080 0.699900 0
M  V30 5 C 1.286547 -4.917226 0.904728 0
M  V30 6 C 1.425785 -3.513556 0.643140 0
M  V30 7 O 2.054972 -2.264321 0.538752 0
M  V30 8 C 2.145672 -1.558822 -0.661260 0
M  V30 9 N 2.310863 -0.300045 -0.276039 0
M  V30 10 C 2.395870 0.718895 -1.216787 0
M  V30 11 C 2.301893 1.944975 -0.462707 0
M  V30 12 O 2.108454 2.962370 -1.286583 0
M  V30 13 N 2.298888 2.515082 0.748223 0
M  V30 14 C 2.288597 3.145927 2.001889 0
M  V30 15 C 0.891034 2.724550 2.564925 0
M  V30 16 C 1.018192 1.633395 3.506405 0
M  V30 17 C -0.261023 1.234070 3.810763 0
M  V30 18 C -1.488289 1.622523 3.438400 0
M  V30 19 S -3.100051 1.093181 3.746974 0
M  V30 20 C -3.889874 0.452456 2.268683 0
M  V30 21 O -3.979471 2.264649 4.208917 0
M  V30 22 O -3.164062 0.013504 4.772641 0
M  V30 23 C -1.337881 2.643619 2.565500 0
M  V30 24 C -0.262033 3.318383 2.021481 0
M  V30 25 C 2.350548 0.532405 -2.552594 0
M  V30 26 C 2.183839 -0.779092 -2.905309 0
M  V30 27 N 2.006594 -1.082807 -4.264008 0
M  V30 28 C 2.083842 -1.795111 -1.988605 0
M  V30 29 C 1.865904 -3.143744 -2.293160 0
M  V30 30 N 1.702650 -4.301690 -2.553509 0
M  V30 31 C 0.144834 -2.846610 0.203385 0
M  V30 32 C -1.093903 -3.570825 0.073745 0
M  V30 33 H -4.408152 -5.185811 -0.349301 0
M  V30 34 H -3.106132 -4.262210 -1.291722 0
M  V30 35 H -3.514583 -3.869769 0.393933 0
M  V30 36 H 0.094334 -6.410607 1.006430 0
M  V30 37 H 2.288532 -5.029456 1.151272 0
M  V30 38 H 2.507664 1.527464 1.170338 0
M  V30 39 H 2.264963 4.246795 1.949931 0
M  V30 40 H 3.008722 2.877547 2.746937 0
M  V30 41 H 1.982495 1.274266 3.821637 0
M  V30 42 H -0.234620 0.397147 4.545644 0
M  V30 43 H -4.967346 0.661698 2.281655 0
M  V30 44 H -3.653833 -0.590898 2.143701 0
M  V30 45 H -3.413589 1.001993 1.398636 0
M  V30 46 H -2.194888 3.155035 2.127765 0
M  V30 47 H -0.107933 4.108901 1.350829 0
M  V30 48 H 2.461401 1.419117 -3.110570 0
M  V30 49 H 0.971129 -1.366576 -4.323090 0
M  V30 50 H 2.232593 -1.187801 -5.250642 0
M  V30 51 H -0.113422 -1.804736 -0.072086 0
M  V30 52 H -1.994048 -3.022511 -0.225610 0
M  V30 END ATOM
M  V30 BEGIN BOND
M  V30 1 1 1 2
M  V30 2 1 2 3
M  V30 3 2 3 4
M  V30 4 1 4 5
M  V30 5 2 5 6
M  V30 6 1 6 7
M  V30 7 1 7 8
M  V30 8 2 8 9
M  V30 9 1 9 10
M  V30 10 1 10 11
M  V30 11 2 11 12
M  V30 12 1 11 13
M  V30 13 1 13 14
M  V30 14 1 14 15
M  V30 15 2 15 16
M  V30 16 1 16 17
M  V30 17 2 17 18
M  V30 18 1 18 19
M  V30 19 1 19 20
M  V30 20 2 19 21
M  V30 21 2 19 22
M  V30 22 1 18 23
M  V30 23 2 23 24
M  V30 24 2 10 25
M  V30 25 1 25 26
M  V30 26 1 26 27
M  V30 27 2 26 28
M  V30 28 1 28 29
M  V30 29 3 29 30
M  V30 30 1 6 31
M  V30 31 2 31 32
M  V30 32 1 32 3
M  V30 33 1 28 8
M  V30 34 1 24 15
M  V30 35 1 1 33
M  V30 36 1 1 34
M  V30 37 1 1 35
M  V30 38 1 4 36
M  V30 39 1 5 37
M  V30 40 1 13 38
M  V30 41 1 14 39
M  V30 42 1 14 40
M  V30 43 1 16 41
M  V30 44 1 17 42
M  V30 45 1 20 43
M  V30 46 1 20 44
M  V30 47 1 20 45
M  V30 48 1 23 46
M  V30 49 1 24 47
M  V30 50 1 25 48
M  V30 51 1 27 49
M  V30 52 1 27 50
M  V30 53 1 31 51
M  V30 54 1 32 52
M  V30 END BOND
M  V30 END CTAB
M  END
>  <Dataset>  (87) 
ChEMBL_Kinases

>  <Ligand_Instance>  (87) 
nan

>  <PDB_ID>  (87) 
nan

>  <Standardized_SMILES>  (87) 
COc1ccc(Oc2nc(C(=O)NCc3ccc(S(C)(=O)=O)cc3)cc(N)c2C#N)cc1

>  <Name>  (87) 
nan

>  <Pocket>  (87) 
nan

>  <ATP_Site>  (87) 
nan

>  <Peripheral>  (87) 
nan

>  <Num_H_Atoms_ProtBoundConf>  (87) 
nan

>  <Num_Resolved_Atoms>  (87) 
nan

>  <Num_Not_Resolved_Atoms>  (87) 
nan

$$$$
CHEMBL3692212
     RDKit          3D

  0  0  0  0  0  0  0  0  0  0999 V3000
M  V30 BEGIN CTAB
M  V30 COUNTS 64 68 0 0 0
M  V30 BEGIN ATOM
M  V30 1 C 2.366924 -2.712995 4.251448 0
M  V30 2 C 3.120559 -1.629613 3.550096 0
M  V30 3 C 2.655217 -0.556955 2.813306 0
M  V30 4 C 3.713059 0.192672 2.346788 0
M  V30 5 N 3.709315 1.371429 1.555052 0
M  V30 6 C 2.517223 1.992248 1.097509 0
M  V30 7 N 1.268990 1.563317 1.343730 0
M  V30 8 C 0.148871 2.149379 0.912050 0
M  V30 9 C -1.165261 1.625834 1.256835 0
M  V30 10 C -1.749918 0.589793 0.342611 0
M  V30 11 C -1.885983 1.129314 -1.017196 0
M  V30 12 O -3.054430 1.410028 -1.454643 0
M  V30 13 N -0.858097 1.388779 -1.950083 0
M  V30 14 C -1.069657 1.929901 -3.277746 0
M  V30 15 C 0.097120 2.761406 -3.852138 0
M  V30 16 C -0.107810 1.374692 -4.320883 0
M  V30 17 C -3.116352 0.246717 0.913807 0
M  V30 18 C -3.666115 -1.030641 0.369589 0
M  V30 19 N -2.771959 -2.144938 0.494854 0
M  V30 20 C -3.181477 -3.394149 -0.034411 0
M  V30 21 O -4.322490 -3.351541 -0.564083 0
M  V30 22 C -2.198768 -4.456479 0.146716 0
M  V30 23 C -1.270951 -4.604218 -0.873000 0
M  V30 24 C -0.329735 -5.584406 -0.751339 0
M  V30 25 C -0.239862 -6.445052 0.328329 0
M  V30 26 C -1.183377 -6.258401 1.314576 0
M  V30 27 Cl -1.141072 -7.312515 2.726294 0
M  V30 28 C -2.156179 -5.287312 1.247271 0
M  V30 29 F -3.084593 -5.097118 2.208777 0
M  V30 30 C -1.559032 -1.755509 1.174552 0
M  V30 31 C -0.925180 -0.682102 0.320793 0
M  V30 32 C 0.216331 3.312183 0.132766 0
M  V30 33 C 1.469959 3.806367 -0.157173 0
M  V30 34 C 2.569395 3.134387 0.331557 0
M  V30 35 F 3.788699 3.668960 0.013325 0
M  V30 36 N 4.792229 -0.442958 2.811467 0
M  V30 37 N 4.454353 -1.505039 3.513046 0
M  V30 38 H 1.980100 -3.480524 3.561924 0
M  V30 39 H 3.008096 -3.126657 5.053175 0
M  V30 40 H 1.460222 -2.304569 4.783868 0
M  V30 41 H 1.611214 -0.373201 2.653320 0
M  V30 42 H 4.618664 1.807142 1.293416 0
M  V30 43 H -1.131355 1.224573 2.319561 0
M  V30 44 H -1.900686 2.468864 1.280413 0
M  V30 45 H 0.117178 1.158469 -1.665220 0
M  V30 46 H -2.095537 2.165623 -3.606553 0
M  V30 47 H -0.139295 3.592052 -4.527333 0
M  V30 48 H 0.940958 2.989226 -3.143842 0
M  V30 49 H 0.659763 0.640394 -4.012742 0
M  V30 50 H -0.499595 1.214679 -5.333903 0
M  V30 51 H -3.794175 1.069573 0.619239 0
M  V30 52 H -3.095022 0.240115 2.025257 0
M  V30 53 H -4.572478 -1.271032 0.959609 0
M  V30 54 H -4.014943 -0.904526 -0.677380 0
M  V30 55 H -1.279146 -3.960661 -1.758414 0
M  V30 56 H 0.392978 -5.691704 -1.556321 0
M  V30 57 H 0.520468 -7.201446 0.377267 0
M  V30 58 H -0.867906 -2.624979 1.159449 0
M  V30 59 H -1.721654 -1.343153 2.171109 0
M  V30 60 H -0.934522 -1.055924 -0.723567 0
M  V30 61 H 0.109934 -0.564249 0.628646 0
M  V30 62 H -0.661536 3.831039 -0.245540 0
M  V30 63 H 1.526731 4.692496 -0.750862 0
M  V30 64 H 5.122059 -2.172465 3.984690 0
M  V30 END ATOM
M  V30 BEGIN BOND
M  V30 1 1 1 2
M  V30 2 2 2 3
M  V30 3 1 3 4
M  V30 4 1 4 5
M  V30 5 1 5 6
M  V30 6 2 6 7
M  V30 7 1 7 8
M  V30 8 1 8 9
M  V30 9 1 9 10
M  V30 10 1 10 11
M  V30 11 2 11 12
M  V30 12 1 11 13
M  V30 13 1 13 14
M  V30 14 1 14 15
M  V30 15 1 15 16
M  V30 16 1 10 17
M  V30 17 1 17 18
M  V30 18 1 18 19
M  V30 19 1 19 20
M  V30 20 2 20 21
M  V30 21 1 20 22
M  V30 22 2 22 23
M  V30 23 1 23 24
M  V30 24 2 24 25
M  V30 25 1 25 26
M  V30 26 1 26 27
M  V30 27 2 26 28
M  V30 28 1 28 29
M  V30 29 1 19 30
M  V30 30 1 30 31
M  V30 31 2 8 32
M  V30 32 1 32 33
M  V30 33 2 33 34
M  V30 34 1 34 35
M  V30 35 2 4 36
M  V30 36 1 36 37
M  V30 37 1 37 2
M  V30 38 1 34 6
M  V30 39 1 31 10
M  V30 40 1 16 14
M  V30 41 1 28 22
M  V30 42 1 1 38
M  V30 43 1 1 39
M  V30 44 1 1 40
M  V30 45 1 3 41
M  V30 46 1 5 42
M  V30 47 1 9 43
M  V30 48 1 9 44
M  V30 49 1 13 45
M  V30 50 1 14 46
M  V30 51 1 15 47
M  V30 52 1 15 48
M  V30 53 1 16 49
M  V30 54 1 16 50
M  V30 55 1 17 51
M  V30 56 1 17 52
M  V30 57 1 18 53
M  V30 58 1 18 54
M  V30 59 1 23 55
M  V30 60 1 24 56
M  V30 61 1 25 57
M  V30 62 1 30 58
M  V30 63 1 30 59
M  V30 64 1 31 60
M  V30 65 1 31 61
M  V30 66 1 32 62
M  V30 67 1 33 63
M  V30 68 1 37 64
M  V30 END BOND
M  V30 END CTAB
M  END
>  <Dataset>  (88) 
ChEMBL_Kinases

>  <Ligand_Instance>  (88) 
nan

>  <PDB_ID>  (88) 
nan

>  <Standardized_SMILES>  (88) 
Cc1cc(Nc2nc(CC3(C(=O)NC4CC4)CCN(C(=O)c4cccc(Cl)c4F)CC3)ccc2F)n[nH]1

>  <Name>  (88) 
nan

>  <Pocket>  (88) 
nan

>  <ATP_Site>  (88) 
nan

>  <Peripheral>  (88) 
nan

>  <Num_H_Atoms_ProtBoundConf>  (88) 
nan

>  <Num_Resolved_Atoms>  (88) 
nan

>  <Num_Not_Resolved_Atoms>  (88) 
nan

$$$$
CHEMBL2402000
     RDKit          3D

  0  0  0  0  0  0  0  0  0  0999 V3000
M  V30 BEGIN CTAB
M  V30 COUNTS 59 63 0 0 0
M  V30 BEGIN ATOM
M  V30 1 C 2.911497 -1.833112 3.139329 0
M  V30 2 C 3.401063 -0.568221 2.495493 0
M  V30 3 C 4.592871 -0.045669 2.953602 0
M  V30 4 C 5.097396 1.114978 2.403913 0
M  V30 5 C 4.400296 1.746991 1.393748 0
M  V30 6 C 4.780723 2.972299 0.698481 0
M  V30 7 O 4.165836 3.570480 -0.211715 0
M  V30 8 N 5.997445 3.642762 1.036847 0
M  V30 9 C 6.429058 4.862999 0.382122 0
M  V30 10 C 7.274965 5.852500 1.148207 0
M  V30 11 C 7.955979 5.000244 0.134237 0
M  V30 12 C 3.205838 1.223771 0.934369 0
M  V30 13 C 2.690649 0.049406 1.487038 0
M  V30 14 N 1.480676 -0.593385 1.108913 0
M  V30 15 C 0.279176 -0.274444 1.735452 0
M  V30 16 O -0.006875 0.523761 2.641312 0
M  V30 17 C -0.875337 -1.061396 1.191878 0
M  V30 18 C -1.053997 -2.032469 0.216419 0
M  V30 19 C -2.315404 -2.497134 0.036112 0
M  V30 20 C -3.332492 -2.057426 0.744653 0
M  V30 21 C -4.752071 -2.290389 0.882888 0
M  V30 22 C -5.483747 -1.701066 1.892367 0
M  V30 23 N -6.815152 -1.910884 2.061564 0
M  V30 24 C -7.494663 -2.719525 1.235326 0
M  V30 25 C -6.837043 -3.353903 0.189848 0
M  V30 26 C -5.500883 -3.104042 0.069487 0
M  V30 27 N -4.935477 -3.738453 -1.068397 0
M  V30 28 C -4.800291 -2.752389 -2.155700 0
M  V30 29 C -4.068285 -3.390453 -3.291435 0
M  V30 30 O -4.601726 -4.683768 -3.462538 0
M  V30 31 C -4.033532 -5.479537 -2.469264 0
M  V30 32 C -4.564404 -5.161723 -1.104886 0
M  V30 33 S -2.594482 -0.861207 1.820674 0
M  V30 34 H 1.798894 -1.839096 3.195545 0
M  V30 35 H 3.199394 -2.730784 2.552837 0
M  V30 36 H 3.372402 -1.945108 4.142948 0
M  V30 37 H 5.192433 -0.492763 3.745987 0
M  V30 38 H 6.021070 1.592933 2.701118 0
M  V30 39 H 6.650502 3.296884 1.774862 0
M  V30 40 H 5.807917 5.310310 -0.407534 0
M  V30 41 H 7.387731 5.577608 2.238405 0
M  V30 42 H 7.150357 6.931951 1.020385 0
M  V30 43 H 8.259901 5.525511 -0.789415 0
M  V30 44 H 8.592253 4.152661 0.436167 0
M  V30 45 H 2.590683 1.648953 0.148135 0
M  V30 46 H 1.607653 -1.283806 0.354824 0
M  V30 47 H -0.125098 -2.279662 -0.269464 0
M  V30 48 H -2.433908 -3.259326 -0.716687 0
M  V30 49 H -5.065191 -1.029579 2.627429 0
M  V30 50 H -8.551442 -2.852497 1.414628 0
M  V30 51 H -7.424614 -3.996054 -0.450003 0
M  V30 52 H -5.860546 -2.586547 -2.482052 0
M  V30 53 H -4.399354 -1.804759 -1.796274 0
M  V30 54 H -3.005979 -3.510882 -3.017502 0
M  V30 55 H -4.183337 -2.798583 -4.230517 0
M  V30 56 H -4.336948 -6.525774 -2.729916 0
M  V30 57 H -2.929768 -5.393239 -2.450536 0
M  V30 58 H -3.770264 -5.382057 -0.363080 0
M  V30 59 H -5.473480 -5.790828 -0.911082 0
M  V30 END ATOM
M  V30 BEGIN BOND
M  V30 1 1 1 2
M  V30 2 2 2 3
M  V30 3 1 3 4
M  V30 4 2 4 5
M  V30 5 1 5 6
M  V30 6 2 6 7
M  V30 7 1 6 8
M  V30 8 1 8 9
M  V30 9 1 9 10
M  V30 10 1 10 11
M  V30 11 1 5 12
M  V30 12 2 12 13
M  V30 13 1 13 14
M  V30 14 1 14 15
M  V30 15 2 15 16
M  V30 16 1 15 17
M  V30 17 2 17 18
M  V30 18 1 18 19
M  V30 19 2 19 20
M  V30 20 1 20 21
M  V30 21 2 21 22
M  V30 22 1 22 23
M  V30 23 2 23 24
M  V30 24 1 24 25
M  V30 25 2 25 26
M  V30 26 1 26 27
M  V30 27 1 27 28
M  V30 28 1 28 29
M  V30 29 1 29 30
M  V30 30 1 30 31
M  V30 31 1 31 32
M  V30 32 1 20 33
M  V30 33 1 13 2
M  V30 34 1 33 17
M  V30 35 1 11 9
M  V30 36 1 26 21
M  V30 37 1 32 27
M  V30 38 1 1 34
M  V30 39 1 1 35
M  V30 40 1 1 36
M  V30 41 1 3 37
M  V30 42 1 4 38
M  V30 43 1 8 39
M  V30 44 1 9 40
M  V30 45 1 10 41
M  V30 46 1 10 42
M  V30 47 1 11 43
M  V30 48 1 11 44
M  V30 49 1 12 45
M  V30 50 1 14 46
M  V30 51 1 18 47
M  V30 52 1 19 48
M  V30 53 1 22 49
M  V30 54 1 24 50
M  V30 55 1 25 51
M  V30 56 1 28 52
M  V30 57 1 28 53
M  V30 58 1 29 54
M  V30 59 1 29 55
M  V30 60 1 31 56
M  V30 61 1 31 57
M  V30 62 1 32 58
M  V30 63 1 32 59
M  V30 END BOND
M  V30 END CTAB
M  END
>  <Dataset>  (89) 
ChEMBL_Kinases

>  <Ligand_Instance>  (89) 
nan

>  <PDB_ID>  (89) 
nan

>  <Standardized_SMILES>  (89) 
Cc1ccc(C(=O)NC2CC2)cc1NC(=O)c1ccc(-c2cnccc2N2CCOCC2)s1

>  <Name>  (89) 
nan

>  <Pocket>  (89) 
nan

>  <ATP_Site>  (89) 
nan

>  <Peripheral>  (89) 
nan

>  <Num_H_Atoms_ProtBoundConf>  (89) 
nan

>  <Num_Resolved_Atoms>  (89) 
nan

>  <Num_Not_Resolved_Atoms>  (89) 
nan

$$$$
CHEMBL2402001
     RDKit          3D

  0  0  0  0  0  0  0  0  0  0999 V3000
M  V30 BEGIN CTAB
M  V30 COUNTS 49 52 0 0 0
M  V30 BEGIN ATOM
M  V30 1 C 2.533860 -9.346261 0.461422 0
M  V30 2 C 2.318856 -7.888614 0.200871 0
M  V30 3 C 1.167424 -7.277329 0.647465 0
M  V30 4 C 0.980199 -5.910226 0.395509 0
M  V30 5 C 2.017326 -5.337750 -0.294318 0
M  V30 6 C 1.905979 -3.889671 -0.607104 0
M  V30 7 C 2.743651 -2.990480 -1.276178 0
M  V30 8 C 2.285987 -1.724011 -1.361080 0
M  V30 9 C 1.107940 -1.390678 -0.829622 0
M  V30 10 C 0.471796 -0.030544 -0.845143 0
M  V30 11 O 0.972340 0.985394 -1.367693 0
M  V30 12 N -0.784543 0.053272 -0.208739 0
M  V30 13 C -1.513038 1.273069 -0.140060 0
M  V30 14 C -1.333920 2.150055 0.932362 0
M  V30 15 C -2.057170 3.320059 0.963443 0
M  V30 16 C -1.946772 4.309490 2.039749 0
M  V30 17 O -2.622509 5.371121 2.047128 0
M  V30 18 N -1.088871 4.162922 3.143449 0
M  V30 19 C -0.979429 5.139939 4.207472 0
M  V30 20 C -0.874098 4.578596 5.606580 0
M  V30 21 C 0.277977 5.306423 4.974935 0
M  V30 22 C -2.936046 3.591811 -0.063456 0
M  V30 23 C -3.139443 2.751734 -1.137048 0
M  V30 24 C -2.411169 1.579411 -1.162972 0
M  V30 25 C -2.560215 0.605953 -2.280861 0
M  V30 26 S 0.495957 -2.846819 -0.136001 0
M  V30 27 C 3.173702 -5.919859 -0.750984 0
M  V30 28 N 3.295122 -7.252434 -0.473386 0
M  V30 29 H 3.596743 -9.497488 0.708941 0
M  V30 30 H 2.222530 -9.924827 -0.420226 0
M  V30 31 H 1.938732 -9.594417 1.378985 0
M  V30 32 H 0.384128 -7.799355 1.191380 0
M  V30 33 H 0.115687 -5.338735 0.702039 0
M  V30 34 H 3.665707 -3.415079 -1.650187 0
M  V30 35 H 2.908216 -0.971000 -1.879924 0
M  V30 36 H -1.236703 -0.784006 0.242743 0
M  V30 37 H -0.641912 1.931413 1.736424 0
M  V30 38 H -0.484524 3.312663 3.228341 0
M  V30 39 H -1.624649 6.014950 4.094171 0
M  V30 40 H -1.423375 5.038640 6.434089 0
M  V30 41 H -0.812095 3.472618 5.695898 0
M  V30 42 H 0.505267 6.310143 5.340157 0
M  V30 43 H 1.157986 4.657624 4.747710 0
M  V30 44 H -3.517482 4.503683 -0.065194 0
M  V30 45 H -3.831985 2.967098 -1.945104 0
M  V30 46 H -2.679403 -0.442137 -1.883997 0
M  V30 47 H -3.454376 0.807709 -2.877642 0
M  V30 48 H -1.640040 0.664350 -2.930428 0
M  V30 49 H 3.943556 -5.395871 -1.288318 0
M  V30 END ATOM
M  V30 BEGIN BOND
M  V30 1 1 1 2
M  V30 2 2 2 3
M  V30 3 1 3 4
M  V30 4 2 4 5
M  V30 5 1 5 6
M  V30 6 2 6 7
M  V30 7 1 7 8
M  V30 8 2 8 9
M  V30 9 1 9 10
M  V30 10 2 10 11
M  V30 11 1 10 12
M  V30 12 1 12 13
M  V30 13 2 13 14
M  V30 14 1 14 15
M  V30 15 1 15 16
M  V30 16 2 16 17
M  V30 17 1 16 18
M  V30 18 1 18 19
M  V30 19 1 19 20
M  V30 20 1 20 21
M  V30 21 2 15 22
M  V30 22 1 22 23
M  V30 23 2 23 24
M  V30 24 1 24 25
M  V30 25 1 9 26
M  V30 26 1 5 27
M  V30 27 2 27 28
M  V30 28 1 28 2
M  V30 29 1 26 6
M  V30 30 1 24 13
M  V30 31 1 21 19
M  V30 32 1 1 29
M  V30 33 1 1 30
M  V30 34 1 1 31
M  V30 35 1 3 32
M  V30 36 1 4 33
M  V30 37 1 7 34
M  V30 38 1 8 35
M  V30 39 1 12 36
M  V30 40 1 14 37
M  V30 41 1 18 38
M  V30 42 1 19 39
M  V30 43 1 20 40
M  V30 44 1 20 41
M  V30 45 1 21 42
M  V30 46 1 21 43
M  V30 47 1 22 44
M  V30 48 1 23 45
M  V30 49 1 25 46
M  V30 50 1 25 47
M  V30 51 1 25 48
M  V30 52 1 27 49
M  V30 END BOND
M  V30 END CTAB
M  END
>  <Dataset>  (90) 
ChEMBL_Kinases

>  <Ligand_Instance>  (90) 
nan

>  <PDB_ID>  (90) 
nan

>  <Standardized_SMILES>  (90) 
Cc1ccc(-c2ccc(C(=O)Nc3cc(C(=O)NC4CC4)ccc3C)s2)cn1

>  <Name>  (90) 
nan

>  <Pocket>  (90) 
nan

>  <ATP_Site>  (90) 
nan

>  <Peripheral>  (90) 
nan

>  <Num_H_Atoms_ProtBoundConf>  (90) 
nan

>  <Num_Resolved_Atoms>  (90) 
nan

>  <Num_Not_Resolved_Atoms>  (90) 
nan

$$$$
CHEMBL2402002
     RDKit          3D

  0  0  0  0  0  0  0  0  0  0999 V3000
M  V30 BEGIN CTAB
M  V30 COUNTS 44 47 0 0 0
M  V30 BEGIN ATOM
M  V30 1 C 0.954737 0.391876 4.397621 0
M  V30 2 C 1.694328 0.717178 3.126190 0
M  V30 3 C 2.851710 1.459626 3.208541 0
M  V30 4 C 3.581793 1.794250 2.073968 0
M  V30 5 C 3.088659 1.346032 0.868333 0
M  V30 6 C 3.862364 1.702622 -0.314284 0
M  V30 7 O 4.915895 2.386277 -0.171271 0
M  V30 8 N 3.559109 1.358473 -1.659710 0
M  V30 9 C 4.369493 1.746051 -2.773384 0
M  V30 10 C 4.522083 0.741194 -3.857480 0
M  V30 11 C 3.807505 2.062258 -4.083272 0
M  V30 12 C 1.942853 0.616770 0.837902 0
M  V30 13 C 1.204062 0.270768 1.920512 0
M  V30 14 N 0.006971 -0.486713 1.931287 0
M  V30 15 C -0.699889 -1.056977 0.858674 0
M  V30 16 O -0.268383 -0.915074 -0.301683 0
M  V30 17 C -1.930410 -1.824394 0.975050 0
M  V30 18 C -2.523412 -2.327712 -0.165137 0
M  V30 19 C -3.705809 -3.073220 -0.112210 0
M  V30 20 C -4.329615 -3.336372 1.088746 0
M  V30 21 C -5.471715 -4.020988 1.462933 0
M  V30 22 C -5.558624 -3.923528 2.840509 0
M  V30 23 N -4.511315 -3.208055 3.288277 0
M  V30 24 C -3.747894 -2.838848 2.240510 0
M  V30 25 C -2.582698 -2.107797 2.156314 0
M  V30 26 H 0.795794 -0.724565 4.431379 0
M  V30 27 H 1.555369 0.727814 5.266843 0
M  V30 28 H -0.004350 0.950956 4.337838 0
M  V30 29 H 3.173683 1.774244 4.190089 0
M  V30 30 H 4.476636 2.379214 2.235134 0
M  V30 31 H 2.692589 0.792625 -1.810900 0
M  V30 32 H 5.275079 2.351817 -2.475579 0
M  V30 33 H 3.893884 -0.171018 -3.849721 0
M  V30 34 H 5.566104 0.622355 -4.242331 0
M  V30 35 H 4.382910 2.749488 -4.760820 0
M  V30 36 H 2.737124 2.082313 -4.316026 0
M  V30 37 H 1.632716 0.309823 -0.143124 0
M  V30 38 H -0.471600 -0.686570 2.837018 0
M  V30 39 H -2.109765 -2.174600 -1.154410 0
M  V30 40 H -4.150276 -3.456666 -1.022632 0
M  V30 41 H -6.154338 -4.531559 0.772500 0
M  V30 42 H -6.381274 -4.388734 3.363442 0
M  V30 43 H -4.366002 -3.002068 4.313604 0
M  V30 44 H -2.178197 -1.749384 3.068348 0
M  V30 END ATOM
M  V30 BEGIN BOND
M  V30 1 1 1 2
M  V30 2 2 2 3
M  V30 3 1 3 4
M  V30 4 2 4 5
M  V30 5 1 5 6
M  V30 6 2 6 7
M  V30 7 1 6 8
M  V30 8 1 8 9
M  V30 9 1 9 10
M  V30 10 1 10 11
M  V30 11 1 5 12
M  V30 12 2 12 13
M  V30 13 1 13 14
M  V30 14 1 14 15
M  V30 15 2 15 16
M  V30 16 1 15 17
M  V30 17 2 17 18
M  V30 18 1 18 19
M  V30 19 2 19 20
M  V30 20 1 20 21
M  V30 21 2 21 22
M  V30 22 1 22 23
M  V30 23 1 23 24
M  V30 24 2 24 25
M  V30 25 1 13 2
M  V30 26 1 25 17
M  V30 27 1 11 9
M  V30 28 1 24 20
M  V30 29 1 1 26
M  V30 30 1 1 27
M  V30 31 1 1 28
M  V30 32 1 3 29
M  V30 33 1 4 30
M  V30 34 1 8 31
M  V30 35 1 9 32
M  V30 36 1 10 33
M  V30 37 1 10 34
M  V30 38 1 11 35
M  V30 39 1 11 36
M  V30 40 1 12 37
M  V30 41 1 14 38
M  V30 42 1 18 39
M  V30 43 1 19 40
M  V30 44 1 21 41
M  V30 45 1 22 42
M  V30 46 1 23 43
M  V30 47 1 25 44
M  V30 END BOND
M  V30 END CTAB
M  END
>  <Dataset>  (91) 
ChEMBL_Kinases

>  <Ligand_Instance>  (91) 
nan

>  <PDB_ID>  (91) 
nan

>  <Standardized_SMILES>  (91) 
Cc1ccc(C(=O)NC2CC2)cc1NC(=O)c1ccc2cc[nH]c2c1

>  <Name>  (91) 
nan

>  <Pocket>  (91) 
nan

>  <ATP_Site>  (91) 
nan

>  <Peripheral>  (91) 
nan

>  <Num_H_Atoms_ProtBoundConf>  (91) 
nan

>  <Num_Resolved_Atoms>  (91) 
nan

>  <Num_Not_Resolved_Atoms>  (91) 
nan

$$$$
CHEMBL3692211
     RDKit          3D

  0  0  0  0  0  0  0  0  0  0999 V3000
M  V30 BEGIN CTAB
M  V30 COUNTS 60 63 0 0 0
M  V30 BEGIN ATOM
M  V30 1 C 2.767583 -1.818452 5.276632 0
M  V30 2 N 2.116257 -1.125216 4.158230 0
M  V30 3 C 2.107175 -1.816971 2.888562 0
M  V30 4 O 2.676128 -2.912075 3.018583 0
M  V30 5 C 1.410507 -0.971469 1.839963 0
M  V30 6 C 2.280062 0.267340 1.787493 0
M  V30 7 C 1.834657 1.313416 0.874944 0
M  V30 8 C 2.800045 2.330190 0.849820 0
M  V30 9 C 2.687704 3.455789 0.051006 0
M  V30 10 C 1.588821 3.612911 -0.766311 0
M  V30 11 F 1.355458 4.656906 -1.596453 0
M  V30 12 C 0.651517 2.585876 -0.713380 0
M  V30 13 N -0.514366 2.723045 -1.498638 0
M  V30 14 C -1.625866 1.830317 -1.468583 0
M  V30 15 C -2.179033 2.041510 -0.190448 0
M  V30 16 C -3.291541 1.217836 -0.049159 0
M  V30 17 C -4.325983 0.905206 0.981090 0
M  V30 18 N -3.386733 0.542331 -1.213699 0
M  V30 19 N -2.410015 0.903802 -2.040965 0
M  V30 20 N 0.796247 1.522991 0.064353 0
M  V30 21 C 0.053404 -0.694474 2.280092 0
M  V30 22 C -1.017267 -1.653056 1.854559 0
M  V30 23 N -0.792486 -2.282052 0.569786 0
M  V30 24 C -1.714496 -3.270795 0.056155 0
M  V30 25 O -2.772214 -3.742152 0.515421 0
M  V30 26 C -1.384992 -3.871562 -1.262813 0
M  V30 27 C -0.596314 -5.010550 -1.314817 0
M  V30 28 C -0.311483 -5.510785 -2.567948 0
M  V30 29 C -0.758151 -4.955334 -3.751780 0
M  V30 30 C -1.541819 -3.826911 -3.696518 0
M  V30 31 Cl -2.111817 -3.113564 -5.177802 0
M  V30 32 C -1.848191 -3.292078 -2.431592 0
M  V30 33 F -2.615806 -2.189410 -2.446970 0
M  V30 34 C 0.348212 -1.945270 -0.235762 0
M  V30 35 C 1.591301 -1.668729 0.535694 0
M  V30 36 H 3.796943 -2.071907 4.911931 0
M  V30 37 H 2.228229 -2.748445 5.487266 0
M  V30 38 H 2.816928 -1.171991 6.175739 0
M  V30 39 H 1.710085 -0.186344 4.389034 0
M  V30 40 H 2.563814 0.653546 2.791344 0
M  V30 41 H 3.267051 -0.106023 1.368031 0
M  V30 42 H 3.738472 2.392780 1.424967 0
M  V30 43 H 3.403904 4.268851 -0.004223 0
M  V30 44 H -0.624281 3.514887 -2.164636 0
M  V30 45 H -2.075649 2.607277 0.751887 0
M  V30 46 H -4.162496 -0.160059 1.275214 0
M  V30 47 H -4.238979 1.599170 1.845768 0
M  V30 48 H -5.309129 1.027057 0.517657 0
M  V30 49 H -4.068084 -0.171417 -1.563331 0
M  V30 50 H -0.316870 0.312144 1.970991 0
M  V30 51 H -0.037440 -0.664102 3.410993 0
M  V30 52 H -2.038091 -1.264390 1.856238 0
M  V30 53 H -1.045848 -2.515239 2.590691 0
M  V30 54 H -0.253842 -5.438321 -0.402297 0
M  V30 55 H 0.306981 -6.401416 -2.572207 0
M  V30 56 H -0.496172 -5.397492 -4.718604 0
M  V30 57 H 0.052299 -1.094749 -0.883058 0
M  V30 58 H 0.511677 -2.808912 -0.947375 0
M  V30 59 H 2.079561 -2.651419 0.704200 0
M  V30 60 H 2.281106 -1.107008 -0.130094 0
M  V30 END ATOM
M  V30 BEGIN BOND
M  V30 1 1 1 2
M  V30 2 1 2 3
M  V30 3 2 3 4
M  V30 4 1 3 5
M  V30 5 1 5 6
M  V30 6 1 6 7
M  V30 7 2 7 8
M  V30 8 1 8 9
M  V30 9 2 9 10
M  V30 10 1 10 11
M  V30 11 1 10 12
M  V30 12 1 12 13
M  V30 13 1 13 14
M  V30 14 1 14 15
M  V30 15 2 15 16
M  V30 16 1 16 17
M  V30 17 1 16 18
M  V30 18 1 18 19
M  V30 19 2 12 20
M  V30 20 1 5 21
M  V30 21 1 21 22
M  V30 22 1 22 23
M  V30 23 1 23 24
M  V30 24 2 24 25
M  V30 25 1 24 26
M  V30 26 2 26 27
M  V30 27 1 27 28
M  V30 28 2 28 29
M  V30 29 1 29 30
M  V30 30 1 30 31
M  V30 31 2 30 32
M  V30 32 1 32 33
M  V30 33 1 23 34
M  V30 34 1 34 35
M  V30 35 1 35 5
M  V30 36 1 20 7
M  V30 37 1 32 26
M  V30 38 2 19 14
M  V30 39 1 1 36
M  V30 40 1 1 37
M  V30 41 1 1 38
M  V30 42 1 2 39
M  V30 43 1 6 40
M  V30 44 1 6 41
M  V30 45 1 8 42
M  V30 46 1 9 43
M  V30 47 1 13 44
M  V30 48 1 15 45
M  V30 49 1 17 46
M  V30 50 1 17 47
M  V30 51 1 17 48
M  V30 52 1 18 49
M  V30 53 1 21 50
M  V30 54 1 21 51
M  V30 55 1 22 52
M  V30 56 1 22 53
M  V30 57 1 27 54
M  V30 58 1 28 55
M  V30 59 1 29 56
M  V30 60 1 34 57
M  V30 61 1 34 58
M  V30 62 1 35 59
M  V30 63 1 35 60
M  V30 END BOND
M  V30 END CTAB
M  END
>  <Dataset>  (92) 
ChEMBL_Kinases

>  <Ligand_Instance>  (92) 
nan

>  <PDB_ID>  (92) 
nan

>  <Standardized_SMILES>  (92) 
CNC(=O)C1(Cc2ccc(F)c(Nc3cc(C)[nH]n3)n2)CCN(C(=O)c2cccc(Cl)c2F)CC1

>  <Name>  (92) 
nan

>  <Pocket>  (92) 
nan

>  <ATP_Site>  (92) 
nan

>  <Peripheral>  (92) 
nan

>  <Num_H_Atoms_ProtBoundConf>  (92) 
nan

>  <Num_Resolved_Atoms>  (92) 
nan

>  <Num_Not_Resolved_Atoms>  (92) 
nan

$$$$
CHEMBL3692210
     RDKit          3D

  0  0  0  0  0  0  0  0  0  0999 V3000
M  V30 BEGIN CTAB
M  V30 COUNTS 56 59 0 0 0
M  V30 BEGIN ATOM
M  V30 1 C 5.394447 -3.502028 3.160777 0
M  V30 2 C 3.996926 -2.975796 3.175825 0
M  V30 3 C 3.771669 -1.662015 3.575204 0
M  V30 4 C 2.393119 -1.448406 3.491357 0
M  V30 5 N 1.465416 -0.396802 3.728157 0
M  V30 6 C 1.032566 0.578910 2.785619 0
M  V30 7 N 1.516763 0.544527 1.544832 0
M  V30 8 C 1.086160 1.491193 0.658971 0
M  V30 9 C 1.640795 1.426450 -0.701528 0
M  V30 10 C 0.851343 0.573638 -1.663896 0
M  V30 11 C 1.584320 0.650059 -2.966761 0
M  V30 12 O 2.623197 1.344061 -3.012700 0
M  V30 13 O 1.207934 0.012172 -4.138263 0
M  V30 14 C -0.545008 1.021776 -1.906487 0
M  V30 15 C -1.601136 0.252764 -1.147971 0
M  V30 16 N -1.454344 -1.162069 -1.401245 0
M  V30 17 C -2.458562 -2.118073 -1.185191 0
M  V30 18 O -2.393661 -3.367141 -1.386029 0
M  V30 19 C -3.821844 -1.974589 -0.686412 0
M  V30 20 C -4.940754 -1.746099 -1.466191 0
M  V30 21 C -6.159707 -1.637699 -0.807257 0
M  V30 22 C -6.254778 -1.752046 0.562381 0
M  V30 23 C -5.139795 -1.979638 1.338410 0
M  V30 24 Cl -5.317635 -2.115420 3.062597 0
M  V30 25 C -3.924302 -2.088842 0.693287 0
M  V30 26 F -2.865349 -2.312895 1.515642 0
M  V30 27 C -0.211974 -1.681585 -1.911146 0
M  V30 28 C 0.891358 -0.872802 -1.270099 0
M  V30 29 C 0.169894 2.431379 1.106640 0
M  V30 30 C -0.328096 2.462265 2.392517 0
M  V30 31 C 0.124789 1.494724 3.263155 0
M  V30 32 F -0.326272 1.472925 4.536036 0
M  V30 33 N 1.848546 -2.618701 3.052987 0
M  V30 34 N 2.806814 -3.523036 2.867127 0
M  V30 35 H 5.454703 -4.518791 2.732394 0
M  V30 36 H 6.056757 -2.827856 2.573104 0
M  V30 37 H 5.759518 -3.473029 4.208074 0
M  V30 38 H 4.346539 -0.830995 3.907341 0
M  V30 39 H 1.167139 -0.472528 4.702695 0
M  V30 40 H 1.779885 2.456091 -1.086203 0
M  V30 41 H 2.667735 0.975298 -0.667545 0
M  V30 42 H 1.288682 0.495393 -5.025128 0
M  V30 43 H -0.697596 2.090977 -1.663227 0
M  V30 44 H -0.785451 0.932787 -2.985495 0
M  V30 45 H -2.576093 0.643786 -1.498441 0
M  V30 46 H -1.517100 0.395060 -0.072987 0
M  V30 47 H -4.787026 -1.668038 -2.533943 0
M  V30 48 H -7.019994 -1.458854 -1.440871 0
M  V30 49 H -7.225718 -1.660134 1.027066 0
M  V30 50 H -0.124298 -1.541434 -3.010184 0
M  V30 51 H -0.046944 -2.755373 -1.707254 0
M  V30 52 H 0.855074 -0.973439 -0.185503 0
M  V30 53 H 1.847313 -1.334833 -1.632113 0
M  V30 54 H -0.165395 3.171544 0.411120 0
M  V30 55 H -1.048976 3.236637 2.669342 0
M  V30 56 H 2.731912 -4.509293 2.540256 0
M  V30 END ATOM
M  V30 BEGIN BOND
M  V30 1 1 1 2
M  V30 2 2 2 3
M  V30 3 1 3 4
M  V30 4 1 4 5
M  V30 5 1 5 6
M  V30 6 2 6 7
M  V30 7 1 7 8
M  V30 8 1 8 9
M  V30 9 1 9 10
M  V30 10 1 10 11
M  V30 11 2 11 12
M  V30 12 1 11 13
M  V30 13 1 10 14
M  V30 14 1 14 15
M  V30 15 1 15 16
M  V30 16 1 16 17
M  V30 17 2 17 18
M  V30 18 1 17 19
M  V30 19 2 19 20
M  V30 20 1 20 21
M  V30 21 2 21 22
M  V30 22 1 22 23
M  V30 23 1 23 24
M  V30 24 2 23 25
M  V30 25 1 25 26
M  V30 26 1 16 27
M  V30 27 1 27 28
M  V30 28 2 8 29
M  V30 29 1 29 30
M  V30 30 2 30 31
M  V30 31 1 31 32
M  V30 32 2 4 33
M  V30 33 1 33 34
M  V30 34 1 34 2
M  V30 35 1 31 6
M  V30 36 1 28 10
M  V30 37 1 25 19
M  V30 38 1 1 35
M  V30 39 1 1 36
M  V30 40 1 1 37
M  V30 41 1 3 38
M  V30 42 1 5 39
M  V30 43 1 9 40
M  V30 44 1 9 41
M  V30 45 1 13 42
M  V30 46 1 14 43
M  V30 47 1 14 44
M  V30 48 1 15 45
M  V30 49 1 15 46
M  V30 50 1 20 47
M  V30 51 1 21 48
M  V30 52 1 22 49
M  V30 53 1 27 50
M  V30 54 1 27 51
M  V30 55 1 28 52
M  V30 56 1 28 53
M  V30 57 1 29 54
M  V30 58 1 30 55
M  V30 59 1 34 56
M  V30 END BOND
M  V30 END CTAB
M  END
>  <Dataset>  (93) 
ChEMBL_Kinases

>  <Ligand_Instance>  (93) 
nan

>  <PDB_ID>  (93) 
nan

>  <Standardized_SMILES>  (93) 
Cc1cc(Nc2nc(CC3(C(=O)O)CCN(C(=O)c4cccc(Cl)c4F)CC3)ccc2F)n[nH]1

>  <Name>  (93) 
nan

>  <Pocket>  (93) 
nan

>  <ATP_Site>  (93) 
nan

>  <Peripheral>  (93) 
nan

>  <Num_H_Atoms_ProtBoundConf>  (93) 
nan

>  <Num_Resolved_Atoms>  (93) 
nan

>  <Num_Not_Resolved_Atoms>  (93) 
nan

$$$$
CHEMBL3692207
     RDKit          3D

  0  0  0  0  0  0  0  0  0  0999 V3000
M  V30 BEGIN CTAB
M  V30 COUNTS 59 62 0 0 0
M  V30 BEGIN ATOM
M  V30 1 C 2.296153 -3.197157 3.585249 0
M  V30 2 C 3.329393 -2.409314 2.854689 0
M  V30 3 C 3.099360 -1.186887 2.254120 0
M  V30 4 C 4.283098 -0.723465 1.666602 0
M  V30 5 N 4.428896 0.512908 0.968533 0
M  V30 6 C 3.260873 1.316607 0.856371 0
M  V30 7 N 2.598818 1.554283 -0.290873 0
M  V30 8 C 1.488493 2.308005 -0.344698 0
M  V30 9 C 0.714019 2.661834 -1.533465 0
M  V30 10 C -0.369737 1.683913 -1.920716 0
M  V30 11 C -1.005354 2.318564 -3.141130 0
M  V30 12 O -0.600787 3.440298 -3.602462 0
M  V30 13 O -2.050428 1.800446 -3.881078 0
M  V30 14 C -1.439202 1.508659 -0.921498 0
M  V30 15 C -2.046866 0.123988 -0.903445 0
M  V30 16 N -1.029785 -0.900510 -0.802575 0
M  V30 17 C -0.989195 -2.107995 -0.059907 0
M  V30 18 O -0.072608 -2.998858 0.011255 0
M  V30 19 C -1.879689 -2.799256 0.857245 0
M  V30 20 C -1.876187 -2.625048 2.218221 0
M  V30 21 C -2.722604 -3.297468 3.069664 0
M  V30 22 C -3.625426 -4.194695 2.545505 0
M  V30 23 C -3.698685 -4.432466 1.182355 0
M  V30 24 C -4.672354 -5.387396 0.606872 0
M  V30 25 F -5.409199 -5.976797 1.613976 0
M  V30 26 F -5.512895 -4.633097 -0.216361 0
M  V30 27 F -4.024735 -6.299194 -0.190437 0
M  V30 28 C -2.816099 -3.721500 0.372674 0
M  V30 29 F -2.891609 -3.956921 -0.960059 0
M  V30 30 C 0.187750 -0.749757 -1.547362 0
M  V30 31 C 0.221733 0.408906 -2.455759 0
M  V30 32 C 1.007684 2.864539 0.847193 0
M  V30 33 C 1.678702 2.632494 2.054604 0
M  V30 34 C 2.831843 1.842082 2.068548 0
M  V30 35 F 3.480123 1.623538 3.261866 0
M  V30 36 N 5.193760 -1.679181 1.928068 0
M  V30 37 N 4.632935 -2.661810 2.622017 0
M  V30 38 H 1.483129 -3.454246 2.875205 0
M  V30 39 H 2.751319 -4.071305 4.091510 0
M  V30 40 H 1.809853 -2.532755 4.361042 0
M  V30 41 H 2.134914 -0.687091 2.253094 0
M  V30 42 H 5.393103 0.709705 0.600883 0
M  V30 43 H 0.280184 3.704303 -1.464615 0
M  V30 44 H 1.369952 2.744115 -2.456160 0
M  V30 45 H -2.827521 2.428936 -4.139238 0
M  V30 46 H -0.990564 1.637743 0.102713 0
M  V30 47 H -2.279649 2.230802 -0.963512 0
M  V30 48 H -2.785493 0.060448 -0.079512 0
M  V30 49 H -2.596984 -0.041606 -1.851581 0
M  V30 50 H -1.148121 -1.903233 2.617018 0
M  V30 51 H -2.650054 -3.095070 4.147231 0
M  V30 52 H -4.294522 -4.727729 3.200674 0
M  V30 53 H 0.374872 -1.696806 -2.096776 0
M  V30 54 H 1.017485 -0.710899 -0.784217 0
M  V30 55 H 1.301800 0.624591 -2.679667 0
M  V30 56 H -0.204044 0.123046 -3.436067 0
M  V30 57 H 0.131221 3.506947 1.022615 0
M  V30 58 H 1.360981 3.033632 3.017384 0
M  V30 59 H 5.036819 -3.560757 2.997722 0
M  V30 END ATOM
M  V30 BEGIN BOND
M  V30 1 1 1 2
M  V30 2 2 2 3
M  V30 3 1 3 4
M  V30 4 1 4 5
M  V30 5 1 5 6
M  V30 6 2 6 7
M  V30 7 1 7 8
M  V30 8 1 8 9
M  V30 9 1 9 10
M  V30 10 1 10 11
M  V30 11 2 11 12
M  V30 12 1 11 13
M  V30 13 1 10 14
M  V30 14 1 14 15
M  V30 15 1 15 16
M  V30 16 1 16 17
M  V30 17 2 17 18
M  V30 18 1 17 19
M  V30 19 2 19 20
M  V30 20 1 20 21
M  V30 21 2 21 22
M  V30 22 1 22 23
M  V30 23 1 23 24
M  V30 24 1 24 25
M  V30 25 1 24 26
M  V30 26 1 24 27
M  V30 27 2 23 28
M  V30 28 1 28 29
M  V30 29 1 16 30
M  V30 30 1 30 31
M  V30 31 2 8 32
M  V30 32 1 32 33
M  V30 33 2 33 34
M  V30 34 1 34 35
M  V30 35 2 4 36
M  V30 36 1 36 37
M  V30 37 1 37 2
M  V30 38 1 34 6
M  V30 39 1 31 10
M  V30 40 1 28 19
M  V30 41 1 1 38
M  V30 42 1 1 39
M  V30 43 1 1 40
M  V30 44 1 3 41
M  V30 45 1 5 42
M  V30 46 1 9 43
M  V30 47 1 9 44
M  V30 48 1 13 45
M  V30 49 1 14 46
M  V30 50 1 14 47
M  V30 51 1 15 48
M  V30 52 1 15 49
M  V30 53 1 20 50
M  V30 54 1 21 51
M  V30 55 1 22 52
M  V30 56 1 30 53
M  V30 57 1 30 54
M  V30 58 1 31 55
M  V30 59 1 31 56
M  V30 60 1 32 57
M  V30 61 1 33 58
M  V30 62 1 37 59
M  V30 END BOND
M  V30 END CTAB
M  END
>  <Dataset>  (94) 
ChEMBL_Kinases

>  <Ligand_Instance>  (94) 
nan

>  <PDB_ID>  (94) 
nan

>  <Standardized_SMILES>  (94) 
Cc1cc(Nc2nc(CC3(C(=O)O)CCN(C(=O)c4cccc(C(F)(F)F)c4F)CC3)ccc2F)n[nH]1

>  <Name>  (94) 
nan

>  <Pocket>  (94) 
nan

>  <ATP_Site>  (94) 
nan

>  <Peripheral>  (94) 
nan

>  <Num_H_Atoms_ProtBoundConf>  (94) 
nan

>  <Num_Resolved_Atoms>  (94) 
nan

>  <Num_Not_Resolved_Atoms>  (94) 
nan

$$$$
CHEMBL3692209
     RDKit          3D

  0  0  0  0  0  0  0  0  0  0999 V3000
M  V30 BEGIN CTAB
M  V30 COUNTS 56 59 0 0 0
M  V30 BEGIN ATOM
M  V30 1 C 1.671082 -3.574840 3.982317 0
M  V30 2 C 1.100457 -2.199241 3.911608 0
M  V30 3 C 1.822679 -1.023528 4.012357 0
M  V30 4 C 0.908737 0.025596 3.894655 0
M  V30 5 N 1.318518 1.389787 3.954506 0
M  V30 6 C 1.669078 1.992877 2.698088 0
M  V30 7 N 1.604601 1.297222 1.573828 0
M  V30 8 C 1.920787 1.809008 0.365633 0
M  V30 9 C 1.809080 0.888184 -0.747299 0
M  V30 10 C 0.478202 0.781234 -1.428997 0
M  V30 11 C 0.087765 2.099270 -1.989630 0
M  V30 12 O 0.485492 3.299824 -2.104193 0
M  V30 13 O -1.167367 1.890187 -2.593599 0
M  V30 14 C -0.603560 0.278310 -0.524662 0
M  V30 15 C -0.800170 -1.169974 -0.454483 0
M  V30 16 N -0.431253 -1.943933 -1.593071 0
M  V30 17 C -1.196420 -3.076479 -2.047270 0
M  V30 18 O -0.835733 -3.731556 -3.055971 0
M  V30 19 C -2.396187 -3.456639 -1.324042 0
M  V30 20 C -3.554476 -2.853664 -1.769774 0
M  V30 21 C -4.759921 -3.150488 -1.143541 0
M  V30 22 C -4.838238 -4.030520 -0.087745 0
M  V30 23 C -3.675002 -4.628843 0.351366 0
M  V30 24 Cl -3.709582 -5.749578 1.681019 0
M  V30 25 C -2.457974 -4.347453 -0.259321 0
M  V30 26 F -1.283129 -4.905528 0.129651 0
M  V30 27 C 0.761011 -1.553481 -2.298647 0
M  V30 28 C 0.636169 -0.113647 -2.667645 0
M  V30 29 C 2.317509 3.126146 0.420352 0
M  V30 30 C 2.400646 3.891924 1.563217 0
M  V30 31 C 2.061854 3.305027 2.765279 0
M  V30 32 Cl 2.174587 4.295592 4.204393 0
M  V30 33 N -0.314724 -0.548334 3.729453 0
M  V30 34 N -0.192863 -1.866233 3.740600 0
M  V30 35 H 0.913348 -4.327361 4.216193 0
M  V30 36 H 2.089728 -3.809891 2.970601 0
M  V30 37 H 2.473636 -3.565216 4.732729 0
M  V30 38 H 2.878045 -0.998656 4.153047 0
M  V30 39 H 1.342648 1.859812 4.861577 0
M  V30 40 H 2.624593 1.171260 -1.476931 0
M  V30 41 H 2.116064 -0.141858 -0.425370 0
M  V30 42 H -1.616751 2.690361 -3.015670 0
M  V30 43 H -0.422213 0.688707 0.489439 0
M  V30 44 H -1.581770 0.752347 -0.834685 0
M  V30 45 H -1.883540 -1.419320 -0.251231 0
M  V30 46 H -0.263198 -1.603521 0.423339 0
M  V30 47 H -3.568068 -2.140025 -2.608271 0
M  V30 48 H -5.668145 -2.658934 -1.515165 0
M  V30 49 H -5.792900 -4.250814 0.390780 0
M  V30 50 H 0.886187 -2.119878 -3.251481 0
M  V30 51 H 1.676543 -1.689309 -1.676657 0
M  V30 52 H 1.426608 0.295648 -3.293869 0
M  V30 53 H -0.331279 0.016342 -3.222949 0
M  V30 54 H 2.598071 3.576883 -0.519515 0
M  V30 55 H 2.731529 4.928259 1.460210 0
M  V30 56 H -1.017291 -2.506934 3.628294 0
M  V30 END ATOM
M  V30 BEGIN BOND
M  V30 1 1 1 2
M  V30 2 2 2 3
M  V30 3 1 3 4
M  V30 4 1 4 5
M  V30 5 1 5 6
M  V30 6 2 6 7
M  V30 7 1 7 8
M  V30 8 1 8 9
M  V30 9 1 9 10
M  V30 10 1 10 11
M  V30 11 2 11 12
M  V30 12 1 11 13
M  V30 13 1 10 14
M  V30 14 1 14 15
M  V30 15 1 15 16
M  V30 16 1 16 17
M  V30 17 2 17 18
M  V30 18 1 17 19
M  V30 19 2 19 20
M  V30 20 1 20 21
M  V30 21 2 21 22
M  V30 22 1 22 23
M  V30 23 1 23 24
M  V30 24 2 23 25
M  V30 25 1 25 26
M  V30 26 1 16 27
M  V30 27 1 27 28
M  V30 28 2 8 29
M  V30 29 1 29 30
M  V30 30 2 30 31
M  V30 31 1 31 32
M  V30 32 2 4 33
M  V30 33 1 33 34
M  V30 34 1 34 2
M  V30 35 1 31 6
M  V30 36 1 28 10
M  V30 37 1 25 19
M  V30 38 1 1 35
M  V30 39 1 1 36
M  V30 40 1 1 37
M  V30 41 1 3 38
M  V30 42 1 5 39
M  V30 43 1 9 40
M  V30 44 1 9 41
M  V30 45 1 13 42
M  V30 46 1 14 43
M  V30 47 1 14 44
M  V30 48 1 15 45
M  V30 49 1 15 46
M  V30 50 1 20 47
M  V30 51 1 21 48
M  V30 52 1 22 49
M  V30 53 1 27 50
M  V30 54 1 27 51
M  V30 55 1 28 52
M  V30 56 1 28 53
M  V30 57 1 29 54
M  V30 58 1 30 55
M  V30 59 1 34 56
M  V30 END BOND
M  V30 END CTAB
M  END
>  <Dataset>  (95) 
ChEMBL_Kinases

>  <Ligand_Instance>  (95) 
nan

>  <PDB_ID>  (95) 
nan

>  <Standardized_SMILES>  (95) 
Cc1cc(Nc2nc(CC3(C(=O)O)CCN(C(=O)c4cccc(Cl)c4F)CC3)ccc2Cl)n[nH]1

>  <Name>  (95) 
nan

>  <Pocket>  (95) 
nan

>  <ATP_Site>  (95) 
nan

>  <Peripheral>  (95) 
nan

>  <Num_H_Atoms_ProtBoundConf>  (95) 
nan

>  <Num_Resolved_Atoms>  (95) 
nan

>  <Num_Not_Resolved_Atoms>  (95) 
nan

$$$$
CHEMBL2402005
     RDKit          3D

  0  0  0  0  0  0  0  0  0  0999 V3000
M  V30 BEGIN CTAB
M  V30 COUNTS 53 56 0 0 0
M  V30 BEGIN ATOM
M  V30 1 C 2.029307 -2.079809 4.227628 0
M  V30 2 C 3.324137 -1.322017 4.522442 0
M  V30 3 O 3.589558 -0.507905 3.391321 0
M  V30 4 C 4.683012 0.332803 3.278056 0
M  V30 5 O 5.508322 0.410247 4.200665 0
M  V30 6 N 4.894268 1.130792 2.106027 0
M  V30 7 C 5.966162 1.957837 1.989967 0
M  V30 8 C 5.856209 2.570462 0.739093 0
M  V30 9 C 4.715270 2.106264 0.109218 0
M  V30 10 C 4.116290 2.352445 -1.108567 0
M  V30 11 C 2.928677 1.676895 -1.415818 0
M  V30 12 C 2.337741 0.778714 -0.550868 0
M  V30 13 C 1.095748 0.126272 -0.970366 0
M  V30 14 O 0.662980 0.438549 -2.107968 0
M  V30 15 N 0.413761 -0.807154 -0.143820 0
M  V30 16 C -0.782821 -1.487399 -0.452871 0
M  V30 17 C -1.964086 -0.868849 -0.093627 0
M  V30 18 C -3.169832 -1.477721 -0.364967 0
M  V30 19 C -4.396052 -0.806957 0.021960 0
M  V30 20 O -4.319042 0.306532 0.584644 0
M  V30 21 N -5.681515 -1.368965 -0.215016 0
M  V30 22 C -6.909233 -0.694347 0.173536 0
M  V30 23 C -8.047132 -0.878387 -0.826327 0
M  V30 24 C -8.106370 -1.484925 0.545937 0
M  V30 25 C -3.134292 -2.703266 -0.996632 0
M  V30 26 C -1.973026 -3.343782 -1.366493 0
M  V30 27 C -0.766252 -2.731994 -1.093702 0
M  V30 28 C 0.569401 -3.304667 -1.434781 0
M  V30 29 C 2.970409 0.561772 0.657221 0
M  V30 30 C 4.142978 1.212375 0.990194 0
M  V30 31 H 1.673756 -2.596974 5.156443 0
M  V30 32 H 2.237016 -2.851184 3.465656 0
M  V30 33 H 1.304380 -1.311849 3.873213 0
M  V30 34 H 3.141146 -0.703683 5.419136 0
M  V30 35 H 4.126948 -2.068664 4.690746 0
M  V30 36 H 6.773797 2.151166 2.680644 0
M  V30 37 H 6.556908 3.289998 0.339237 0
M  V30 38 H 4.570524 3.052091 -1.790185 0
M  V30 39 H 2.526400 1.930433 -2.393458 0
M  V30 40 H 0.783703 -1.058359 0.799544 0
M  V30 41 H -1.950364 0.090255 0.399351 0
M  V30 42 H -5.784556 -2.295773 -0.681681 0
M  V30 43 H -6.762717 0.288518 0.657489 0
M  V30 44 H -8.626365 0.041061 -1.045038 0
M  V30 45 H -7.909772 -1.593543 -1.649373 0
M  V30 46 H -8.064880 -2.578922 0.676052 0
M  V30 47 H -8.816859 -0.988476 1.240384 0
M  V30 48 H -4.046207 -3.210348 -1.225663 0
M  V30 49 H -1.926727 -4.292390 -1.856099 0
M  V30 50 H 1.259277 -3.048392 -0.582058 0
M  V30 51 H 0.956620 -2.804004 -2.331680 0
M  V30 52 H 0.490690 -4.409147 -1.516567 0
M  V30 53 H 2.518772 -0.139610 1.345424 0
M  V30 END ATOM
M  V30 BEGIN BOND
M  V30 1 1 1 2
M  V30 2 1 2 3
M  V30 3 1 3 4
M  V30 4 2 4 5
M  V30 5 1 4 6
M  V30 6 1 6 7
M  V30 7 2 7 8
M  V30 8 1 8 9
M  V30 9 2 9 10
M  V30 10 1 10 11
M  V30 11 2 11 12
M  V30 12 1 12 13
M  V30 13 2 13 14
M  V30 14 1 13 15
M  V30 15 1 15 16
M  V30 16 2 16 17
M  V30 17 1 17 18
M  V30 18 1 18 19
M  V30 19 2 19 20
M  V30 20 1 19 21
M  V30 21 1 21 22
M  V30 22 1 22 23
M  V30 23 1 23 24
M  V30 24 2 18 25
M  V30 25 1 25 26
M  V30 26 2 26 27
M  V30 27 1 27 28
M  V30 28 1 12 29
M  V30 29 2 29 30
M  V30 30 1 30 6
M  V30 31 1 30 9
M  V30 32 1 27 16
M  V30 33 1 24 22
M  V30 34 1 1 31
M  V30 35 1 1 32
M  V30 36 1 1 33
M  V30 37 1 2 34
M  V30 38 1 2 35
M  V30 39 1 7 36
M  V30 40 1 8 37
M  V30 41 1 10 38
M  V30 42 1 11 39
M  V30 43 1 15 40
M  V30 44 1 17 41
M  V30 45 1 21 42
M  V30 46 1 22 43
M  V30 47 1 23 44
M  V30 48 1 23 45
M  V30 49 1 24 46
M  V30 50 1 24 47
M  V30 51 1 25 48
M  V30 52 1 26 49
M  V30 53 1 28 50
M  V30 54 1 28 51
M  V30 55 1 28 52
M  V30 56 1 29 53
M  V30 END BOND
M  V30 END CTAB
M  END
>  <Dataset>  (96) 
ChEMBL_Kinases

>  <Ligand_Instance>  (96) 
nan

>  <PDB_ID>  (96) 
nan

>  <Standardized_SMILES>  (96) 
CCOC(=O)n1ccc2ccc(C(=O)Nc3cc(C(=O)NC4CC4)ccc3C)cc21

>  <Name>  (96) 
nan

>  <Pocket>  (96) 
nan

>  <ATP_Site>  (96) 
nan

>  <Peripheral>  (96) 
nan

>  <Num_H_Atoms_ProtBoundConf>  (96) 
nan

>  <Num_Resolved_Atoms>  (96) 
nan

>  <Num_Not_Resolved_Atoms>  (96) 
nan

$$$$
CHEMBL2402076
     RDKit          3D

  0  0  0  0  0  0  0  0  0  0999 V3000
M  V30 BEGIN CTAB
M  V30 COUNTS 54 58 0 0 0
M  V30 BEGIN ATOM
M  V30 1 C 1.513545 -3.198445 4.055566 0
M  V30 2 C 0.876295 -2.372880 2.989935 0
M  V30 3 C 1.222939 -2.869220 1.589339 0
M  V30 4 C 2.725685 -2.787120 1.463968 0
M  V30 5 O 3.447995 -3.837556 1.364414 0
M  V30 6 N 3.333403 -1.500590 1.458546 0
M  V30 7 C 4.712592 -1.350684 1.901927 0
M  V30 8 C 2.559804 -0.422194 1.018605 0
M  V30 9 C 3.092073 0.848173 0.994217 0
M  V30 10 N 2.289294 1.848454 0.560989 0
M  V30 11 C 1.018483 1.634990 0.164772 0
M  V30 12 N 0.235025 2.740872 -0.278599 0
M  V30 13 C 0.719826 3.937345 -0.668583 0
M  V30 14 C -0.348593 4.759824 -1.030915 0
M  V30 15 N -1.489549 4.034345 -0.851401 0
M  V30 16 C -1.099894 2.827187 -0.398859 0
M  V30 17 C -2.054987 1.767249 -0.088688 0
M  V30 18 C -2.203387 1.064899 1.090215 0
M  V30 19 C -3.171713 0.090296 1.194191 0
M  V30 20 C -4.027276 -0.235637 0.160563 0
M  V30 21 F -4.972748 -1.198638 0.286081 0
M  V30 22 C -3.873292 0.477768 -1.030355 0
M  V30 23 C -2.910819 1.451051 -1.143296 0
M  V30 24 N 0.517420 0.388499 0.195739 0
M  V30 25 C 1.263038 -0.676581 0.619874 0
M  V30 26 N 0.634671 -1.961436 0.616916 0
M  V30 27 C -0.422085 -2.335203 -0.226052 0
M  V30 28 C -1.152753 -3.495025 0.012010 0
M  V30 29 C -2.190537 -3.912665 -0.788640 0
M  V30 30 C -2.566763 -3.183693 -1.894042 0
M  V30 31 C -3.643162 -3.592945 -2.746381 0
M  V30 32 N -4.508465 -3.938745 -3.424294 0
M  V30 33 C -1.878311 -2.023910 -2.180469 0
M  V30 34 C -0.849788 -1.657836 -1.342953 0
M  V30 35 H 0.902192 -3.122214 5.001527 0
M  V30 36 H 1.500053 -4.279436 3.802492 0
M  V30 37 H 2.521363 -2.844027 4.355512 0
M  V30 38 H -0.240923 -2.383495 3.099493 0
M  V30 39 H 1.158120 -1.307991 3.117923 0
M  V30 40 H 0.909054 -3.903386 1.486398 0
M  V30 41 H 5.400271 -1.061605 1.087428 0
M  V30 42 H 5.079787 -2.323175 2.295383 0
M  V30 43 H 4.733438 -0.641243 2.754110 0
M  V30 44 H 4.112867 1.012697 1.313586 0
M  V30 45 H 1.767980 4.270729 -0.715858 0
M  V30 46 H -0.296077 5.796820 -1.393618 0
M  V30 47 H -1.513373 1.356834 1.862671 0
M  V30 48 H -3.245422 -0.434759 2.150347 0
M  V30 49 H -4.552383 0.223195 -1.859584 0
M  V30 50 H -2.880700 1.944128 -2.119767 0
M  V30 51 H -0.975068 -4.152412 0.827527 0
M  V30 52 H -2.768625 -4.805323 -0.623621 0
M  V30 53 H -2.164655 -1.444366 -3.044427 0
M  V30 54 H -0.354905 -0.744372 -1.633167 0
M  V30 END ATOM
M  V30 BEGIN BOND
M  V30 1 1 1 2
M  V30 2 1 2 3
M  V30 3 1 3 4
M  V30 4 2 4 5
M  V30 5 1 4 6
M  V30 6 1 6 7
M  V30 7 1 6 8
M  V30 8 2 8 9
M  V30 9 1 9 10
M  V30 10 2 10 11
M  V30 11 1 11 12
M  V30 12 1 12 13
M  V30 13 2 13 14
M  V30 14 1 14 15
M  V30 15 2 15 16
M  V30 16 1 16 17
M  V30 17 2 17 18
M  V30 18 1 18 19
M  V30 19 2 19 20
M  V30 20 1 20 21
M  V30 21 1 20 22
M  V30 22 2 22 23
M  V30 23 1 11 24
M  V30 24 2 24 25
M  V30 25 1 25 26
M  V30 26 1 26 27
M  V30 27 2 27 28
M  V30 28 1 28 29
M  V30 29 2 29 30
M  V30 30 1 30 31
M  V30 31 3 31 32
M  V30 32 1 30 33
M  V30 33 2 33 34
M  V30 34 1 26 3
M  V30 35 1 34 27
M  V30 36 1 25 8
M  V30 37 1 16 12
M  V30 38 1 23 17
M  V30 39 1 1 35
M  V30 40 1 1 36
M  V30 41 1 1 37
M  V30 42 1 2 38
M  V30 43 1 2 39
M  V30 44 1 3 40
M  V30 45 1 7 41
M  V30 46 1 7 42
M  V30 47 1 7 43
M  V30 48 1 9 44
M  V30 49 1 13 45
M  V30 50 1 14 46
M  V30 51 1 18 47
M  V30 52 1 19 48
M  V30 53 1 22 49
M  V30 54 1 23 50
M  V30 55 1 28 51
M  V30 56 1 29 52
M  V30 57 1 33 53
M  V30 58 1 34 54
M  V30 END BOND
M  V30 END CTAB
M  END
>  <Dataset>  (97) 
ChEMBL_Kinases

>  <Ligand_Instance>  (97) 
nan

>  <PDB_ID>  (97) 
nan

>  <Standardized_SMILES>  (97) 
CCC1C(=O)N(C)c2cnc(-n3ccnc3-c3ccc(F)cc3)nc2N1c1ccc(C#N)cc1

>  <Name>  (97) 
nan

>  <Pocket>  (97) 
nan

>  <ATP_Site>  (97) 
nan

>  <Peripheral>  (97) 
nan

>  <Num_H_Atoms_ProtBoundConf>  (97) 
nan

>  <Num_Resolved_Atoms>  (97) 
nan

>  <Num_Not_Resolved_Atoms>  (97) 
nan

$$$$
CHEMBL2402077
     RDKit          3D

  0  0  0  0  0  0  0  0  0  0999 V3000
M  V30 BEGIN CTAB
M  V30 COUNTS 51 55 0 0 0
M  V30 BEGIN ATOM
M  V30 1 C 0.470870 -1.694931 3.684749 0
M  V30 2 C 0.568033 -3.006707 2.936433 0
M  V30 3 C 1.425269 -2.918309 1.719295 0 CFG=2
M  V30 4 C 2.821150 -2.511259 2.111542 0
M  V30 5 O 3.714718 -3.362564 2.393988 0
M  V30 6 N 3.160138 -1.134023 2.170834 0
M  V30 7 C 4.326107 -0.681355 2.936785 0
M  V30 8 C 2.339884 -0.232656 1.472002 0
M  V30 9 C 2.674267 1.102477 1.538425 0
M  V30 10 N 1.871136 1.963389 0.861670 0
M  V30 11 C 0.797384 1.511286 0.160735 0
M  V30 12 N -0.013203 2.471292 -0.533731 0
M  V30 13 C 0.465314 3.612811 -1.058502 0
M  V30 14 C -0.580765 4.313061 -1.659983 0
M  V30 15 N -1.682399 3.567141 -1.481722 0
M  V30 16 C -1.330456 2.473824 -0.810017 0
M  V30 17 C -2.219401 1.382733 -0.398495 0
M  V30 18 C -3.005476 0.836914 -1.394321 0
M  V30 19 C -3.899229 -0.194039 -1.194900 0
M  V30 20 C -4.004225 -0.705257 0.094443 0
M  V30 21 C -3.226784 -0.166621 1.083191 0
M  V30 22 C -2.335182 0.864973 0.874113 0
M  V30 23 N 0.516248 0.199021 0.128873 0
M  V30 24 C 1.259953 -0.719937 0.770845 0
M  V30 25 N 0.881447 -2.092011 0.681492 0
M  V30 26 C 0.052077 -2.632312 -0.334963 0
M  V30 27 C -0.429576 -3.935053 -0.156502 0
M  V30 28 N -1.214444 -4.533513 -1.068596 0
M  V30 29 C -1.580369 -3.912193 -2.204121 0
M  V30 30 N -1.134460 -2.660268 -2.405576 0
M  V30 31 C -0.350842 -2.065125 -1.493361 0
M  V30 32 H 0.009001 -0.958278 3.031817 0
M  V30 33 H -0.179768 -1.816634 4.571481 0
M  V30 34 H 1.458226 -1.310972 4.012207 0
M  V30 35 H -0.469464 -3.325879 2.710325 0
M  V30 36 H 0.956470 -3.752859 3.658923 0
M  V30 37 H 1.557747 -3.961334 1.326549 0
M  V30 38 H 3.964132 0.094708 3.656930 0
M  V30 39 H 5.096115 -0.234092 2.269120 0
M  V30 40 H 4.701987 -1.527746 3.540085 0
M  V30 41 H 3.517914 1.429060 2.092798 0
M  V30 42 H 1.468953 3.967806 -1.043307 0
M  V30 43 H -0.579494 5.257346 -2.176425 0
M  V30 44 H -2.951172 1.211916 -2.420025 0
M  V30 45 H -4.505804 -0.607640 -1.987935 0
M  V30 46 H -4.677494 -1.509123 0.333083 0
M  V30 47 H -3.266017 -0.523597 2.103476 0
M  V30 48 H -1.700951 1.322638 1.621465 0
M  V30 49 H -0.244635 -4.582556 0.684822 0
M  V30 50 H -2.208890 -4.359237 -2.959767 0
M  V30 51 H -0.036335 -1.081025 -1.725588 0
M  V30 END ATOM
M  V30 BEGIN BOND
M  V30 1 1 1 2
M  V30 2 1 2 3
M  V30 3 1 3 4
M  V30 4 2 4 5
M  V30 5 1 4 6
M  V30 6 1 6 7
M  V30 7 1 6 8
M  V30 8 2 8 9
M  V30 9 1 9 10
M  V30 10 2 10 11
M  V30 11 1 11 12
M  V30 12 1 12 13
M  V30 13 2 13 14
M  V30 14 1 14 15
M  V30 15 2 15 16
M  V30 16 1 16 17
M  V30 17 2 17 18
M  V30 18 1 18 19
M  V30 19 2 19 20
M  V30 20 1 20 21
M  V30 21 2 21 22
M  V30 22 1 11 23
M  V30 23 2 23 24
M  V30 24 1 24 25
M  V30 25 1 25 26
M  V30 26 2 26 27
M  V30 27 1 27 28
M  V30 28 2 28 29
M  V30 29 1 29 30
M  V30 30 2 30 31
M  V30 31 1 25 3
M  V30 32 1 31 26
M  V30 33 1 24 8
M  V30 34 1 16 12
M  V30 35 1 22 17
M  V30 36 1 1 32
M  V30 37 1 1 33
M  V30 38 1 1 34
M  V30 39 1 2 35
M  V30 40 1 2 36
M  V30 41 1 3 37 CFG=3
M  V30 42 1 7 38
M  V30 43 1 7 39
M  V30 44 1 7 40
M  V30 45 1 9 41
M  V30 46 1 13 42
M  V30 47 1 14 43
M  V30 48 1 18 44
M  V30 49 1 19 45
M  V30 50 1 20 46
M  V30 51 1 21 47
M  V30 52 1 22 48
M  V30 53 1 27 49
M  V30 54 1 29 50
M  V30 55 1 31 51
M  V30 END BOND
M  V30 END CTAB
M  END
>  <Dataset>  (98) 
ChEMBL_Kinases

>  <Ligand_Instance>  (98) 
nan

>  <PDB_ID>  (98) 
nan

>  <Standardized_SMILES>  (98) 
CC[C@@H]1C(=O)N(C)c2cnc(-n3ccnc3-c3ccccc3)nc2N1c1cncnc1

>  <Name>  (98) 
nan

>  <Pocket>  (98) 
nan

>  <ATP_Site>  (98) 
nan

>  <Peripheral>  (98) 
nan

>  <Num_H_Atoms_ProtBoundConf>  (98) 
nan

>  <Num_Resolved_Atoms>  (98) 
nan

>  <Num_Not_Resolved_Atoms>  (98) 
nan

$$$$
CHEMBL2402078
     RDKit          3D

  0  0  0  0  0  0  0  0  0  0999 V3000
M  V30 BEGIN CTAB
M  V30 COUNTS 50 54 0 0 0
M  V30 BEGIN ATOM
M  V30 1 C 0.152031 -2.149141 3.441549 0
M  V30 2 C 0.260277 -3.357014 2.533741 0
M  V30 3 C 1.277380 -3.137214 1.437877 0 CFG=2
M  V30 4 C 2.583275 -2.887703 2.054530 0
M  V30 5 O 3.336233 -3.818011 2.449346 0
M  V30 6 N 3.001558 -1.527078 2.205205 0
M  V30 7 C 4.093679 -1.151974 3.078984 0
M  V30 8 C 2.344461 -0.488870 1.488470 0
M  V30 9 C 2.753581 0.810156 1.641547 0
M  V30 10 N 2.100304 1.757979 0.942562 0
M  V30 11 C 1.073427 1.434625 0.116546 0
M  V30 12 N 0.416606 2.472042 -0.598805 0
M  V30 13 C 0.971185 3.535987 -1.166307 0
M  V30 14 C -0.034455 4.299615 -1.763490 0
M  V30 15 N -1.187869 3.671433 -1.540151 0
M  V30 16 C -0.922416 2.563969 -0.835454 0
M  V30 17 C -1.960978 1.625409 -0.409175 0
M  V30 18 C -2.629187 0.889666 -1.376158 0
M  V30 19 C -3.622493 -0.025550 -1.134035 0
M  V30 20 C -3.995638 -0.239150 0.182370 0
M  V30 21 F -4.970784 -1.131117 0.481015 0
M  V30 22 C -3.342423 0.485490 1.178564 0
M  V30 23 C -2.341243 1.402472 0.882818 0
M  V30 24 N 0.698569 0.152893 -0.009978 0
M  V30 25 C 1.308560 -0.841554 0.659137 0
M  V30 26 N 0.853718 -2.173069 0.472672 0
M  V30 27 C 0.019093 -2.579765 -0.603376 0
M  V30 28 C -0.476494 -3.871655 -0.815989 0
M  V30 29 N -1.219921 -3.903253 -1.910816 0
M  V30 30 N -1.251898 -2.699571 -2.448364 0
M  V30 31 C -0.512999 -1.894667 -1.675039 0
M  V30 32 H -0.299157 -1.270307 2.943889 0
M  V30 33 H -0.386511 -2.390223 4.378340 0
M  V30 34 H 1.174283 -1.819209 3.782075 0
M  V30 35 H 0.523411 -4.223949 3.171423 0
M  V30 36 H -0.755566 -3.542406 2.125405 0
M  V30 37 H 1.381072 -4.116958 0.885528 0
M  V30 38 H 4.542959 -2.092577 3.466041 0
M  V30 39 H 3.706084 -0.614005 3.966733 0
M  V30 40 H 4.904881 -0.632644 2.550893 0
M  V30 41 H 3.559118 1.088858 2.285738 0
M  V30 42 H 2.007838 3.798466 -1.184597 0
M  V30 43 H 0.135501 5.226938 -2.300494 0
M  V30 44 H -2.359784 1.033850 -2.420580 0
M  V30 45 H -4.103808 -0.565049 -1.919946 0
M  V30 46 H -3.625710 0.328325 2.224674 0
M  V30 47 H -1.840726 1.959434 1.662244 0
M  V30 48 H -0.309679 -4.759020 -0.206356 0
M  V30 49 H -1.771501 -2.427216 -3.333392 0
M  V30 50 H -0.356323 -0.849126 -1.868154 0
M  V30 END ATOM
M  V30 BEGIN BOND
M  V30 1 1 1 2
M  V30 2 1 2 3
M  V30 3 1 3 4
M  V30 4 2 4 5
M  V30 5 1 4 6
M  V30 6 1 6 7
M  V30 7 1 6 8
M  V30 8 2 8 9
M  V30 9 1 9 10
M  V30 10 2 10 11
M  V30 11 1 11 12
M  V30 12 1 12 13
M  V30 13 2 13 14
M  V30 14 1 14 15
M  V30 15 2 15 16
M  V30 16 1 16 17
M  V30 17 2 17 18
M  V30 18 1 18 19
M  V30 19 2 19 20
M  V30 20 1 20 21
M  V30 21 1 20 22
M  V30 22 2 22 23
M  V30 23 1 11 24
M  V30 24 2 24 25
M  V30 25 1 25 26
M  V30 26 1 26 27
M  V30 27 1 27 28
M  V30 28 2 28 29
M  V30 29 1 29 30
M  V30 30 1 30 31
M  V30 31 1 26 3
M  V30 32 2 31 27
M  V30 33 1 25 8
M  V30 34 1 16 12
M  V30 35 1 23 17
M  V30 36 1 1 32
M  V30 37 1 1 33
M  V30 38 1 1 34
M  V30 39 1 2 35
M  V30 40 1 2 36
M  V30 41 1 3 37 CFG=3
M  V30 42 1 7 38
M  V30 43 1 7 39
M  V30 44 1 7 40
M  V30 45 1 9 41
M  V30 46 1 13 42
M  V30 47 1 14 43
M  V30 48 1 18 44
M  V30 49 1 19 45
M  V30 50 1 22 46
M  V30 51 1 23 47
M  V30 52 1 28 48
M  V30 53 1 30 49
M  V30 54 1 31 50
M  V30 END BOND
M  V30 END CTAB
M  END
>  <Dataset>  (99) 
ChEMBL_Kinases

>  <Ligand_Instance>  (99) 
nan

>  <PDB_ID>  (99) 
nan

>  <Standardized_SMILES>  (99) 
CC[C@@H]1C(=O)N(C)c2cnc(-n3ccnc3-c3ccc(F)cc3)nc2N1c1cn[nH]c1

>  <Name>  (99) 
nan

>  <Pocket>  (99) 
nan

>  <ATP_Site>  (99) 
nan

>  <Peripheral>  (99) 
nan

>  <Num_H_Atoms_ProtBoundConf>  (99) 
nan

>  <Num_Resolved_Atoms>  (99) 
nan

>  <Num_Not_Resolved_Atoms>  (99) 
nan

$$$$
CHEMBL2402079
     RDKit          3D

  0  0  0  0  0  0  0  0  0  0999 V3000
M  V30 BEGIN CTAB
M  V30 COUNTS 50 54 0 0 0
M  V30 BEGIN ATOM
M  V30 1 C -0.299027 -2.446741 3.205564 0
M  V30 2 C 0.126669 -3.529248 2.270220 0
M  V30 3 C 1.253919 -3.137754 1.365314 0
M  V30 4 C 2.408819 -2.779919 2.211324 0
M  V30 5 O 3.109293 -3.722479 2.713144 0
M  V30 6 N 2.783558 -1.437124 2.497797 0
M  V30 7 C 3.731588 -1.155751 3.568525 0
M  V30 8 C 2.188458 -0.424074 1.693571 0
M  V30 9 C 2.531512 0.889408 1.946459 0
M  V30 10 N 1.967409 1.862681 1.182671 0
M  V30 11 C 1.084585 1.536610 0.192704 0
M  V30 12 N 0.522215 2.601880 -0.579318 0
M  V30 13 C 1.089857 3.665619 -1.192551 0
M  V30 14 C 0.098831 4.401464 -1.809968 0
M  V30 15 N -1.083944 3.806975 -1.588110 0
M  V30 16 C -0.812633 2.716988 -0.840643 0
M  V30 17 C -1.834157 1.766394 -0.364466 0
M  V30 18 C -2.493164 1.091454 -1.359156 0
M  V30 19 C -3.467235 0.181592 -0.977349 0
M  V30 20 C -3.721626 0.002962 0.367164 0
M  V30 21 F -4.686585 -0.901439 0.680105 0
M  V30 22 C -3.054941 0.685525 1.368314 0
M  V30 23 C -2.078680 1.597558 0.988394 0
M  V30 24 N 0.742820 0.241643 -0.060744 0
M  V30 25 C 1.292194 -0.751852 0.688173 0
M  V30 26 N 0.931989 -2.103826 0.419612 0
M  V30 27 C 0.253881 -2.451669 -0.777512 0
M  V30 28 C -0.158135 -3.726800 -1.170054 0
M  V30 29 C -0.785410 -3.666143 -2.397837 0
M  V30 30 N -0.752089 -2.370652 -2.741406 0
M  V30 31 N -0.149828 -1.675659 -1.799675 0
M  V30 32 H -0.941523 -1.732907 2.655259 0
M  V30 33 H -0.906958 -2.919144 4.006623 0
M  V30 34 H 0.600513 -1.931913 3.598492 0
M  V30 35 H 0.486206 -4.399836 2.860259 0
M  V30 36 H -0.772932 -3.879780 1.730272 0
M  V30 37 H 1.558045 -4.031568 0.785734 0
M  V30 38 H 4.707867 -0.823935 3.213611 0
M  V30 39 H 3.310383 -0.299896 4.171754 0
M  V30 40 H 3.772326 -2.003958 4.259301 0
M  V30 41 H 3.224268 1.151752 2.722579 0
M  V30 42 H 2.177053 3.817785 -1.139810 0
M  V30 43 H 0.321161 5.309704 -2.370189 0
M  V30 44 H -2.287815 1.237044 -2.415310 0
M  V30 45 H -3.996919 -0.358699 -1.729816 0
M  V30 46 H -3.268564 0.531573 2.414127 0
M  V30 47 H -1.514747 2.169795 1.727098 0
M  V30 48 H 0.028134 -4.606516 -0.534238 0
M  V30 49 H -1.164319 -4.582199 -2.839615 0
M  V30 50 H -1.170798 -2.056363 -3.647132 0
M  V30 END ATOM
M  V30 BEGIN BOND
M  V30 1 1 1 2
M  V30 2 1 2 3
M  V30 3 1 3 4
M  V30 4 2 4 5
M  V30 5 1 4 6
M  V30 6 1 6 7
M  V30 7 1 6 8
M  V30 8 2 8 9
M  V30 9 1 9 10
M  V30 10 2 10 11
M  V30 11 1 11 12
M  V30 12 1 12 13
M  V30 13 2 13 14
M  V30 14 1 14 15
M  V30 15 2 15 16
M  V30 16 1 16 17
M  V30 17 2 17 18
M  V30 18 1 18 19
M  V30 19 2 19 20
M  V30 20 1 20 21
M  V30 21 1 20 22
M  V30 22 2 22 23
M  V30 23 1 11 24
M  V30 24 2 24 25
M  V30 25 1 25 26
M  V30 26 1 26 27
M  V30 27 1 27 28
M  V30 28 2 28 29
M  V30 29 1 29 30
M  V30 30 1 30 31
M  V30 31 1 26 3
M  V30 32 2 31 27
M  V30 33 1 25 8
M  V30 34 1 16 12
M  V30 35 1 23 17
M  V30 36 1 1 32
M  V30 37 1 1 33
M  V30 38 1 1 34
M  V30 39 1 2 35
M  V30 40 1 2 36
M  V30 41 1 3 37
M  V30 42 1 7 38
M  V30 43 1 7 39
M  V30 44 1 7 40
M  V30 45 1 9 41
M  V30 46 1 13 42
M  V30 47 1 14 43
M  V30 48 1 18 44
M  V30 49 1 19 45
M  V30 50 1 22 46
M  V30 51 1 23 47
M  V30 52 1 28 48
M  V30 53 1 29 49
M  V30 54 1 30 50
M  V30 END BOND
M  V30 END CTAB
M  END
>  <Dataset>  (100) 
ChEMBL_Kinases

>  <Ligand_Instance>  (100) 
nan

>  <PDB_ID>  (100) 
nan

>  <Standardized_SMILES>  (100) 
CCC1C(=O)N(C)c2cnc(-n3ccnc3-c3ccc(F)cc3)nc2N1c1cc[nH]n1

>  <Name>  (100) 
nan

>  <Pocket>  (100) 
nan

>  <ATP_Site>  (100) 
nan

>  <Peripheral>  (100) 
nan

>  <Num_H_Atoms_ProtBoundConf>  (100) 
nan

>  <Num_Resolved_Atoms>  (100) 
nan

>  <Num_Not_Resolved_Atoms>  (100) 
nan

$$$$
CHEMBL3692208
     RDKit          3D

  0  0  0  0  0  0  0  0  0  0999 V3000
M  V30 BEGIN CTAB
M  V30 COUNTS 60 63 0 0 0
M  V30 BEGIN ATOM
M  V30 1 C 2.420193 -3.704234 4.156121 0
M  V30 2 O 2.278361 -3.466248 2.765318 0
M  V30 3 C 2.163318 -2.160328 2.312949 0
M  V30 4 C 2.182789 -1.085490 3.176419 0
M  V30 5 C 2.064859 0.195598 2.677567 0
M  V30 6 C 1.924971 0.475580 1.334467 0
M  V30 7 C 1.799289 1.770290 0.680862 0
M  V30 8 C 0.348678 2.252444 0.514473 0
M  V30 9 C 0.575469 3.590795 -0.182674 0
M  V30 10 O 0.215441 4.731183 0.268426 0
M  V30 11 O 1.216811 3.629780 -1.401794 0
M  V30 12 C -0.296934 2.607237 1.786514 0
M  V30 13 C -1.230972 1.659373 2.432696 0
M  V30 14 N -1.795172 0.805397 1.410856 0
M  V30 15 C -2.743779 -0.055059 2.032255 0
M  V30 16 O -2.857652 0.131828 3.282556 0
M  V30 17 C -3.527651 -1.064071 1.338041 0
M  V30 18 C -2.852417 -2.288403 1.320583 0
M  V30 19 C -3.428667 -3.399278 0.701382 0
M  V30 20 C -4.664981 -3.271393 0.111589 0
M  V30 21 C -5.316834 -2.058053 0.137794 0
M  V30 22 Cl -6.889973 -1.837135 -0.595345 0
M  V30 23 C -4.767092 -0.949717 0.742726 0
M  V30 24 F -5.305437 0.289750 0.833976 0
M  V30 25 C -1.572094 0.693918 -0.008715 0
M  V30 26 C -0.332642 1.398970 -0.462336 0
M  V30 27 N 1.910012 -0.604028 0.517353 0
M  V30 28 C 2.023243 -1.863147 0.977888 0
M  V30 29 N 1.996730 -2.949222 0.030078 0
M  V30 30 C 1.852953 -2.746093 -1.390096 0
M  V30 31 C 1.814464 -3.706363 -2.403605 0
M  V30 32 C 1.664225 -3.025730 -3.593541 0
M  V30 33 C 1.584554 -3.733288 -4.890260 0
M  V30 34 N 1.614581 -1.725647 -3.314926 0
M  V30 35 N 1.725511 -1.554725 -2.016058 0
M  V30 36 H 3.393350 -3.297553 4.492073 0
M  V30 37 H 2.384352 -4.786520 4.392785 0
M  V30 38 H 1.590686 -3.237856 4.742194 0
M  V30 39 H 2.290691 -1.231181 4.257344 0
M  V30 40 H 2.074909 1.078807 3.322975 0
M  V30 41 H 2.261196 1.806526 -0.326388 0
M  V30 42 H 2.376531 2.502721 1.287627 0
M  V30 43 H 1.027146 4.394176 -2.054330 0
M  V30 44 H -0.852070 3.598196 1.743516 0
M  V30 45 H 0.493890 2.834325 2.567774 0
M  V30 46 H -2.036955 2.177470 3.009988 0
M  V30 47 H -0.657770 0.997907 3.140611 0
M  V30 48 H -1.878959 -2.500145 1.751852 0
M  V30 49 H -2.930590 -4.367520 0.669331 0
M  V30 50 H -5.114594 -4.128390 -0.368332 0
M  V30 51 H -1.601451 -0.392264 -0.245514 0
M  V30 52 H -2.495301 1.103651 -0.481518 0
M  V30 53 H -0.611077 1.924460 -1.408281 0
M  V30 54 H 0.344322 0.579510 -0.825212 0
M  V30 55 H 2.081922 -3.931045 0.343907 0
M  V30 56 H 1.890715 -4.775363 -2.252166 0
M  V30 57 H 1.935272 -3.061141 -5.725278 0
M  V30 58 H 0.518654 -3.969423 -5.112048 0
M  V30 59 H 2.176294 -4.669842 -4.876007 0
M  V30 60 H 1.501357 -0.978960 -4.065573 0
M  V30 END ATOM
M  V30 BEGIN BOND
M  V30 1 1 1 2
M  V30 2 1 2 3
M  V30 3 2 3 4
M  V30 4 1 4 5
M  V30 5 2 5 6
M  V30 6 1 6 7
M  V30 7 1 7 8
M  V30 8 1 8 9
M  V30 9 2 9 10
M  V30 10 1 9 11
M  V30 11 1 8 12
M  V30 12 1 12 13
M  V30 13 1 13 14
M  V30 14 1 14 15
M  V30 15 2 15 16
M  V30 16 1 15 17
M  V30 17 2 17 18
M  V30 18 1 18 19
M  V30 19 2 19 20
M  V30 20 1 20 21
M  V30 21 1 21 22
M  V30 22 2 21 23
M  V30 23 1 23 24
M  V30 24 1 14 25
M  V30 25 1 25 26
M  V30 26 1 6 27
M  V30 27 2 27 28
M  V30 28 1 28 29
M  V30 29 1 29 30
M  V30 30 1 30 31
M  V30 31 2 31 32
M  V30 32 1 32 33
M  V30 33 1 32 34
M  V30 34 1 34 35
M  V30 35 1 28 3
M  V30 36 2 35 30
M  V30 37 1 26 8
M  V30 38 1 23 17
M  V30 39 1 1 36
M  V30 40 1 1 37
M  V30 41 1 1 38
M  V30 42 1 4 39
M  V30 43 1 5 40
M  V30 44 1 7 41
M  V30 45 1 7 42
M  V30 46 1 11 43
M  V30 47 1 12 44
M  V30 48 1 12 45
M  V30 49 1 13 46
M  V30 50 1 13 47
M  V30 51 1 18 48
M  V30 52 1 19 49
M  V30 53 1 20 50
M  V30 54 1 25 51
M  V30 55 1 25 52
M  V30 56 1 26 53
M  V30 57 1 26 54
M  V30 58 1 29 55
M  V30 59 1 31 56
M  V30 60 1 33 57
M  V30 61 1 33 58
M  V30 62 1 33 59
M  V30 63 1 34 60
M  V30 END BOND
M  V30 END CTAB
M  END
>  <Dataset>  (101) 
ChEMBL_Kinases

>  <Ligand_Instance>  (101) 
nan

>  <PDB_ID>  (101) 
nan

>  <Standardized_SMILES>  (101) 
COc1ccc(CC2(C(=O)O)CCN(C(=O)c3cccc(Cl)c3F)CC2)nc1Nc1cc(C)[nH]n1

>  <Name>  (101) 
nan

>  <Pocket>  (101) 
nan

>  <ATP_Site>  (101) 
nan

>  <Peripheral>  (101) 
nan

>  <Num_H_Atoms_ProtBoundConf>  (101) 
nan

>  <Num_Resolved_Atoms>  (101) 
nan

>  <Num_Not_Resolved_Atoms>  (101) 
nan

$$$$
CHEMBL2402080
     RDKit          3D

  0  0  0  0  0  0  0  0  0  0999 V3000
M  V30 BEGIN CTAB
M  V30 COUNTS 53 57 0 0 0
M  V30 BEGIN ATOM
M  V30 1 C 1.586080 -1.251405 3.599600 0
M  V30 2 C 1.046702 -2.613008 3.309991 0
M  V30 3 C 1.241761 -3.071252 1.897387 0 CFG=2
M  V30 4 C 2.680595 -3.124591 1.531318 0
M  V30 5 O 3.341464 -4.214586 1.543240 0
M  V30 6 N 3.374330 -1.949541 1.151903 0
M  V30 7 C 4.807132 -1.812976 1.269024 0
M  V30 8 C 2.615265 -0.863477 0.634277 0
M  V30 9 C 3.230365 0.308644 0.247086 0
M  V30 10 N 2.427817 1.272739 -0.227374 0
M  V30 11 C 1.085246 1.117971 -0.326615 0
M  V30 12 N 0.350827 2.219288 -0.846830 0
M  V30 13 C 0.806394 3.237055 -1.585205 0
M  V30 14 C -0.178150 4.141449 -1.925757 0
M  V30 15 N -1.288688 3.635539 -1.357919 0
M  V30 16 C -0.954686 2.500108 -0.725483 0
M  V30 17 C -1.941805 1.688328 0.005124 0
M  V30 18 C -1.912528 1.232702 1.308202 0
M  V30 19 C -2.948428 0.487300 1.780828 0
M  V30 20 C -4.045809 0.156698 1.013812 0
M  V30 21 F -5.061044 -0.578799 1.490723 0
M  V30 22 C -4.101329 0.595995 -0.284358 0
M  V30 23 C -3.056192 1.352585 -0.773731 0
M  V30 24 N 0.477638 -0.021726 0.048716 0
M  V30 25 C 1.249463 -1.013134 0.530225 0
M  V30 26 N 0.589953 -2.208915 0.921704 0
M  V30 27 C -0.675695 -2.628908 0.421639 0
M  V30 28 C -1.395176 -3.780082 0.770075 0
M  V30 29 N -2.528232 -3.815740 0.085012 0
M  V30 30 N -2.616949 -2.758711 -0.704378 0
M  V30 31 C -3.749927 -2.531002 -1.572211 0
M  V30 32 C -1.500929 -2.032726 -0.509243 0
M  V30 33 H 1.104247 -0.424803 3.069530 0
M  V30 34 H 1.371369 -1.066506 4.692999 0
M  V30 35 H 2.679844 -1.145897 3.519129 0
M  V30 36 H 1.599209 -3.325514 3.955175 0
M  V30 37 H -0.003975 -2.645228 3.604571 0
M  V30 38 H 0.875015 -4.116118 1.833531 0
M  V30 39 H 5.003596 -1.031992 2.026346 0
M  V30 40 H 5.282712 -1.548398 0.293402 0
M  V30 41 H 5.220539 -2.805613 1.549009 0
M  V30 42 H 4.300575 0.419248 0.331204 0
M  V30 43 H 1.841926 3.380866 -1.910126 0
M  V30 44 H -0.055585 5.041084 -2.514804 0
M  V30 45 H -1.016304 1.541092 1.828603 0
M  V30 46 H -2.883731 0.156216 2.794201 0
M  V30 47 H -4.957613 0.347248 -0.908329 0
M  V30 48 H -3.171925 1.667426 -1.820364 0
M  V30 49 H -1.091458 -4.533800 1.483588 0
M  V30 50 H -3.589692 -1.610080 -2.161694 0
M  V30 51 H -4.671794 -2.510393 -0.966820 0
M  V30 52 H -3.884631 -3.353819 -2.324518 0
M  V30 53 H -1.321725 -1.124825 -1.027810 0
M  V30 END ATOM
M  V30 BEGIN BOND
M  V30 1 1 1 2
M  V30 2 1 2 3
M  V30 3 1 3 4
M  V30 4 2 4 5
M  V30 5 1 4 6
M  V30 6 1 6 7
M  V30 7 1 6 8
M  V30 8 2 8 9
M  V30 9 1 9 10
M  V30 10 2 10 11
M  V30 11 1 11 12
M  V30 12 1 12 13
M  V30 13 2 13 14
M  V30 14 1 14 15
M  V30 15 2 15 16
M  V30 16 1 16 17
M  V30 17 2 17 18
M  V30 18 1 18 19
M  V30 19 2 19 20
M  V30 20 1 20 21
M  V30 21 1 20 22
M  V30 22 2 22 23
M  V30 23 1 11 24
M  V30 24 2 24 25
M  V30 25 1 25 26
M  V30 26 1 26 27
M  V30 27 1 27 28
M  V30 28 2 28 29
M  V30 29 1 29 30
M  V30 30 1 30 31
M  V30 31 1 30 32
M  V30 32 1 26 3
M  V30 33 2 32 27
M  V30 34 1 25 8
M  V30 35 1 16 12
M  V30 36 1 23 17
M  V30 37 1 1 33
M  V30 38 1 1 34
M  V30 39 1 1 35
M  V30 40 1 2 36
M  V30 41 1 2 37
M  V30 42 1 3 38 CFG=1
M  V30 43 1 7 39
M  V30 44 1 7 40
M  V30 45 1 7 41
M  V30 46 1 9 42
M  V30 47 1 13 43
M  V30 48 1 14 44
M  V30 49 1 18 45
M  V30 50 1 19 46
M  V30 51 1 22 47
M  V30 52 1 23 48
M  V30 53 1 28 49
M  V30 54 1 31 50
M  V30 55 1 31 51
M  V30 56 1 31 52
M  V30 57 1 32 53
M  V30 END BOND
M  V30 END CTAB
M  END
>  <Dataset>  (102) 
ChEMBL_Kinases

>  <Ligand_Instance>  (102) 
nan

>  <PDB_ID>  (102) 
nan

>  <Standardized_SMILES>  (102) 
CC[C@@H]1C(=O)N(C)c2cnc(-n3ccnc3-c3ccc(F)cc3)nc2N1c1cnn(C)c1

>  <Name>  (102) 
nan

>  <Pocket>  (102) 
nan

>  <ATP_Site>  (102) 
nan

>  <Peripheral>  (102) 
nan

>  <Num_H_Atoms_ProtBoundConf>  (102) 
nan

>  <Num_Resolved_Atoms>  (102) 
nan

>  <Num_Not_Resolved_Atoms>  (102) 
nan

$$$$
CHEMBL2402081
     RDKit          3D

  0  0  0  0  0  0  0  0  0  0999 V3000
M  V30 BEGIN CTAB
M  V30 COUNTS 53 57 0 0 0
M  V30 BEGIN ATOM
M  V30 1 C 0.094297 -2.020598 3.782103 0
M  V30 2 C 1.458461 -2.321975 3.208400 0
M  V30 3 C 1.370153 -2.975942 1.847962 0 CFG=2
M  V30 4 C 2.792660 -3.211503 1.413115 0
M  V30 5 O 3.464741 -4.293895 1.348040 0
M  V30 6 N 3.459009 -1.995610 1.017708 0
M  V30 7 C 4.919340 -1.888433 1.082416 0
M  V30 8 C 2.731367 -0.859961 0.552498 0
M  V30 9 C 3.307997 0.313865 0.166039 0
M  V30 10 N 2.527062 1.323651 -0.257127 0
M  V30 11 C 1.184789 1.263634 -0.330622 0
M  V30 12 N 0.449284 2.394718 -0.794722 0
M  V30 13 C 0.956778 3.400287 -1.507235 0
M  V30 14 C -0.017181 4.327360 -1.791792 0
M  V30 15 N -1.150783 3.840733 -1.217664 0
M  V30 16 C -0.854460 2.667696 -0.615890 0
M  V30 17 C -1.821594 1.847618 0.108064 0
M  V30 18 C -1.743964 1.368967 1.400212 0
M  V30 19 C -2.783003 0.604751 1.888232 0
M  V30 20 C -3.886617 0.308811 1.127505 0
M  V30 21 F -4.887107 -0.457079 1.671818 0
M  V30 22 C -3.976969 0.782058 -0.168467 0
M  V30 23 C -2.943992 1.547862 -0.668626 0
M  V30 24 N 0.582527 0.107480 0.047583 0
M  V30 25 C 1.338775 -0.942814 0.483745 0
M  V30 26 N 0.706800 -2.156442 0.880763 0
M  V30 27 C -0.551562 -2.510780 0.307946 0
M  V30 28 C -1.243489 -3.662608 0.625766 0
M  V30 29 C -2.407117 -3.634641 -0.139104 0
M  V30 30 N -2.357277 -2.483431 -0.868362 0
M  V30 31 C -3.472854 -2.195054 -1.774630 0
M  V30 32 N -1.242242 -1.820040 -0.591816 0
M  V30 33 H -0.572377 -2.930410 3.751021 0
M  V30 34 H 0.220100 -1.765781 4.854740 0
M  V30 35 H -0.436211 -1.199752 3.302784 0
M  V30 36 H 2.006471 -1.357221 3.183456 0
M  V30 37 H 1.986598 -2.969376 3.936830 0
M  V30 38 H 0.875031 -3.958079 1.994286 0
M  V30 39 H 5.176803 -1.077973 1.801612 0
M  V30 40 H 5.349218 -1.704412 0.067423 0
M  V30 41 H 5.311393 -2.885227 1.404206 0
M  V30 42 H 4.369549 0.415057 0.204597 0
M  V30 43 H 2.004680 3.457041 -1.810645 0
M  V30 44 H 0.103303 5.248241 -2.355405 0
M  V30 45 H -0.838766 1.654586 1.917822 0
M  V30 46 H -2.660803 0.256649 2.917015 0
M  V30 47 H -4.867275 0.537277 -0.767168 0
M  V30 48 H -3.094699 1.882549 -1.702698 0
M  V30 49 H -0.994961 -4.471918 1.320334 0
M  V30 50 H -3.160244 -4.412106 -0.108075 0
M  V30 51 H -4.387906 -1.889107 -1.234978 0
M  V30 52 H -3.679735 -3.105123 -2.394966 0
M  V30 53 H -3.127933 -1.407583 -2.448450 0
M  V30 END ATOM
M  V30 BEGIN BOND
M  V30 1 1 1 2
M  V30 2 1 2 3
M  V30 3 1 3 4
M  V30 4 2 4 5
M  V30 5 1 4 6
M  V30 6 1 6 7
M  V30 7 1 6 8
M  V30 8 2 8 9
M  V30 9 1 9 10
M  V30 10 2 10 11
M  V30 11 1 11 12
M  V30 12 1 12 13
M  V30 13 2 13 14
M  V30 14 1 14 15
M  V30 15 2 15 16
M  V30 16 1 16 17
M  V30 17 2 17 18
M  V30 18 1 18 19
M  V30 19 2 19 20
M  V30 20 1 20 21
M  V30 21 1 20 22
M  V30 22 2 22 23
M  V30 23 1 11 24
M  V30 24 2 24 25
M  V30 25 1 25 26
M  V30 26 1 26 27
M  V30 27 1 27 28
M  V30 28 2 28 29
M  V30 29 1 29 30
M  V30 30 1 30 31
M  V30 31 1 30 32
M  V30 32 1 26 3
M  V30 33 2 32 27
M  V30 34 1 25 8
M  V30 35 1 16 12
M  V30 36 1 23 17
M  V30 37 1 1 33
M  V30 38 1 1 34
M  V30 39 1 1 35
M  V30 40 1 2 36
M  V30 41 1 2 37
M  V30 42 1 3 38 CFG=1
M  V30 43 1 7 39
M  V30 44 1 7 40
M  V30 45 1 7 41
M  V30 46 1 9 42
M  V30 47 1 13 43
M  V30 48 1 14 44
M  V30 49 1 18 45
M  V30 50 1 19 46
M  V30 51 1 22 47
M  V30 52 1 23 48
M  V30 53 1 28 49
M  V30 54 1 29 50
M  V30 55 1 31 51
M  V30 56 1 31 52
M  V30 57 1 31 53
M  V30 END BOND
M  V30 END CTAB
M  END
>  <Dataset>  (103) 
ChEMBL_Kinases

>  <Ligand_Instance>  (103) 
nan

>  <PDB_ID>  (103) 
nan

>  <Standardized_SMILES>  (103) 
CC[C@@H]1C(=O)N(C)c2cnc(-n3ccnc3-c3ccc(F)cc3)nc2N1c1ccn(C)n1

>  <Name>  (103) 
nan

>  <Pocket>  (103) 
nan

>  <ATP_Site>  (103) 
nan

>  <Peripheral>  (103) 
nan

>  <Num_H_Atoms_ProtBoundConf>  (103) 
nan

>  <Num_Resolved_Atoms>  (103) 
nan

>  <Num_Not_Resolved_Atoms>  (103) 
nan

$$$$
CHEMBL4457096
     RDKit          3D

  0  0  0  0  0  0  0  0  0  0999 V3000
M  V30 BEGIN CTAB
M  V30 COUNTS 39 42 0 0 0
M  V30 BEGIN ATOM
M  V30 1 O -1.038363 -1.285802 3.754970 0
M  V30 2 C -0.292441 -2.290953 3.640207 0
M  V30 3 N -0.063469 -2.786992 2.328130 0
M  V30 4 C -0.523196 -2.364528 1.048946 0
M  V30 5 C 0.198974 -1.461510 0.304005 0
M  V30 6 C -0.188222 -1.010853 -0.935245 0
M  V30 7 C 0.483463 -0.070151 -1.815220 0
M  V30 8 N 0.886447 -0.553006 -3.027635 0
M  V30 9 C 1.483791 0.420033 -3.732793 0
M  V30 10 N 1.475251 1.528172 -2.997128 0
M  V30 11 C 0.866873 1.249948 -1.817773 0
M  V30 12 C 0.594785 2.075644 -0.670224 0
M  V30 13 C -0.320512 3.086061 -0.986955 0
M  V30 14 C -0.738653 4.018187 -0.037333 0
M  V30 15 C -0.245849 3.954189 1.249202 0
M  V30 16 F -0.635854 4.847249 2.188776 0
M  V30 17 C 0.665751 2.947163 1.562705 0
M  V30 18 C 1.073000 2.031976 0.620727 0
M  V30 19 C -1.380312 -1.523595 -1.420556 0
M  V30 20 C -2.119060 -2.429712 -0.690457 0
M  V30 21 N -1.693506 -2.839665 0.522460 0
M  V30 22 C 0.339940 -2.961181 4.781516 0
M  V30 23 C 0.960582 -4.282774 4.684114 0
M  V30 24 C 1.868639 -3.107927 4.597092 0
M  V30 25 H 0.544533 -3.617879 2.159629 0
M  V30 26 H 1.115136 -1.064065 0.668486 0
M  V30 27 H 0.808081 -1.514077 -3.473361 0
M  V30 28 H 1.928773 0.434548 -4.717963 0
M  V30 29 H -0.792308 3.256269 -1.965427 0
M  V30 30 H -1.444203 4.807548 -0.256954 0
M  V30 31 H 1.075032 2.854224 2.540836 0
M  V30 32 H 1.771499 1.223318 0.763297 0
M  V30 33 H -1.792646 -1.255000 -2.370252 0
M  V30 34 H -3.055987 -2.893953 -0.964099 0
M  V30 35 H 0.090887 -2.507806 5.763420 0
M  V30 36 H 1.019662 -4.908202 5.604317 0
M  V30 37 H 0.828732 -4.869664 3.744121 0
M  V30 38 H 2.313942 -2.870218 3.630658 0
M  V30 39 H 2.517772 -2.905823 5.467875 0
M  V30 END ATOM
M  V30 BEGIN BOND
M  V30 1 2 1 2
M  V30 2 1 2 3
M  V30 3 1 3 4
M  V30 4 2 4 5
M  V30 5 1 5 6
M  V30 6 1 6 7
M  V30 7 1 7 8
M  V30 8 1 8 9
M  V30 9 2 9 10
M  V30 10 1 10 11
M  V30 11 1 11 12
M  V30 12 2 12 13
M  V30 13 1 13 14
M  V30 14 2 14 15
M  V30 15 1 15 16
M  V30 16 1 15 17
M  V30 17 2 17 18
M  V30 18 2 6 19
M  V30 19 1 19 20
M  V30 20 2 20 21
M  V30 21 1 2 22
M  V30 22 1 22 23
M  V30 23 1 23 24
M  V30 24 1 21 4
M  V30 25 1 24 22
M  V30 26 2 11 7
M  V30 27 1 18 12
M  V30 28 1 3 25
M  V30 29 1 5 26
M  V30 30 1 8 27
M  V30 31 1 9 28
M  V30 32 1 13 29
M  V30 33 1 14 30
M  V30 34 1 17 31
M  V30 35 1 18 32
M  V30 36 1 19 33
M  V30 37 1 20 34
M  V30 38 1 22 35
M  V30 39 1 23 36
M  V30 40 1 23 37
M  V30 41 1 24 38
M  V30 42 1 24 39
M  V30 END BOND
M  V30 END CTAB
M  END
>  <Dataset>  (104) 
ChEMBL_Kinases

>  <Ligand_Instance>  (104) 
nan

>  <PDB_ID>  (104) 
nan

>  <Standardized_SMILES>  (104) 
O=C(Nc1cc(-c2[nH]cnc2-c2ccc(F)cc2)ccn1)C1CC1

>  <Name>  (104) 
nan

>  <Pocket>  (104) 
nan

>  <ATP_Site>  (104) 
nan

>  <Peripheral>  (104) 
nan

>  <Num_H_Atoms_ProtBoundConf>  (104) 
nan

>  <Num_Resolved_Atoms>  (104) 
nan

>  <Num_Not_Resolved_Atoms>  (104) 
nan

$$$$
CHEMBL3703183
     RDKit          3D

  0  0  0  0  0  0  0  0  0  0999 V3000
M  V30 BEGIN CTAB
M  V30 COUNTS 48 51 0 0 0
M  V30 BEGIN ATOM
M  V30 1 C 1.311463 -6.209535 2.539370 0
M  V30 2 S 1.247416 -4.389581 2.514838 0
M  V30 3 C 0.325838 -3.808733 1.102614 0
M  V30 4 N -0.239549 -4.637731 0.187518 0
M  V30 5 C -0.935099 -4.137010 -0.875233 0
M  V30 6 C -1.081250 -2.752663 -1.045513 0
M  V30 7 C -0.475424 -1.995079 -0.070387 0
M  V30 8 N 0.208035 -2.475249 0.974346 0
M  V30 9 C -0.639323 -0.561432 -0.265891 0
M  V30 10 C -1.367425 -0.242799 -1.386292 0
M  V30 11 C -1.407569 1.158244 -1.392388 0
M  V30 12 C -2.012353 2.164433 -2.292988 0
M  V30 13 N -2.758373 1.813568 -3.467317 0
M  V30 14 O -1.994697 3.424885 -2.215332 0
M  V30 15 C -0.710636 1.627068 -0.288707 0
M  V30 16 N -0.255698 0.551548 0.376107 0
M  V30 17 C 0.518957 0.538579 1.582522 0 CFG=1
M  V30 18 C 1.903111 1.079850 1.312846 0
M  V30 19 C 2.751191 1.159691 2.529609 0
M  V30 20 C 2.104673 1.128625 3.847548 0 CFG=1
M  V30 21 N 2.648645 2.211270 4.670445 0
M  V30 22 C 0.621778 1.222116 3.901434 0
M  V30 23 C -0.038096 1.553088 2.593771 0
M  V30 24 C -2.040140 -0.997755 -2.462691 0
M  V30 25 C -1.868783 -2.474723 -2.261336 0
M  V30 26 H 2.323894 -6.574369 2.280131 0
M  V30 27 H 0.570571 -6.667654 1.837501 0
M  V30 28 H 0.994334 -6.582801 3.556555 0
M  V30 29 H -1.295027 -4.964604 -1.470350 0
M  V30 30 H -2.542781 1.806349 -4.491638 0
M  V30 31 H -3.708732 1.465096 -3.724786 0
M  V30 32 H -0.515439 2.624975 0.055332 0
M  V30 33 H 0.515101 -0.412509 2.110567 0
M  V30 34 H 1.758816 2.104770 0.860293 0
M  V30 35 H 2.373564 0.485168 0.485515 0
M  V30 36 H 3.514641 0.333462 2.428008 0
M  V30 37 H 3.398868 2.078889 2.405813 0
M  V30 38 H 2.409121 0.194885 4.387369 0
M  V30 39 H 2.209991 3.125108 4.407057 0
M  V30 40 H 2.482198 2.059981 5.682682 0
M  V30 41 H 0.156297 0.260282 4.241539 0
M  V30 42 H 0.269419 1.977547 4.635824 0
M  V30 43 H -1.138167 1.375646 2.721538 0
M  V30 44 H 0.179846 2.560014 2.203970 0
M  V30 45 H -1.555651 -0.756191 -3.435284 0
M  V30 46 H -3.122750 -0.715193 -2.492094 0
M  V30 47 H -1.443346 -2.982248 -3.156247 0
M  V30 48 H -2.907433 -2.914485 -2.143461 0
M  V30 END ATOM
M  V30 BEGIN BOND
M  V30 1 1 1 2
M  V30 2 1 2 3
M  V30 3 2 3 4
M  V30 4 1 4 5
M  V30 5 2 5 6
M  V30 6 1 6 7
M  V30 7 2 7 8
M  V30 8 1 7 9
M  V30 9 2 9 10
M  V30 10 1 10 11
M  V30 11 1 11 12
M  V30 12 1 12 13
M  V30 13 2 12 14
M  V30 14 2 11 15
M  V30 15 1 15 16
M  V30 16 1 16 17
M  V30 17 1 17 18
M  V30 18 1 18 19
M  V30 19 1 19 20
M  V30 20 1 20 21
M  V30 21 1 20 22
M  V30 22 1 22 23
M  V30 23 1 10 24
M  V30 24 1 24 25
M  V30 25 1 8 3
M  V30 26 1 16 9
M  V30 27 1 23 17
M  V30 28 1 25 6
M  V30 29 1 1 26
M  V30 30 1 1 27
M  V30 31 1 1 28
M  V30 32 1 5 29
M  V30 33 1 13 30
M  V30 34 1 13 31
M  V30 35 1 15 32
M  V30 36 1 17 33 CFG=1
M  V30 37 1 18 34
M  V30 38 1 18 35
M  V30 39 1 19 36
M  V30 40 1 19 37
M  V30 41 1 20 38 CFG=1
M  V30 42 1 21 39
M  V30 43 1 21 40
M  V30 44 1 22 41
M  V30 45 1 22 42
M  V30 46 1 23 43
M  V30 47 1 23 44
M  V30 48 1 24 45
M  V30 49 1 24 46
M  V30 50 1 25 47
M  V30 51 1 25 48
M  V30 END BOND
M  V30 END CTAB
M  END
>  <Dataset>  (105) 
ChEMBL_Kinases

>  <Ligand_Instance>  (105) 
nan

>  <PDB_ID>  (105) 
nan

>  <Standardized_SMILES>  (105) 
CSc1ncc2c(n1)-c1c(c(C(N)=O)cn1[C@H]1CC[C@@H](N)CC1)CC2

>  <Name>  (105) 
nan

>  <Pocket>  (105) 
nan

>  <ATP_Site>  (105) 
nan

>  <Peripheral>  (105) 
nan

>  <Num_H_Atoms_ProtBoundConf>  (105) 
nan

>  <Num_Resolved_Atoms>  (105) 
nan

>  <Num_Not_Resolved_Atoms>  (105) 
nan

$$$$
CHEMBL4572195
     RDKit          3D

  0  0  0  0  0  0  0  0  0  0999 V3000
M  V30 BEGIN CTAB
M  V30 COUNTS 54 58 0 0 0
M  V30 BEGIN ATOM
M  V30 1 C 2.019547 -4.881503 1.385422 0
M  V30 2 C 2.453808 -3.886945 2.414122 0 CFG=1
M  V30 3 N 3.773328 -4.161955 2.956489 0
M  V30 4 C 4.636131 -3.055515 2.637136 0
M  V30 5 O 5.857480 -2.950930 2.951231 0
M  V30 6 C 3.901170 -2.045980 1.885967 0
M  V30 7 C 3.863606 -0.833703 1.239274 0
M  V30 8 C 2.589094 -0.565455 0.714300 0
M  V30 9 C 2.281405 0.669926 0.015872 0
M  V30 10 C 3.355932 1.503876 -0.333206 0
M  V30 11 C 3.202243 2.694867 -1.000238 0
M  V30 12 C 1.918873 3.060447 -1.328213 0
M  V30 13 C 0.897229 2.229164 -0.973807 0
M  V30 14 C -0.384885 2.619665 -1.301136 0
M  V30 15 O -0.530913 3.711627 -1.915320 0
M  V30 16 N -1.498418 1.890972 -0.997903 0
M  V30 17 C -2.759022 2.496287 -1.372687 0
M  V30 18 C -1.324940 0.703541 -0.331779 0
M  V30 19 N -2.482607 -0.139348 -0.100072 0
M  V30 20 C -3.838154 -0.194033 -0.606058 0
M  V30 21 C -4.720552 -0.139262 0.636589 0
M  V30 22 C -3.988779 -1.195558 1.452019 0
M  V30 23 C -2.660857 -1.386136 0.663908 0
M  V30 24 C -2.844303 -2.590016 -0.195439 0
M  V30 25 C -1.630043 -1.595941 1.731164 0
M  V30 26 N -0.093425 0.283053 0.007856 0
M  V30 27 C 0.966793 1.025173 -0.307066 0
M  V30 28 N 1.935504 -1.651926 1.085342 0
M  V30 29 C 2.635673 -2.560881 1.773616 0
M  V30 30 H 1.006357 -5.268921 1.663448 0
M  V30 31 H 1.934813 -4.449203 0.369408 0
M  V30 32 H 2.713513 -5.764597 1.382187 0
M  V30 33 H 1.723144 -3.837008 3.254368 0
M  V30 34 H 4.069691 -5.011147 3.490909 0
M  V30 35 H 4.806511 -0.261141 1.223624 0
M  V30 36 H 4.383765 1.244901 -0.089679 0
M  V30 37 H 4.000564 3.342756 -1.275183 0
M  V30 38 H 1.763063 3.990755 -1.853894 0
M  V30 39 H -3.501668 2.443068 -0.549181 0
M  V30 40 H -2.555643 3.630140 -1.386339 0
M  V30 41 H -3.101437 2.235540 -2.368686 0
M  V30 42 H -4.035827 -1.205752 -1.088180 0
M  V30 43 H -4.141489 0.505864 -1.359201 0
M  V30 44 H -5.749019 -0.446993 0.464291 0
M  V30 45 H -4.716705 0.852104 1.120785 0
M  V30 46 H -4.557706 -2.118538 1.505681 0
M  V30 47 H -3.783160 -0.816941 2.458736 0
M  V30 48 H -2.209122 -3.405699 0.274236 0
M  V30 49 H -2.485052 -2.467713 -1.251151 0
M  V30 50 H -3.884459 -2.971907 -0.155420 0
M  V30 51 H -1.024185 -0.712676 1.875391 0
M  V30 52 H -1.087877 -2.532362 1.459666 0
M  V30 53 H -2.164844 -1.894583 2.684582 0
M  V30 54 H 0.956811 -1.656914 0.770918 0
M  V30 END ATOM
M  V30 BEGIN BOND
M  V30 1 1 1 2
M  V30 2 1 2 3
M  V30 3 1 3 4
M  V30 4 2 4 5
M  V30 5 1 4 6
M  V30 6 1 6 7
M  V30 7 2 7 8
M  V30 8 1 8 9
M  V30 9 2 9 10
M  V30 10 1 10 11
M  V30 11 2 11 12
M  V30 12 1 12 13
M  V30 13 1 13 14
M  V30 14 2 14 15
M  V30 15 1 14 16
M  V30 16 1 16 17
M  V30 17 1 16 18
M  V30 18 1 18 19
M  V30 19 1 19 20
M  V30 20 1 20 21
M  V30 21 1 21 22
M  V30 22 1 22 23
M  V30 23 1 23 24
M  V30 24 1 23 25
M  V30 25 2 18 26
M  V30 26 1 26 27
M  V30 27 1 8 28
M  V30 28 1 28 29
M  V30 29 1 29 2
M  V30 30 2 29 6
M  V30 31 1 27 9
M  V30 32 2 27 13
M  V30 33 1 23 19
M  V30 34 1 1 30
M  V30 35 1 1 31
M  V30 36 1 1 32
M  V30 37 1 2 33 CFG=1
M  V30 38 1 3 34
M  V30 39 1 7 35
M  V30 40 1 10 36
M  V30 41 1 11 37
M  V30 42 1 12 38
M  V30 43 1 17 39
M  V30 44 1 17 40
M  V30 45 1 17 41
M  V30 46 1 20 42
M  V30 47 1 20 43
M  V30 48 1 21 44
M  V30 49 1 21 45
M  V30 50 1 22 46
M  V30 51 1 22 47
M  V30 52 1 24 48
M  V30 53 1 24 49
M  V30 54 1 24 50
M  V30 55 1 25 51
M  V30 56 1 25 52
M  V30 57 1 25 53
M  V30 58 1 28 54
M  V30 END BOND
M  V30 END CTAB
M  END
>  <Dataset>  (106) 
ChEMBL_Kinases

>  <Ligand_Instance>  (106) 
nan

>  <PDB_ID>  (106) 
nan

>  <Standardized_SMILES>  (106) 
C[C@H]1NC(=O)c2cc(-c3cccc4c(=O)n(C)c(N5CCCC5(C)C)nc34)[nH]c21

>  <Name>  (106) 
nan

>  <Pocket>  (106) 
nan

>  <ATP_Site>  (106) 
nan

>  <Peripheral>  (106) 
nan

>  <Num_H_Atoms_ProtBoundConf>  (106) 
nan

>  <Num_Resolved_Atoms>  (106) 
nan

>  <Num_Not_Resolved_Atoms>  (106) 
nan

$$$$
CHEMBL3703184
     RDKit          3D

  0  0  0  0  0  0  0  0  0  0999 V3000
M  V30 BEGIN CTAB
M  V30 COUNTS 46 49 0 0 0
M  V30 BEGIN ATOM
M  V30 1 C 1.379034 -4.779141 2.751098 0
M  V30 2 S 1.038309 -3.327212 3.782994 0
M  V30 3 C 1.917489 -1.942453 3.079701 0
M  V30 4 N 3.172808 -1.716828 3.499960 0
M  V30 5 C 3.910530 -0.684382 3.015270 0
M  V30 6 C 3.238265 0.090157 2.062213 0
M  V30 7 C 3.971027 1.141890 1.559603 0
M  V30 8 C 3.369050 1.946633 0.615895 0
M  V30 9 C 2.078844 1.677878 0.213879 0
M  V30 10 C 1.298048 2.334180 -0.695103 0
M  V30 11 C 1.630368 3.509043 -1.490440 0
M  V30 12 N 0.675339 4.053262 -2.391753 0
M  V30 13 O 2.765531 4.037568 -1.374634 0
M  V30 14 C 0.120901 1.655366 -0.709262 0
M  V30 15 N 0.083863 0.581297 0.145899 0
M  V30 16 C -0.987105 -0.333932 0.370279 0 CFG=1
M  V30 17 C -0.764147 -1.784760 0.191341 0
M  V30 18 C -1.975612 -2.359125 -0.587877 0
M  V30 19 C -3.161727 -1.666240 0.073391 0 CFG=1
M  V30 20 N -4.203377 -2.673828 0.170891 0
M  V30 21 C -2.898410 -1.230592 1.487804 0
M  V30 22 C -1.803612 -0.160122 1.605078 0
M  V30 23 C 1.323405 0.629982 0.702479 0
M  V30 24 C 1.959164 -0.149318 1.641785 0
M  V30 25 N 1.295585 -1.183291 2.163340 0
M  V30 26 H 0.933261 -4.609192 1.743409 0
M  V30 27 H 2.470331 -4.932876 2.663047 0
M  V30 28 H 0.907809 -5.692613 3.167214 0
M  V30 29 H 4.908695 -0.472954 3.323416 0
M  V30 30 H 4.983846 1.366241 1.864197 0
M  V30 31 H 3.927104 2.777698 0.208641 0
M  V30 32 H 0.491104 3.678940 -3.367917 0
M  V30 33 H 0.143957 4.874778 -2.025071 0
M  V30 34 H -0.716815 1.958993 -1.358545 0
M  V30 35 H -1.734548 -0.040123 -0.437372 0
M  V30 36 H -0.948644 -2.376689 1.146637 0
M  V30 37 H 0.172948 -2.092057 -0.269285 0
M  V30 38 H -1.888168 -2.085339 -1.650795 0
M  V30 39 H -2.016232 -3.458574 -0.510339 0
M  V30 40 H -3.597912 -0.864220 -0.559126 0
M  V30 41 H -4.593628 -2.918093 -0.782393 0
M  V30 42 H -3.869625 -3.523743 0.677430 0
M  V30 43 H -3.830092 -0.730196 1.818220 0
M  V30 44 H -2.720296 -2.101288 2.113960 0
M  V30 45 H -1.320223 -0.339727 2.557361 0
M  V30 46 H -2.248145 0.868533 1.681379 0
M  V30 END ATOM
M  V30 BEGIN BOND
M  V30 1 1 1 2
M  V30 2 1 2 3
M  V30 3 2 3 4
M  V30 4 1 4 5
M  V30 5 2 5 6
M  V30 6 1 6 7
M  V30 7 2 7 8
M  V30 8 1 8 9
M  V30 9 1 9 10
M  V30 10 1 10 11
M  V30 11 1 11 12
M  V30 12 2 11 13
M  V30 13 2 10 14
M  V30 14 1 14 15
M  V30 15 1 15 16
M  V30 16 1 16 17
M  V30 17 1 17 18
M  V30 18 1 18 19
M  V30 19 1 19 20
M  V30 20 1 19 21
M  V30 21 1 21 22
M  V30 22 1 15 23
M  V30 23 1 23 24
M  V30 24 2 24 25
M  V30 25 1 25 3
M  V30 26 1 24 6
M  V30 27 2 23 9
M  V30 28 1 22 16
M  V30 29 1 1 26
M  V30 30 1 1 27
M  V30 31 1 1 28
M  V30 32 1 5 29
M  V30 33 1 7 30
M  V30 34 1 8 31
M  V30 35 1 12 32
M  V30 36 1 12 33
M  V30 37 1 14 34
M  V30 38 1 16 35 CFG=3
M  V30 39 1 17 36
M  V30 40 1 17 37
M  V30 41 1 18 38
M  V30 42 1 18 39
M  V30 43 1 19 40 CFG=3
M  V30 44 1 20 41
M  V30 45 1 20 42
M  V30 46 1 21 43
M  V30 47 1 21 44
M  V30 48 1 22 45
M  V30 49 1 22 46
M  V30 END BOND
M  V30 END CTAB
M  END
>  <Dataset>  (107) 
ChEMBL_Kinases

>  <Ligand_Instance>  (107) 
nan

>  <PDB_ID>  (107) 
nan

>  <Standardized_SMILES>  (107) 
CSc1ncc2ccc3c(C(N)=O)cn([C@H]4CC[C@@H](N)CC4)c3c2n1

>  <Name>  (107) 
nan

>  <Pocket>  (107) 
nan

>  <ATP_Site>  (107) 
nan

>  <Peripheral>  (107) 
nan

>  <Num_H_Atoms_ProtBoundConf>  (107) 
nan

>  <Num_Resolved_Atoms>  (107) 
nan

>  <Num_Not_Resolved_Atoms>  (107) 
nan

$$$$
CHEMBL3703185
     RDKit          3D

  0  0  0  0  0  0  0  0  0  0999 V3000
M  V30 BEGIN CTAB
M  V30 COUNTS 43 46 0 0 0
M  V30 BEGIN ATOM
M  V30 1 C 1.269171 -5.356941 3.434111 0
M  V30 2 S 0.905907 -3.612423 3.317490 0
M  V30 3 C 0.865467 -3.053958 1.642550 0
M  V30 4 N 1.106468 -3.992140 0.722196 0
M  V30 5 C 1.110176 -3.720376 -0.598889 0
M  V30 6 C 0.848345 -2.410561 -0.925841 0
M  V30 7 C 0.853355 -2.134731 -2.293912 0
M  V30 8 C 0.598426 -0.842602 -2.689400 0
M  V30 9 C 0.353576 0.104159 -1.725153 0
M  V30 10 C 0.081916 1.427785 -1.903742 0
M  V30 11 C -0.015121 2.161815 -3.160770 0
M  V30 12 N -0.309050 3.553539 -3.171974 0
M  V30 13 O 0.155453 1.599203 -4.272767 0
M  V30 14 C -0.086774 1.954773 -0.667541 0
M  V30 15 N 0.065857 1.017497 0.317084 0
M  V30 16 C -0.029876 1.151382 1.772946 0
M  V30 17 C 1.275955 1.046297 2.474848 0
M  V30 18 C 1.241750 0.481036 3.842448 0
M  V30 19 N 0.203716 -0.407128 4.171853 0
M  V30 20 C -1.083538 -0.184575 3.648796 0
M  V30 21 C -1.221779 0.488093 2.347041 0
M  V30 22 C 0.340315 -0.130624 -0.366331 0
M  V30 23 C 0.597389 -1.428811 0.010561 0
M  V30 24 N 0.610240 -1.774638 1.312285 0
M  V30 25 H 1.040208 -5.758047 4.442364 0
M  V30 26 H 0.633403 -5.910808 2.689769 0
M  V30 27 H 2.318210 -5.612511 3.145013 0
M  V30 28 H 1.305523 -4.479871 -1.349241 0
M  V30 29 H 1.046886 -2.886239 -3.041544 0
M  V30 30 H 0.603025 -0.632388 -3.748827 0
M  V30 31 H -1.114979 4.206660 -3.326612 0
M  V30 32 H 0.495534 4.210927 -2.966281 0
M  V30 33 H -0.316997 2.997159 -0.456446 0
M  V30 34 H -0.270538 2.256823 1.880872 0
M  V30 35 H 1.796851 2.045152 2.624887 0
M  V30 36 H 2.054818 0.534060 1.839511 0
M  V30 37 H 2.211950 -0.078735 3.999566 0
M  V30 38 H 1.283836 1.258776 4.662648 0
M  V30 39 H 0.173270 -0.540218 5.198330 0
M  V30 40 H -1.697535 0.277687 4.478734 0
M  V30 41 H -1.563804 -1.205753 3.556395 0
M  V30 42 H -2.107495 1.188981 2.472105 0
M  V30 43 H -1.654540 -0.187105 1.549661 0
M  V30 END ATOM
M  V30 BEGIN BOND
M  V30 1 1 1 2
M  V30 2 1 2 3
M  V30 3 2 3 4
M  V30 4 1 4 5
M  V30 5 2 5 6
M  V30 6 1 6 7
M  V30 7 2 7 8
M  V30 8 1 8 9
M  V30 9 1 9 10
M  V30 10 1 10 11
M  V30 11 1 11 12
M  V30 12 2 11 13
M  V30 13 2 10 14
M  V30 14 1 14 15
M  V30 15 1 15 16
M  V30 16 1 16 17
M  V30 17 1 17 18
M  V30 18 1 18 19
M  V30 19 1 19 20
M  V30 20 1 20 21
M  V30 21 1 15 22
M  V30 22 1 22 23
M  V30 23 2 23 24
M  V30 24 1 24 3
M  V30 25 1 23 6
M  V30 26 2 22 9
M  V30 27 1 21 16
M  V30 28 1 1 25
M  V30 29 1 1 26
M  V30 30 1 1 27
M  V30 31 1 5 28
M  V30 32 1 7 29
M  V30 33 1 8 30
M  V30 34 1 12 31
M  V30 35 1 12 32
M  V30 36 1 14 33
M  V30 37 1 16 34
M  V30 38 1 17 35
M  V30 39 1 17 36
M  V30 40 1 18 37
M  V30 41 1 18 38
M  V30 42 1 19 39
M  V30 43 1 20 40
M  V30 44 1 20 41
M  V30 45 1 21 42
M  V30 46 1 21 43
M  V30 END BOND
M  V30 END CTAB
M  END
>  <Dataset>  (108) 
ChEMBL_Kinases

>  <Ligand_Instance>  (108) 
nan

>  <PDB_ID>  (108) 
nan

>  <Standardized_SMILES>  (108) 
CSc1ncc2ccc3c(C(N)=O)cn(C4CCNCC4)c3c2n1

>  <Name>  (108) 
nan

>  <Pocket>  (108) 
nan

>  <ATP_Site>  (108) 
nan

>  <Peripheral>  (108) 
nan

>  <Num_H_Atoms_ProtBoundConf>  (108) 
nan

>  <Num_Resolved_Atoms>  (108) 
nan

>  <Num_Not_Resolved_Atoms>  (108) 
nan

$$$$
CHEMBL3703186
     RDKit          3D

  0  0  0  0  0  0  0  0  0  0999 V3000
M  V30 BEGIN CTAB
M  V30 COUNTS 28 30 0 0 0
M  V30 BEGIN ATOM
M  V30 1 C -1.879765 -5.383455 1.921050 0
M  V30 2 S -0.239195 -5.173602 1.149800 0
M  V30 3 C 0.502883 -3.622132 1.631881 0
M  V30 4 N 1.289328 -3.424812 2.705951 0
M  V30 5 C 1.793370 -2.194365 2.963883 0
M  V30 6 C 1.487766 -1.135107 2.103637 0
M  V30 7 C 2.027508 0.118740 2.404743 0
M  V30 8 C 1.693669 1.134170 1.520462 0
M  V30 9 C 0.892779 0.976351 0.410032 0
M  V30 10 C 0.448847 1.837081 -0.575068 0
M  V30 11 C 0.765076 3.278395 -0.674237 0
M  V30 12 N 0.186405 3.958124 -1.783760 0
M  V30 13 O 1.505404 3.733176 0.229680 0
M  V30 14 C -0.332480 1.047327 -1.410570 0
M  V30 15 N -0.341246 -0.219660 -0.929633 0
M  V30 16 C 0.394150 -0.289185 0.173677 0
M  V30 17 C 0.679554 -1.351705 1.005341 0
M  V30 18 N 0.191687 -2.603965 0.779599 0
M  V30 19 H -2.224883 -4.415667 2.378181 0
M  V30 20 H -2.636120 -5.756551 1.187230 0
M  V30 21 H -1.860971 -6.117718 2.755717 0
M  V30 22 H 2.411627 -2.112744 3.836291 0
M  V30 23 H 2.652888 0.268990 3.261472 0
M  V30 24 H 2.123815 2.095321 1.775231 0
M  V30 25 H -0.829957 3.780596 -1.978636 0
M  V30 26 H -0.805838 3.841888 -2.047393 0
M  V30 27 H -0.815484 1.477282 -2.284831 0
M  V30 28 H -0.875211 -0.999762 -1.407118 0
M  V30 END ATOM
M  V30 BEGIN BOND
M  V30 1 1 1 2
M  V30 2 1 2 3
M  V30 3 2 3 4
M  V30 4 1 4 5
M  V30 5 2 5 6
M  V30 6 1 6 7
M  V30 7 2 7 8
M  V30 8 1 8 9
M  V30 9 1 9 10
M  V30 10 1 10 11
M  V30 11 1 11 12
M  V30 12 2 11 13
M  V30 13 2 10 14
M  V30 14 1 14 15
M  V30 15 1 15 16
M  V30 16 1 16 17
M  V30 17 2 17 18
M  V30 18 1 18 3
M  V30 19 1 17 6
M  V30 20 2 16 9
M  V30 21 1 1 19
M  V30 22 1 1 20
M  V30 23 1 1 21
M  V30 24 1 5 22
M  V30 25 1 7 23
M  V30 26 1 8 24
M  V30 27 1 12 25
M  V30 28 1 12 26
M  V30 29 1 14 27
M  V30 30 1 15 28
M  V30 END BOND
M  V30 END CTAB
M  END
>  <Dataset>  (109) 
ChEMBL_Kinases

>  <Ligand_Instance>  (109) 
nan

>  <PDB_ID>  (109) 
nan

>  <Standardized_SMILES>  (109) 
CSc1ncc2ccc3c(C(N)=O)c[nH]c3c2n1

>  <Name>  (109) 
nan

>  <Pocket>  (109) 
nan

>  <ATP_Site>  (109) 
nan

>  <Peripheral>  (109) 
nan

>  <Num_H_Atoms_ProtBoundConf>  (109) 
nan

>  <Num_Resolved_Atoms>  (109) 
nan

>  <Num_Not_Resolved_Atoms>  (109) 
nan

$$$$
CHEMBL4457772
     RDKit          3D

  0  0  0  0  0  0  0  0  0  0999 V3000
M  V30 BEGIN CTAB
M  V30 COUNTS 51 54 0 0 0
M  V30 BEGIN ATOM
M  V30 1 C 1.038276 -2.286310 3.875153 0
M  V30 2 C 1.418815 -1.019285 3.203762 0
M  V30 3 C 2.578575 -0.408337 3.588769 0
M  V30 4 C 2.948550 0.765301 2.979567 0
M  V30 5 C 2.188382 1.343447 1.995303 0
M  V30 6 C 2.527420 2.586131 1.312000 0
M  V30 7 O 1.811708 3.114130 0.397603 0
M  V30 8 N 3.698261 3.333053 1.603251 0
M  V30 9 C 3.948503 4.546751 0.877188 0
M  V30 10 C 2.905481 5.588710 1.019482 0
M  V30 11 N 1.748696 5.380900 1.821854 0
M  V30 12 O 2.455851 6.738467 0.749623 0
M  V30 13 C 4.766661 4.552048 -0.358621 0
M  V30 14 C 5.386971 5.079714 0.891532 0
M  V30 15 C 0.997693 0.736325 1.584980 0
M  V30 16 C 0.648427 -0.446627 2.216180 0
M  V30 17 N -0.570345 -1.096661 1.817558 0
M  V30 18 C -0.431059 -2.026515 0.768402 0
M  V30 19 O 0.576718 -2.370947 0.136527 0
M  V30 20 C -1.703885 -2.688072 0.370975 0
M  V30 21 C -3.027423 -2.617785 0.784306 0
M  V30 22 C -3.924453 -3.414832 0.143571 0
M  V30 23 C -3.541716 -4.219292 -0.830818 0
M  V30 24 C -4.153159 -5.181830 -1.724628 0
M  V30 25 C -3.382538 -5.859159 -2.659125 0
M  V30 26 C -3.910319 -6.787300 -3.536723 0
M  V30 27 C -5.250155 -7.065558 -3.499206 0
M  V30 28 C -6.076348 -6.435309 -2.601898 0
M  V30 29 C -5.483188 -5.524468 -1.759794 0
M  V30 30 Cl -6.573399 -4.749351 -0.637372 0
M  V30 31 S -1.809605 -3.925160 -0.950801 0
M  V30 32 H 0.181113 -2.783531 3.423985 0
M  V30 33 H 1.889324 -3.003907 3.813433 0
M  V30 34 H 0.909361 -2.112318 4.978076 0
M  V30 35 H 3.197571 -0.832547 4.355417 0
M  V30 36 H 3.859951 1.250817 3.278086 0
M  V30 37 H 4.366879 2.994610 2.341694 0
M  V30 38 H 1.552203 5.549531 2.853175 0
M  V30 39 H 0.810865 5.154904 2.219913 0
M  V30 40 H 5.196176 3.625035 -0.773676 0
M  V30 41 H 4.441229 5.263016 -1.146123 0
M  V30 42 H 5.535847 6.171043 1.029366 0
M  V30 43 H 6.120749 4.411145 1.417155 0
M  V30 44 H 0.356425 1.155499 0.805931 0
M  V30 45 H -1.479878 -0.885630 2.279006 0
M  V30 46 H -3.140753 -1.907631 1.587345 0
M  V30 47 H -4.941170 -3.337552 0.486469 0
M  V30 48 H -2.317189 -5.717473 -2.775695 0
M  V30 49 H -3.309587 -7.308448 -4.257726 0
M  V30 50 H -5.657733 -7.791309 -4.186739 0
M  V30 51 H -7.131076 -6.664138 -2.583031 0
M  V30 END ATOM
M  V30 BEGIN BOND
M  V30 1 1 1 2
M  V30 2 2 2 3
M  V30 3 1 3 4
M  V30 4 2 4 5
M  V30 5 1 5 6
M  V30 6 2 6 7
M  V30 7 1 6 8
M  V30 8 1 8 9
M  V30 9 1 9 10
M  V30 10 1 10 11
M  V30 11 2 10 12
M  V30 12 1 9 13
M  V30 13 1 13 14
M  V30 14 1 5 15
M  V30 15 2 15 16
M  V30 16 1 16 17
M  V30 17 1 17 18
M  V30 18 2 18 19
M  V30 19 1 18 20
M  V30 20 2 20 21
M  V30 21 1 21 22
M  V30 22 2 22 23
M  V30 23 1 23 24
M  V30 24 2 24 25
M  V30 25 1 25 26
M  V30 26 2 26 27
M  V30 27 1 27 28
M  V30 28 2 28 29
M  V30 29 1 29 30
M  V30 30 1 23 31
M  V30 31 1 16 2
M  V30 32 1 31 20
M  V30 33 1 14 9
M  V30 34 1 29 24
M  V30 35 1 1 32
M  V30 36 1 1 33
M  V30 37 1 1 34
M  V30 38 1 3 35
M  V30 39 1 4 36
M  V30 40 1 8 37
M  V30 41 1 11 38
M  V30 42 1 11 39
M  V30 43 1 13 40
M  V30 44 1 13 41
M  V30 45 1 14 42
M  V30 46 1 14 43
M  V30 47 1 15 44
M  V30 48 1 17 45
M  V30 49 1 21 46
M  V30 50 1 22 47
M  V30 51 1 25 48
M  V30 52 1 26 49
M  V30 53 1 27 50
M  V30 54 1 28 51
M  V30 END BOND
M  V30 END CTAB
M  END
>  <Dataset>  (110) 
ChEMBL_Kinases

>  <Ligand_Instance>  (110) 
nan

>  <PDB_ID>  (110) 
nan

>  <Standardized_SMILES>  (110) 
Cc1ccc(C(=O)NC2(C(N)=O)CC2)cc1NC(=O)c1ccc(-c2ccccc2Cl)s1

>  <Name>  (110) 
nan

>  <Pocket>  (110) 
nan

>  <ATP_Site>  (110) 
nan

>  <Peripheral>  (110) 
nan

>  <Num_H_Atoms_ProtBoundConf>  (110) 
nan

>  <Num_Resolved_Atoms>  (110) 
nan

>  <Num_Not_Resolved_Atoms>  (110) 
nan

$$$$
CHEMBL219711
     RDKit          3D

  0  0  0  0  0  0  0  0  0  0999 V3000
M  V30 BEGIN CTAB
M  V30 COUNTS 51 54 0 0 0
M  V30 BEGIN ATOM
M  V30 1 C 2.145353 -6.278905 3.183061 0
M  V30 2 O 1.352065 -5.523087 2.290035 0
M  V30 3 C 1.864837 -4.394685 1.662849 0
M  V30 4 C 3.148897 -3.902815 1.830587 0
M  V30 5 C 3.569333 -2.769269 1.161160 0
M  V30 6 N 4.755319 -2.101053 1.156732 0
M  V30 7 C 4.648279 -1.040426 0.322183 0
M  V30 8 N 3.402440 -1.029565 -0.204111 0
M  V30 9 C 2.824139 -0.128291 -1.116031 0
M  V30 10 C 1.970866 0.899656 -0.785418 0
M  V30 11 C 1.385141 1.793817 -1.606759 0
M  V30 12 O 0.545999 2.857450 -1.573074 0
M  V30 13 C -0.082382 3.463805 -0.510815 0
M  V30 14 C -1.002755 2.654590 0.285404 0
M  V30 15 C -0.818294 1.929861 1.441279 0
M  V30 16 C -1.835992 1.214977 2.031053 0
M  V30 17 C -3.110244 1.175649 1.505244 0
M  V30 18 S -4.305268 0.236962 2.344868 0
M  V30 19 C -5.183415 1.166369 3.558048 0
M  V30 20 O -5.246137 -0.326276 1.304977 0
M  V30 21 O -3.608104 -0.940873 2.979271 0
M  V30 22 C -3.327613 1.891111 0.348663 0
M  V30 23 C -2.303105 2.603979 -0.235347 0
M  V30 24 C 1.846102 1.461630 -3.024454 0
M  V30 25 C 1.427260 2.230388 -4.332071 0
M  V30 26 N 1.126042 2.760176 -5.271221 0
M  V30 27 S 2.944415 0.033841 -2.868271 0
M  V30 28 C 2.727692 -2.080499 0.298037 0
M  V30 29 C 1.432612 -2.547783 0.107409 0
M  V30 30 C 1.059173 -3.682930 0.797588 0
M  V30 31 O -0.233331 -4.130559 0.593405 0
M  V30 32 C -1.147748 -3.488118 -0.265356 0
M  V30 33 H 3.183040 -6.379868 2.762261 0
M  V30 34 H 1.757050 -7.309934 3.282828 0
M  V30 35 H 2.266839 -5.789719 4.175783 0
M  V30 36 H 3.802312 -4.444817 2.506042 0
M  V30 37 H 5.393773 -0.294728 0.076851 0
M  V30 38 H 1.677716 1.093335 0.236082 0
M  V30 39 H 0.724885 3.903571 0.152126 0
M  V30 40 H -0.616615 4.367473 -0.924372 0
M  V30 41 H 0.189768 1.992066 1.825530 0
M  V30 42 H -1.574312 0.677507 2.945006 0
M  V30 43 H -6.273627 1.094048 3.336237 0
M  V30 44 H -5.017985 0.730452 4.575192 0
M  V30 45 H -4.939806 2.240862 3.556299 0
M  V30 46 H -4.325429 1.861935 -0.065194 0
M  V30 47 H -2.604877 3.131293 -1.152651 0
M  V30 48 H 0.762697 -2.027522 -0.558735 0
M  V30 49 H -2.056934 -4.101152 -0.327378 0
M  V30 50 H -1.351688 -2.493103 0.196050 0
M  V30 51 H -0.720679 -3.387533 -1.282220 0
M  V30 END ATOM
M  V30 BEGIN BOND
M  V30 1 1 1 2
M  V30 2 1 2 3
M  V30 3 2 3 4
M  V30 4 1 4 5
M  V30 5 1 5 6
M  V30 6 2 6 7
M  V30 7 1 7 8
M  V30 8 1 8 9
M  V30 9 2 9 10
M  V30 10 1 10 11
M  V30 11 1 11 12
M  V30 12 1 12 13
M  V30 13 1 13 14
M  V30 14 2 14 15
M  V30 15 1 15 16
M  V30 16 2 16 17
M  V30 17 1 17 18
M  V30 18 1 18 19
M  V30 19 2 18 20
M  V30 20 2 18 21
M  V30 21 1 17 22
M  V30 22 2 22 23
M  V30 23 2 11 24
M  V30 24 1 24 25
M  V30 25 3 25 26
M  V30 26 1 24 27
M  V30 27 1 8 28
M  V30 28 1 28 29
M  V30 29 2 29 30
M  V30 30 1 30 31
M  V30 31 1 31 32
M  V30 32 1 30 3
M  V30 33 2 28 5
M  V30 34 1 27 9
M  V30 35 1 23 14
M  V30 36 1 1 33
M  V30 37 1 1 34
M  V30 38 1 1 35
M  V30 39 1 4 36
M  V30 40 1 7 37
M  V30 41 1 10 38
M  V30 42 1 13 39
M  V30 43 1 13 40
M  V30 44 1 15 41
M  V30 45 1 16 42
M  V30 46 1 19 43
M  V30 47 1 19 44
M  V30 48 1 19 45
M  V30 49 1 22 46
M  V30 50 1 23 47
M  V30 51 1 29 48
M  V30 52 1 32 49
M  V30 53 1 32 50
M  V30 54 1 32 51
M  V30 END BOND
M  V30 END CTAB
M  END
>  <Dataset>  (111) 
ChEMBL_Kinases

>  <Ligand_Instance>  (111) 
nan

>  <PDB_ID>  (111) 
nan

>  <Standardized_SMILES>  (111) 
COc1cc2ncn(-c3cc(OCc4ccc(S(C)(=O)=O)cc4)c(C#N)s3)c2cc1OC

>  <Name>  (111) 
nan

>  <Pocket>  (111) 
nan

>  <ATP_Site>  (111) 
nan

>  <Peripheral>  (111) 
nan

>  <Num_H_Atoms_ProtBoundConf>  (111) 
nan

>  <Num_Resolved_Atoms>  (111) 
nan

>  <Num_Not_Resolved_Atoms>  (111) 
nan

$$$$
CHEMBL3703187
     RDKit          3D

  0  0  0  0  0  0  0  0  0  0999 V3000
M  V30 BEGIN CTAB
M  V30 COUNTS 45 47 0 0 0
M  V30 BEGIN ATOM
M  V30 1 C 0.802128 -4.915815 3.338693 0
M  V30 2 S 2.359031 -4.007702 3.015426 0
M  V30 3 C 2.234176 -3.318433 1.368938 0
M  V30 4 N 2.674480 -4.089820 0.355014 0
M  V30 5 C 2.620612 -3.652491 -0.929609 0
M  V30 6 C 2.096248 -2.385583 -1.152490 0
M  V30 7 C 2.056169 -1.956196 -2.464477 0
M  V30 8 C 1.536740 -0.682722 -2.689950 0
M  V30 9 C 1.081409 0.119862 -1.663367 0
M  V30 10 C 0.540643 1.383509 -1.589270 0
M  V30 11 C 0.280765 2.286266 -2.704205 0
M  V30 12 N -0.288681 3.570317 -2.444310 0
M  V30 13 O 0.554645 1.937604 -3.876402 0
M  V30 14 C 0.293230 1.628335 -0.257516 0
M  V30 15 N 0.652674 0.572314 0.531254 0
M  V30 16 C 0.479345 0.557601 1.946286 0
M  V30 17 C -0.842577 0.121185 2.456180 0
M  V30 18 C -1.252611 -1.274869 2.071031 0
M  V30 19 C -0.778925 0.172479 3.984047 0
M  V30 20 C -1.982516 1.037417 2.069521 0
M  V30 21 N -1.796705 2.382218 2.568382 0
M  V30 22 C 1.125730 -0.319571 -0.357138 0
M  V30 23 C 1.639275 -1.578666 -0.128563 0
M  V30 24 N 1.732847 -2.096144 1.109316 0
M  V30 25 H 0.890611 -5.567958 4.217005 0
M  V30 26 H 0.670022 -5.596318 2.451247 0
M  V30 27 H -0.071458 -4.257667 3.347473 0
M  V30 28 H 2.978752 -4.279421 -1.756480 0
M  V30 29 H 2.391243 -2.519441 -3.328716 0
M  V30 30 H 1.461893 -0.249743 -3.695857 0
M  V30 31 H -1.280482 3.918146 -2.582358 0
M  V30 32 H 0.102719 4.481202 -2.061989 0
M  V30 33 H -0.132009 2.550260 0.082619 0
M  V30 34 H 0.631018 1.612378 2.317485 0
M  V30 35 H 1.255558 -0.039472 2.475806 0
M  V30 36 H -1.046179 -1.403703 0.986122 0
M  V30 37 H -2.332055 -1.383750 2.294625 0
M  V30 38 H -0.636542 -2.024556 2.607997 0
M  V30 39 H -1.276115 1.088738 4.385700 0
M  V30 40 H -1.236764 -0.725833 4.435068 0
M  V30 41 H 0.284763 0.217158 4.340439 0
M  V30 42 H -2.891740 0.629248 2.559382 0
M  V30 43 H -2.192644 1.021233 0.976453 0
M  V30 44 H -2.067372 3.035631 1.779593 0
M  V30 45 H -2.492513 2.629768 3.331743 0
M  V30 END ATOM
M  V30 BEGIN BOND
M  V30 1 1 1 2
M  V30 2 1 2 3
M  V30 3 2 3 4
M  V30 4 1 4 5
M  V30 5 2 5 6
M  V30 6 1 6 7
M  V30 7 2 7 8
M  V30 8 1 8 9
M  V30 9 1 9 10
M  V30 10 1 10 11
M  V30 11 1 11 12
M  V30 12 2 11 13
M  V30 13 2 10 14
M  V30 14 1 14 15
M  V30 15 1 15 16
M  V30 16 1 16 17
M  V30 17 1 17 18
M  V30 18 1 17 19
M  V30 19 1 17 20
M  V30 20 1 20 21
M  V30 21 1 15 22
M  V30 22 1 22 23
M  V30 23 2 23 24
M  V30 24 1 24 3
M  V30 25 1 23 6
M  V30 26 2 22 9
M  V30 27 1 1 25
M  V30 28 1 1 26
M  V30 29 1 1 27
M  V30 30 1 5 28
M  V30 31 1 7 29
M  V30 32 1 8 30
M  V30 33 1 12 31
M  V30 34 1 12 32
M  V30 35 1 14 33
M  V30 36 1 16 34
M  V30 37 1 16 35
M  V30 38 1 18 36
M  V30 39 1 18 37
M  V30 40 1 18 38
M  V30 41 1 19 39
M  V30 42 1 19 40
M  V30 43 1 19 41
M  V30 44 1 20 42
M  V30 45 1 20 43
M  V30 46 1 21 44
M  V30 47 1 21 45
M  V30 END BOND
M  V30 END CTAB
M  END
>  <Dataset>  (112) 
ChEMBL_Kinases

>  <Ligand_Instance>  (112) 
nan

>  <PDB_ID>  (112) 
nan

>  <Standardized_SMILES>  (112) 
CSc1ncc2ccc3c(C(N)=O)cn(CC(C)(C)CN)c3c2n1

>  <Name>  (112) 
nan

>  <Pocket>  (112) 
nan

>  <ATP_Site>  (112) 
nan

>  <Peripheral>  (112) 
nan

>  <Num_H_Atoms_ProtBoundConf>  (112) 
nan

>  <Num_Resolved_Atoms>  (112) 
nan

>  <Num_Not_Resolved_Atoms>  (112) 
nan

$$$$
CHEMBL2401974
     RDKit          3D

  0  0  0  0  0  0  0  0  0  0999 V3000
M  V30 BEGIN CTAB
M  V30 COUNTS 53 57 0 0 0
M  V30 BEGIN ATOM
M  V30 1 C 0.009118 -2.753329 3.436186 0
M  V30 2 C 0.661896 -3.706477 2.453728 0
M  V30 3 C 1.648847 -2.958543 1.556936 0
M  V30 4 C 2.690079 -2.341512 2.420109 0
M  V30 5 O 3.317975 -3.174657 3.107025 0
M  V30 6 N 2.971451 -0.955508 2.485041 0
M  V30 7 C 3.972662 -0.429520 3.389521 0
M  V30 8 C 2.235034 -0.102927 1.630250 0
M  V30 9 C 2.531649 1.240240 1.708460 0
M  V30 10 N 1.840796 2.063547 0.894611 0
M  V30 11 C 0.896659 1.566129 0.041774 0
M  V30 12 N 0.179573 2.458068 -0.809299 0
M  V30 13 C 0.824339 3.342301 -1.597726 0
M  V30 14 C -0.101504 4.076461 -2.311950 0
M  V30 15 N -1.318848 3.622450 -1.943273 0
M  V30 16 C -1.133664 2.646040 -1.036058 0
M  V30 17 C -2.160299 1.864285 -0.357777 0
M  V30 18 C -3.018555 1.261292 -1.281807 0
M  V30 19 C -4.074742 0.466663 -0.870854 0
M  V30 20 C -4.274196 0.272995 0.490690 0
M  V30 21 C -3.430769 0.866229 1.379447 0
M  V30 22 C -2.373027 1.661315 0.988891 0
M  V30 23 N 0.659474 0.247857 0.018552 0
M  V30 24 C 1.292495 -0.648879 0.787291 0
M  V30 25 N 0.978039 -2.033208 0.691149 0
M  V30 26 C 0.016973 -2.570396 -0.202174 0
M  V30 27 C 0.107519 -3.906436 -0.609063 0
M  V30 28 C -0.787768 -4.518223 -1.459582 0
M  V30 29 C -1.848492 -3.794059 -1.956640 0
M  V30 30 C -1.979290 -2.474640 -1.584217 0
M  V30 31 C -1.052507 -1.927580 -0.733836 0
M  V30 32 H -0.903458 -3.237716 3.837707 0
M  V30 33 H 0.679524 -2.599494 4.319957 0
M  V30 34 H -0.255863 -1.793429 2.972506 0
M  V30 35 H -0.089496 -4.232520 1.833169 0
M  V30 36 H 1.239622 -4.481973 2.994063 0
M  V30 37 H 2.175346 -3.726451 0.959300 0
M  V30 38 H 4.915246 -0.166550 2.867871 0
M  V30 39 H 4.220611 -1.236833 4.109113 0
M  V30 40 H 3.590278 0.401839 4.013732 0
M  V30 41 H 3.262404 1.639337 2.366318 0
M  V30 42 H 1.899289 3.485500 -1.685867 0
M  V30 43 H 0.035129 4.880587 -3.047290 0
M  V30 44 H -2.955108 1.345361 -2.376143 0
M  V30 45 H -4.765184 -0.020735 -1.547711 0
M  V30 46 H -5.081000 -0.336637 0.881561 0
M  V30 47 H -3.538569 0.750467 2.441962 0
M  V30 48 H -1.647267 2.176931 1.602529 0
M  V30 49 H 0.886296 -4.584335 -0.302249 0
M  V30 50 H -0.728462 -5.544885 -1.779325 0
M  V30 51 H -2.564362 -4.251104 -2.625496 0
M  V30 52 H -2.819379 -1.934254 -1.989704 0
M  V30 53 H -1.250450 -0.907062 -0.503804 0
M  V30 END ATOM
M  V30 BEGIN BOND
M  V30 1 1 1 2
M  V30 2 1 2 3
M  V30 3 1 3 4
M  V30 4 2 4 5
M  V30 5 1 4 6
M  V30 6 1 6 7
M  V30 7 1 6 8
M  V30 8 2 8 9
M  V30 9 1 9 10
M  V30 10 2 10 11
M  V30 11 1 11 12
M  V30 12 1 12 13
M  V30 13 2 13 14
M  V30 14 1 14 15
M  V30 15 2 15 16
M  V30 16 1 16 17
M  V30 17 2 17 18
M  V30 18 1 18 19
M  V30 19 2 19 20
M  V30 20 1 20 21
M  V30 21 2 21 22
M  V30 22 1 11 23
M  V30 23 2 23 24
M  V30 24 1 24 25
M  V30 25 1 25 26
M  V30 26 2 26 27
M  V30 27 1 27 28
M  V30 28 2 28 29
M  V30 29 1 29 30
M  V30 30 2 30 31
M  V30 31 1 25 3
M  V30 32 1 31 26
M  V30 33 1 24 8
M  V30 34 1 16 12
M  V30 35 1 22 17
M  V30 36 1 1 32
M  V30 37 1 1 33
M  V30 38 1 1 34
M  V30 39 1 2 35
M  V30 40 1 2 36
M  V30 41 1 3 37
M  V30 42 1 7 38
M  V30 43 1 7 39
M  V30 44 1 7 40
M  V30 45 1 9 41
M  V30 46 1 13 42
M  V30 47 1 14 43
M  V30 48 1 18 44
M  V30 49 1 19 45
M  V30 50 1 20 46
M  V30 51 1 21 47
M  V30 52 1 22 48
M  V30 53 1 27 49
M  V30 54 1 28 50
M  V30 55 1 29 51
M  V30 56 1 30 52
M  V30 57 1 31 53
M  V30 END BOND
M  V30 END CTAB
M  END
>  <Dataset>  (113) 
ChEMBL_Kinases

>  <Ligand_Instance>  (113) 
nan

>  <PDB_ID>  (113) 
nan

>  <Standardized_SMILES>  (113) 
CCC1C(=O)N(C)c2cnc(-n3ccnc3-c3ccccc3)nc2N1c1ccccc1

>  <Name>  (113) 
nan

>  <Pocket>  (113) 
nan

>  <ATP_Site>  (113) 
nan

>  <Peripheral>  (113) 
nan

>  <Num_H_Atoms_ProtBoundConf>  (113) 
nan

>  <Num_Resolved_Atoms>  (113) 
nan

>  <Num_Not_Resolved_Atoms>  (113) 
nan

$$$$
CHEMBL3703711
     RDKit          3D

  0  0  0  0  0  0  0  0  0  0999 V3000
M  V30 BEGIN CTAB
M  V30 COUNTS 48 51 0 0 0
M  V30 BEGIN ATOM
M  V30 1 C -3.814026 -5.974851 1.608828 0
M  V30 2 C -2.486212 -6.346288 1.056218 0
M  V30 3 C -1.438423 -5.454845 1.091248 0
M  V30 4 C -0.174903 -5.751497 0.587984 0
M  V30 5 C 0.956348 -4.842755 0.604456 0
M  V30 6 N 2.242500 -5.125686 0.954920 0
M  V30 7 N 3.002167 -4.045920 0.847646 0
M  V30 8 C 2.195584 -3.061971 0.424579 0
M  V30 9 C 2.557002 -1.754280 0.173428 0
M  V30 10 C 1.567800 -0.894410 -0.257993 0
M  V30 11 N 1.634480 0.497625 -0.594380 0
M  V30 12 C 1.386323 1.334778 0.538483 0
M  V30 13 O 1.129656 1.054903 1.732928 0
M  V30 14 N 1.425239 2.762198 0.329883 0
M  V30 15 C 1.182123 3.699264 1.437407 0 CFG=1
M  V30 16 C 2.401119 4.550873 1.583585 0
M  V30 17 C -0.043072 4.499019 1.116875 0
M  V30 18 C -1.017674 4.718281 2.067834 0
M  V30 19 C -2.179202 5.438122 1.874948 0
M  V30 20 C -2.347974 5.973237 0.601688 0
M  V30 21 F -3.489765 6.687114 0.393966 0
M  V30 22 C -1.407422 5.787707 -0.391459 0
M  V30 23 C -0.259072 5.057664 -0.147632 0
M  V30 24 N 0.291115 -1.332141 -0.424758 0
M  V30 25 C -0.069474 -2.623765 -0.177476 0
M  V30 26 C 0.900805 -3.508394 0.256077 0
M  V30 27 C -0.056795 -7.021773 0.046774 0
M  V30 28 C -1.121334 -7.913504 0.016737 0
M  V30 29 N -2.316630 -7.579198 0.514173 0
M  V30 30 H -4.303842 -6.880215 2.041096 0
M  V30 31 H -4.502444 -5.605023 0.820537 0
M  V30 32 H -3.746868 -5.256312 2.452297 0
M  V30 33 H -1.583280 -4.466162 1.528618 0
M  V30 34 H 4.027983 -4.003197 1.059524 0
M  V30 35 H 3.497908 -1.271345 0.255923 0
M  V30 36 H 1.834388 0.959980 -1.529532 0
M  V30 37 H 1.622893 3.232792 -0.595035 0
M  V30 38 H 0.982390 3.165418 2.373168 0
M  V30 39 H 2.159522 5.642654 1.516233 0
M  V30 40 H 2.916487 4.373576 2.559545 0
M  V30 41 H 3.168807 4.356638 0.795750 0
M  V30 42 H -0.826226 4.275233 3.037915 0
M  V30 43 H -2.897059 5.562360 2.683160 0
M  V30 44 H -1.587668 6.227160 -1.369361 0
M  V30 45 H 0.487243 4.904672 -0.918969 0
M  V30 46 H -1.069734 -2.992070 -0.301743 0
M  V30 47 H 0.904847 -7.307342 -0.360033 0
M  V30 48 H -0.991606 -8.915538 -0.421333 0
M  V30 END ATOM
M  V30 BEGIN BOND
M  V30 1 1 1 2
M  V30 2 2 2 3
M  V30 3 1 3 4
M  V30 4 1 4 5
M  V30 5 2 5 6
M  V30 6 1 6 7
M  V30 7 1 7 8
M  V30 8 2 8 9
M  V30 9 1 9 10
M  V30 10 1 10 11
M  V30 11 1 11 12
M  V30 12 2 12 13
M  V30 13 1 12 14
M  V30 14 1 14 15
M  V30 15 1 15 16
M  V30 16 1 15 17
M  V30 17 2 17 18
M  V30 18 1 18 19
M  V30 19 2 19 20
M  V30 20 1 20 21
M  V30 21 1 20 22
M  V30 22 2 22 23
M  V30 23 2 10 24
M  V30 24 1 24 25
M  V30 25 2 25 26
M  V30 26 2 4 27
M  V30 27 1 27 28
M  V30 28 2 28 29
M  V30 29 1 29 2
M  V30 30 1 26 5
M  V30 31 1 26 8
M  V30 32 1 23 17
M  V30 33 1 1 30
M  V30 34 1 1 31
M  V30 35 1 1 32
M  V30 36 1 3 33
M  V30 37 1 7 34
M  V30 38 1 9 35
M  V30 39 1 11 36
M  V30 40 1 14 37
M  V30 41 1 15 38 CFG=1
M  V30 42 1 16 39
M  V30 43 1 16 40
M  V30 44 1 16 41
M  V30 45 1 18 42
M  V30 46 1 19 43
M  V30 47 1 22 44
M  V30 48 1 23 45
M  V30 49 1 25 46
M  V30 50 1 27 47
M  V30 51 1 28 48
M  V30 END BOND
M  V30 END CTAB
M  END
>  <Dataset>  (114) 
ChEMBL_Kinases

>  <Ligand_Instance>  (114) 
nan

>  <PDB_ID>  (114) 
nan

>  <Standardized_SMILES>  (114) 
Cc1cc(-c2n[nH]c3cc(NC(=O)N[C@@H](C)c4ccc(F)cc4)ncc23)ccn1

>  <Name>  (114) 
nan

>  <Pocket>  (114) 
nan

>  <ATP_Site>  (114) 
nan

>  <Peripheral>  (114) 
nan

>  <Num_H_Atoms_ProtBoundConf>  (114) 
nan

>  <Num_Resolved_Atoms>  (114) 
nan

>  <Num_Not_Resolved_Atoms>  (114) 
nan

$$$$
CHEMBL3704901
     RDKit          3D

  0  0  0  0  0  0  0  0  0  0999 V3000
M  V30 BEGIN CTAB
M  V30 COUNTS 58 61 0 0 0
M  V30 BEGIN ATOM
M  V30 1 C -0.784264 -2.390232 3.349130 0
M  V30 2 C -0.495190 -1.052265 2.783963 0
M  V30 3 C -0.949830 0.143111 3.358130 0
M  V30 4 N -0.656032 1.329517 2.796568 0
M  V30 5 C 0.074141 1.460811 1.675342 0
M  V30 6 C 0.325196 2.794281 1.147113 0
M  V30 7 C 1.057066 3.067556 0.014316 0
M  V30 8 C 1.293190 4.326808 -0.490908 0
M  V30 9 N 0.755610 5.364126 0.193056 0
M  V30 10 C 0.026574 5.127555 1.317006 0
M  V30 11 C -0.482521 6.385315 1.918204 0
M  V30 12 C -1.266434 6.037249 3.164917 0
M  V30 13 C -1.478554 6.951371 0.902493 0
M  V30 14 O 0.508596 7.297076 2.215605 0
M  V30 15 N -0.179524 3.884903 1.775741 0
M  V30 16 C 0.562213 0.337404 1.043832 0
M  V30 17 C 0.244505 -0.860628 1.642042 0
M  V30 18 N 0.764054 -2.012919 0.945023 0
M  V30 19 C 0.030005 -2.236797 -0.155190 0
M  V30 20 C -1.141226 -1.459762 -0.638626 0
M  V30 21 C 0.362652 -3.290159 -0.955982 0
M  V30 22 C 1.395357 -4.156088 -0.736451 0
M  V30 23 O 2.009655 -5.215336 -1.217559 0
M  V30 24 C 1.994590 -6.105555 -2.231633 0
M  V30 25 C 0.727073 -6.875794 -2.285266 0
M  V30 26 N 0.781015 -8.051102 -1.617708 0
M  V30 27 C -0.302238 -8.830935 -1.546126 0
M  V30 28 C -1.544342 -8.564236 -2.105677 0
M  V30 29 F -2.595681 -9.406669 -1.987144 0
M  V30 30 C -1.594540 -7.369109 -2.784099 0
M  V30 31 C -0.486071 -6.579264 -2.853879 0
M  V30 32 F -0.537228 -5.430987 -3.555613 0
M  V30 33 C 2.133773 -3.872756 0.435682 0
M  V30 34 Cl 3.543340 -4.684104 1.152006 0
M  V30 35 C 1.815733 -2.794305 1.281203 0
M  V30 36 O 2.345705 -2.392112 2.344951 0
M  V30 37 H -1.119005 -3.036030 2.485948 0
M  V30 38 H 0.074460 -2.902883 3.780845 0
M  V30 39 H -1.570883 -2.367155 4.110674 0
M  V30 40 H -1.544800 0.071362 4.269919 0
M  V30 41 H 1.493677 2.256544 -0.545671 0
M  V30 42 H 1.890254 4.470989 -1.404325 0
M  V30 43 H -0.709199 6.441816 4.060454 0
M  V30 44 H -1.319183 4.945183 3.334004 0
M  V30 45 H -2.293859 6.428265 3.126535 0
M  V30 46 H -1.797861 7.967764 1.126039 0
M  V30 47 H -1.009337 6.954939 -0.124564 0
M  V30 48 H -2.327282 6.220243 0.827003 0
M  V30 49 H 0.814373 7.756016 1.378435 0
M  V30 50 H 1.153060 0.393240 0.141146 0
M  V30 51 H -1.981996 -2.101296 -0.983498 0
M  V30 52 H -0.863021 -0.835296 -1.536315 0
M  V30 53 H -1.521929 -0.767624 0.125034 0
M  V30 54 H -0.145065 -3.558756 -1.855625 0
M  V30 55 H 2.860033 -6.833518 -2.221226 0
M  V30 56 H 2.146478 -5.577875 -3.244525 0
M  V30 57 H -0.242258 -9.783496 -1.000496 0
M  V30 58 H -2.498414 -7.056253 -3.256987 0
M  V30 END ATOM
M  V30 BEGIN BOND
M  V30 1 1 1 2
M  V30 2 2 2 3
M  V30 3 1 3 4
M  V30 4 2 4 5
M  V30 5 1 5 6
M  V30 6 2 6 7
M  V30 7 1 7 8
M  V30 8 2 8 9
M  V30 9 1 9 10
M  V30 10 1 10 11
M  V30 11 1 11 12
M  V30 12 1 11 13
M  V30 13 1 11 14
M  V30 14 2 10 15
M  V30 15 1 5 16
M  V30 16 2 16 17
M  V30 17 1 17 18
M  V30 18 1 18 19
M  V30 19 1 19 20
M  V30 20 2 19 21
M  V30 21 1 21 22
M  V30 22 1 22 23
M  V30 23 1 23 24
M  V30 24 1 24 25
M  V30 25 2 25 26
M  V30 26 1 26 27
M  V30 27 2 27 28
M  V30 28 1 28 29
M  V30 29 1 28 30
M  V30 30 2 30 31
M  V30 31 1 31 32
M  V30 32 2 22 33
M  V30 33 1 33 34
M  V30 34 1 33 35
M  V30 35 2 35 36
M  V30 36 1 17 2
M  V30 37 1 35 18
M  V30 38 1 15 6
M  V30 39 1 31 25
M  V30 40 1 1 37
M  V30 41 1 1 38
M  V30 42 1 1 39
M  V30 43 1 3 40
M  V30 44 1 7 41
M  V30 45 1 8 42
M  V30 46 1 12 43
M  V30 47 1 12 44
M  V30 48 1 12 45
M  V30 49 1 13 46
M  V30 50 1 13 47
M  V30 51 1 13 48
M  V30 52 1 14 49
M  V30 53 1 16 50
M  V30 54 1 20 51
M  V30 55 1 20 52
M  V30 56 1 20 53
M  V30 57 1 21 54
M  V30 58 1 24 55
M  V30 59 1 24 56
M  V30 60 1 27 57
M  V30 61 1 30 58
M  V30 END BOND
M  V30 END CTAB
M  END
>  <Dataset>  (115) 
ChEMBL_Kinases

>  <Ligand_Instance>  (115) 
nan

>  <PDB_ID>  (115) 
nan

>  <Standardized_SMILES>  (115) 
Cc1cnc(-c2ccnc(C(C)(C)O)n2)cc1-n1c(C)cc(OCc2ncc(F)cc2F)c(Cl)c1=O

>  <Name>  (115) 
ZUNSEMETINIB

>  <Pocket>  (115) 
nan

>  <ATP_Site>  (115) 
nan

>  <Peripheral>  (115) 
nan

>  <Num_H_Atoms_ProtBoundConf>  (115) 
nan

>  <Num_Resolved_Atoms>  (115) 
nan

>  <Num_Not_Resolved_Atoms>  (115) 
nan

$$$$
CHEMBL3706673
     RDKit          3D

  0  0  0  0  0  0  0  0  0  0999 V3000
M  V30 BEGIN CTAB
M  V30 COUNTS 71 74 0 0 0
M  V30 BEGIN ATOM
M  V30 1 C 5.840759 -0.617604 2.262123 0
M  V30 2 C 5.469932 -1.900306 1.603040 0
M  V30 3 N 4.087234 -2.224614 1.559871 0
M  V30 4 C 3.467198 -2.532711 2.826396 0
M  V30 5 C 3.324384 -1.385061 3.769964 0
M  V30 6 C 3.894911 -3.384195 0.718893 0
M  V30 7 C 4.152360 -3.172777 -0.731555 0
M  V30 8 C 3.268242 -2.115977 -1.326395 0
M  V30 9 O 3.433211 -0.842670 -0.763759 0
M  V30 10 C 2.682110 0.252760 -1.176175 0
M  V30 11 C 1.768991 -0.049471 -2.168299 0
M  V30 12 C 0.952639 0.935045 -2.676719 0
M  V30 13 C 1.010171 2.253466 -2.222621 0
M  V30 14 C 0.191390 3.280727 -2.709949 0
M  V30 15 N -0.702427 2.787372 -3.703998 0
M  V30 16 C -1.767842 2.109263 -3.030980 0
M  V30 17 C -1.893920 1.995774 -1.665682 0
M  V30 18 C -2.940144 1.315327 -1.050269 0
M  V30 19 C -3.922378 0.708627 -1.787715 0
M  V30 20 N -5.019879 0.004753 -1.238966 0
M  V30 21 C -5.366933 -0.177110 0.120491 0
M  V30 22 O -4.679274 0.314240 1.016575 0
M  V30 23 N -6.500892 -0.916609 0.539322 0
M  V30 24 C -6.879336 -1.114813 1.920936 0
M  V30 25 C -6.027535 -2.148316 2.550118 0
M  V30 26 C -4.850713 -1.963876 3.259470 0
M  V30 27 C -4.162685 -3.033555 3.789592 0
M  V30 28 C -4.582822 -4.338232 3.658354 0
M  V30 29 C -5.755203 -4.534644 2.953538 0
M  V30 30 C -6.440629 -3.464178 2.424475 0
M  V30 31 C -3.815152 0.810230 -3.131253 0
M  V30 32 C -2.783873 1.481271 -3.748487 0
M  V30 33 N 0.335145 4.504186 -2.193050 0
M  V30 34 C 1.239792 4.771105 -1.223590 0
M  V30 35 N 2.028939 3.768958 -0.756075 0
M  V30 36 C 1.946295 2.530734 -1.217037 0
M  V30 37 C 2.773252 1.526097 -0.703496 0
M  V30 38 H 6.687140 -0.162049 1.662175 0
M  V30 39 H 6.292611 -0.745417 3.270685 0
M  V30 40 H 5.038903 0.134772 2.213260 0
M  V30 41 H 5.807172 -1.840576 0.524054 0
M  V30 42 H 6.060230 -2.740076 2.036469 0
M  V30 43 H 2.415587 -2.905868 2.638360 0
M  V30 44 H 3.954522 -3.419701 3.318012 0
M  V30 45 H 2.972534 -0.505569 3.215885 0
M  V30 46 H 4.210328 -1.114669 4.346381 0
M  V30 47 H 2.531204 -1.658803 4.509185 0
M  V30 48 H 4.448127 -4.251235 1.140223 0
M  V30 49 H 2.815289 -3.665174 0.830929 0
M  V30 50 H 3.860946 -4.137218 -1.244275 0
M  V30 51 H 5.214953 -3.032513 -1.014261 0
M  V30 52 H 3.387979 -2.063880 -2.448245 0
M  V30 53 H 2.194929 -2.438949 -1.201953 0
M  V30 54 H 1.634472 -1.049627 -2.601252 0
M  V30 55 H 0.241002 0.694425 -3.450488 0
M  V30 56 H -0.739109 2.816812 -4.745789 0
M  V30 57 H -1.155930 2.450022 -1.024444 0
M  V30 58 H -2.933912 1.290382 0.019072 0
M  V30 59 H -5.696447 -0.462693 -1.892111 0
M  V30 60 H -7.099879 -1.348300 -0.214944 0
M  V30 61 H -6.760548 -0.180303 2.515083 0
M  V30 62 H -7.942119 -1.472221 1.945738 0
M  V30 63 H -4.501027 -0.961881 3.385339 0
M  V30 64 H -3.239312 -2.778674 4.335885 0
M  V30 65 H -3.935825 -5.066325 4.129227 0
M  V30 66 H -6.057842 -5.587911 2.870244 0
M  V30 67 H -7.334391 -3.776385 1.903295 0
M  V30 68 H -4.550123 0.359773 -3.815248 0
M  V30 69 H -2.730319 1.542652 -4.826119 0
M  V30 70 H 1.275317 5.796123 -0.874326 0
M  V30 71 H 3.495491 1.718409 0.066466 0
M  V30 END ATOM
M  V30 BEGIN BOND
M  V30 1 1 1 2
M  V30 2 1 2 3
M  V30 3 1 3 4
M  V30 4 1 4 5
M  V30 5 1 3 6
M  V30 6 1 6 7
M  V30 7 1 7 8
M  V30 8 1 8 9
M  V30 9 1 9 10
M  V30 10 2 10 11
M  V30 11 1 11 12
M  V30 12 2 12 13
M  V30 13 1 13 14
M  V30 14 1 14 15
M  V30 15 1 15 16
M  V30 16 2 16 17
M  V30 17 1 17 18
M  V30 18 2 18 19
M  V30 19 1 19 20
M  V30 20 1 20 21
M  V30 21 2 21 22
M  V30 22 1 21 23
M  V30 23 1 23 24
M  V30 24 1 24 25
M  V30 25 2 25 26
M  V30 26 1 26 27
M  V30 27 2 27 28
M  V30 28 1 28 29
M  V30 29 2 29 30
M  V30 30 1 19 31
M  V30 31 2 31 32
M  V30 32 2 14 33
M  V30 33 1 33 34
M  V30 34 2 34 35
M  V30 35 1 35 36
M  V30 36 2 36 37
M  V30 37 1 37 10
M  V30 38 1 36 13
M  V30 39 1 32 16
M  V30 40 1 30 25
M  V30 41 1 1 38
M  V30 42 1 1 39
M  V30 43 1 1 40
M  V30 44 1 2 41
M  V30 45 1 2 42
M  V30 46 1 4 43
M  V30 47 1 4 44
M  V30 48 1 5 45
M  V30 49 1 5 46
M  V30 50 1 5 47
M  V30 51 1 6 48
M  V30 52 1 6 49
M  V30 53 1 7 50
M  V30 54 1 7 51
M  V30 55 1 8 52
M  V30 56 1 8 53
M  V30 57 1 11 54
M  V30 58 1 12 55
M  V30 59 1 15 56
M  V30 60 1 17 57
M  V30 61 1 18 58
M  V30 62 1 20 59
M  V30 63 1 23 60
M  V30 64 1 24 61
M  V30 65 1 24 62
M  V30 66 1 26 63
M  V30 67 1 27 64
M  V30 68 1 28 65
M  V30 69 1 29 66
M  V30 70 1 30 67
M  V30 71 1 31 68
M  V30 72 1 32 69
M  V30 73 1 34 70
M  V30 74 1 37 71
M  V30 END BOND
M  V30 END CTAB
M  END
>  <Dataset>  (116) 
ChEMBL_Kinases

>  <Ligand_Instance>  (116) 
nan

>  <PDB_ID>  (116) 
nan

>  <Standardized_SMILES>  (116) 
CCN(CC)CCCOc1ccc2c(Nc3ccc(NC(=O)NCc4ccccc4)cc3)ncnc2c1

>  <Name>  (116) 
nan

>  <Pocket>  (116) 
nan

>  <ATP_Site>  (116) 
nan

>  <Peripheral>  (116) 
nan

>  <Num_H_Atoms_ProtBoundConf>  (116) 
nan

>  <Num_Resolved_Atoms>  (116) 
nan

>  <Num_Not_Resolved_Atoms>  (116) 
nan

$$$$
CHEMBL3706674
     RDKit          3D

  0  0  0  0  0  0  0  0  0  0999 V3000
M  V30 BEGIN CTAB
M  V30 COUNTS 69 73 0 0 0
M  V30 BEGIN ATOM
M  V30 1 O 4.409148 1.642499 2.676403 0
M  V30 2 C 5.418365 2.100678 2.108110 0
M  V30 3 N 6.583465 2.481584 2.784959 0
M  V30 4 C 6.796784 2.425299 4.209106 0
M  V30 5 C 7.023854 1.015069 4.604106 0
M  V30 6 C 5.961111 0.213680 5.026272 0
M  V30 7 C 6.273988 -1.089299 5.370257 0
M  V30 8 C 7.532705 -1.560604 5.301716 0
M  V30 9 C 8.626589 -0.814373 4.891806 0
M  V30 10 C 8.311849 0.481313 4.550539 0
M  V30 11 N 5.335083 2.224302 0.703220 0
M  V30 12 C 4.310370 1.912709 -0.215838 0
M  V30 13 C 4.189831 0.745658 -0.926899 0
M  V30 14 C 3.206635 0.396110 -1.816831 0
M  V30 15 C 2.240802 1.349809 -1.995870 0
M  V30 16 N 1.186716 1.051462 -2.938339 0
M  V30 17 C -0.093718 1.351012 -2.397796 0
M  V30 18 N -0.702760 2.507811 -2.027401 0
M  V30 19 C -1.942424 2.511690 -1.535423 0
M  V30 20 N -2.669465 1.388909 -1.373249 0
M  V30 21 C -2.113380 0.197852 -1.727347 0
M  V30 22 C -2.942919 -0.883855 -1.535068 0
M  V30 23 C -2.438406 -2.106445 -1.891206 0
M  V30 24 O -3.065134 -3.294858 -1.794421 0
M  V30 25 C -4.262429 -3.770355 -1.381557 0
M  V30 26 C -5.502649 -3.277211 -2.066959 0
M  V30 27 C -6.755699 -3.908307 -1.526636 0
M  V30 28 N -6.990416 -3.695119 -0.129583 0
M  V30 29 C -8.215827 -4.352993 0.267123 0
M  V30 30 C -8.937531 -3.453224 1.223780 0
M  V30 31 C -8.420989 -2.087355 0.872055 0
M  V30 32 C -7.108703 -2.303981 0.155683 0
M  V30 33 C -1.145859 -2.259787 -2.424368 0
M  V30 34 C -0.387583 -1.108125 -2.577781 0
M  V30 35 C -0.834688 0.176911 -2.236421 0
M  V30 36 C 2.200332 2.603355 -1.354288 0
M  V30 37 C 3.262332 2.786552 -0.497117 0
M  V30 38 H 7.382572 2.843915 2.177284 0
M  V30 39 H 5.909923 2.869905 4.723881 0
M  V30 40 H 7.691377 3.056206 4.457438 0
M  V30 41 H 4.953986 0.556820 5.096193 0
M  V30 42 H 5.471304 -1.727805 5.700504 0
M  V30 43 H 7.708756 -2.602529 5.587188 0
M  V30 44 H 9.610939 -1.238888 4.857611 0
M  V30 45 H 9.093694 1.140833 4.216138 0
M  V30 46 H 6.153103 2.615449 0.153223 0
M  V30 47 H 4.981584 -0.001073 -0.763261 0
M  V30 48 H 3.147762 -0.520696 -2.350196 0
M  V30 49 H 1.191355 0.670739 -3.899805 0
M  V30 50 H -2.226122 3.539055 -1.309666 0
M  V30 51 H -3.934908 -0.797527 -1.122919 0
M  V30 52 H -4.234290 -4.902621 -1.437082 0
M  V30 53 H -4.404987 -3.566584 -0.293198 0
M  V30 54 H -5.569171 -2.178808 -2.135564 0
M  V30 55 H -5.429784 -3.624131 -3.130492 0
M  V30 56 H -7.612336 -3.519157 -2.152588 0
M  V30 57 H -6.756198 -5.004805 -1.756418 0
M  V30 58 H -8.068763 -5.330007 0.734071 0
M  V30 59 H -8.829387 -4.498615 -0.658497 0
M  V30 60 H -10.042188 -3.555449 1.044441 0
M  V30 61 H -8.716602 -3.707561 2.274475 0
M  V30 62 H -8.318829 -1.476994 1.799399 0
M  V30 63 H -9.178118 -1.601953 0.231404 0
M  V30 64 H -7.099987 -1.648909 -0.737927 0
M  V30 65 H -6.268638 -1.929457 0.808955 0
M  V30 66 H -0.682236 -3.182524 -2.728098 0
M  V30 67 H 0.623902 -1.176869 -2.986433 0
M  V30 68 H 1.439121 3.348314 -1.501679 0
M  V30 69 H 3.282622 3.747576 0.031208 0
M  V30 END ATOM
M  V30 BEGIN BOND
M  V30 1 2 1 2
M  V30 2 1 2 3
M  V30 3 1 3 4
M  V30 4 1 4 5
M  V30 5 2 5 6
M  V30 6 1 6 7
M  V30 7 2 7 8
M  V30 8 1 8 9
M  V30 9 2 9 10
M  V30 10 1 2 11
M  V30 11 1 11 12
M  V30 12 2 12 13
M  V30 13 1 13 14
M  V30 14 2 14 15
M  V30 15 1 15 16
M  V30 16 1 16 17
M  V30 17 2 17 18
M  V30 18 1 18 19
M  V30 19 2 19 20
M  V30 20 1 20 21
M  V30 21 2 21 22
M  V30 22 1 22 23
M  V30 23 1 23 24
M  V30 24 1 24 25
M  V30 25 1 25 26
M  V30 26 1 26 27
M  V30 27 1 27 28
M  V30 28 1 28 29
M  V30 29 1 29 30
M  V30 30 1 30 31
M  V30 31 1 31 32
M  V30 32 2 23 33
M  V30 33 1 33 34
M  V30 34 2 34 35
M  V30 35 1 15 36
M  V30 36 2 36 37
M  V30 37 1 10 5
M  V30 38 1 37 12
M  V30 39 1 35 17
M  V30 40 1 35 21
M  V30 41 1 32 28
M  V30 42 1 3 38
M  V30 43 1 4 39
M  V30 44 1 4 40
M  V30 45 1 6 41
M  V30 46 1 7 42
M  V30 47 1 8 43
M  V30 48 1 9 44
M  V30 49 1 10 45
M  V30 50 1 11 46
M  V30 51 1 13 47
M  V30 52 1 14 48
M  V30 53 1 16 49
M  V30 54 1 19 50
M  V30 55 1 22 51
M  V30 56 1 25 52
M  V30 57 1 25 53
M  V30 58 1 26 54
M  V30 59 1 26 55
M  V30 60 1 27 56
M  V30 61 1 27 57
M  V30 62 1 29 58
M  V30 63 1 29 59
M  V30 64 1 30 60
M  V30 65 1 30 61
M  V30 66 1 31 62
M  V30 67 1 31 63
M  V30 68 1 32 64
M  V30 69 1 32 65
M  V30 70 1 33 66
M  V30 71 1 34 67
M  V30 72 1 36 68
M  V30 73 1 37 69
M  V30 END BOND
M  V30 END CTAB
M  END
>  <Dataset>  (117) 
ChEMBL_Kinases

>  <Ligand_Instance>  (117) 
nan

>  <PDB_ID>  (117) 
nan

>  <Standardized_SMILES>  (117) 
O=C(NCc1ccccc1)Nc1ccc(Nc2ncnc3cc(OCCCN4CCCC4)ccc23)cc1

>  <Name>  (117) 
nan

>  <Pocket>  (117) 
nan

>  <ATP_Site>  (117) 
nan

>  <Peripheral>  (117) 
nan

>  <Num_H_Atoms_ProtBoundConf>  (117) 
nan

>  <Num_Resolved_Atoms>  (117) 
nan

>  <Num_Not_Resolved_Atoms>  (117) 
nan

$$$$
CHEMBL3706675
     RDKit          3D

  0  0  0  0  0  0  0  0  0  0999 V3000
M  V30 BEGIN CTAB
M  V30 COUNTS 72 75 0 0 0
M  V30 BEGIN ATOM
M  V30 1 C 2.987536 1.258184 -4.170599 0
M  V30 2 C 3.695486 1.777594 -2.981787 0
M  V30 3 N 3.027482 2.804640 -2.208825 0
M  V30 4 C 2.923333 4.075022 -2.721814 0
M  V30 5 C 2.070144 4.470384 -3.845434 0
M  V30 6 O 2.300450 3.872497 -5.075136 0
M  V30 7 C 2.219178 2.279595 -1.195660 0
M  V30 8 C 1.422810 3.149056 -0.292998 0
M  V30 9 C 0.378814 4.017974 -0.871167 0
M  V30 10 O -0.647525 3.454280 -1.586775 0
M  V30 11 C -1.631005 2.581792 -1.305594 0
M  V30 12 C -2.006691 1.894468 -0.170307 0
M  V30 13 C -3.090402 1.045908 -0.175094 0
M  V30 14 C -3.843297 0.852204 -1.323360 0
M  V30 15 C -4.946733 -0.011804 -1.319896 0
M  V30 16 N -5.181674 -0.644555 -0.045561 0
M  V30 17 C -4.342689 -1.791984 0.067876 0
M  V30 18 C -3.618145 -2.320562 -0.997320 0
M  V30 19 C -2.771228 -3.424897 -0.903061 0
M  V30 20 C -2.645227 -4.030976 0.325774 0
M  V30 21 N -1.770274 -5.161801 0.449064 0
M  V30 22 C -0.444458 -4.687342 0.774078 0
M  V30 23 O -0.305073 -3.441189 0.872532 0
M  V30 24 N 0.645790 -5.554585 0.976411 0
M  V30 25 C 1.997112 -5.179257 1.300836 0
M  V30 26 C 2.177469 -4.754183 2.705925 0
M  V30 27 C 2.448404 -5.683305 3.709380 0
M  V30 28 C 2.633287 -5.323453 5.025495 0
M  V30 29 C 2.563356 -4.013362 5.447037 0
M  V30 30 C 2.294048 -3.088591 4.453504 0
M  V30 31 C 2.109503 -3.435722 3.146492 0
M  V30 32 C -3.335643 -3.561858 1.429882 0
M  V30 33 C -4.158099 -2.458961 1.255045 0
M  V30 34 N -5.664378 -0.182401 -2.447044 0
M  V30 35 C -5.303477 0.490407 -3.576034 0
M  V30 36 N -4.254953 1.332332 -3.642687 0
M  V30 37 C -3.520378 1.514090 -2.508684 0
M  V30 38 C -2.408582 2.367552 -2.454214 0
M  V30 39 H 3.469693 1.493849 -5.126633 0
M  V30 40 H 1.877396 1.405191 -4.145868 0
M  V30 41 H 3.090193 0.116485 -4.114595 0
M  V30 42 H 4.005996 0.997078 -2.290172 0
M  V30 43 H 4.638392 2.283795 -3.356342 0
M  V30 44 H 4.007283 4.310530 -3.123797 0
M  V30 45 H 2.889241 4.879030 -1.924770 0
M  V30 46 H 2.288152 5.571570 -4.039549 0
M  V30 47 H 0.973355 4.488471 -3.645033 0
M  V30 48 H 1.442523 3.848691 -5.573237 0
M  V30 49 H 1.540288 1.448943 -1.514238 0
M  V30 50 H 2.932497 1.719431 -0.493753 0
M  V30 51 H 0.954648 2.570905 0.545777 0
M  V30 52 H 2.167000 3.812935 0.258986 0
M  V30 53 H -0.156633 4.453338 0.072213 0
M  V30 54 H 0.716520 4.968661 -1.344270 0
M  V30 55 H -1.368228 2.109975 0.669412 0
M  V30 56 H -3.335691 0.532366 0.763524 0
M  V30 57 H -5.809573 -0.440477 0.761564 0
M  V30 58 H -3.690773 -1.876294 -1.972571 0
M  V30 59 H -2.237188 -3.791131 -1.759115 0
M  V30 60 H -1.938436 -6.189867 0.346259 0
M  V30 61 H 0.401395 -6.562412 0.872129 0
M  V30 62 H 2.693512 -6.019479 1.133747 0
M  V30 63 H 2.319530 -4.332604 0.627340 0
M  V30 64 H 2.513736 -6.714126 3.454624 0
M  V30 65 H 2.843358 -6.110312 5.762235 0
M  V30 66 H 2.712185 -3.754849 6.482518 0
M  V30 67 H 2.235323 -2.042031 4.765613 0
M  V30 68 H 1.899393 -2.726081 2.351520 0
M  V30 69 H -3.240333 -4.038388 2.403827 0
M  V30 70 H -4.674390 -2.129758 2.134893 0
M  V30 71 H -5.937754 0.299258 -4.448704 0
M  V30 72 H -2.245945 2.833477 -3.445118 0
M  V30 END ATOM
M  V30 BEGIN BOND
M  V30 1 1 1 2
M  V30 2 1 2 3
M  V30 3 1 3 4
M  V30 4 1 4 5
M  V30 5 1 5 6
M  V30 6 1 3 7
M  V30 7 1 7 8
M  V30 8 1 8 9
M  V30 9 1 9 10
M  V30 10 1 10 11
M  V30 11 2 11 12
M  V30 12 1 12 13
M  V30 13 2 13 14
M  V30 14 1 14 15
M  V30 15 1 15 16
M  V30 16 1 16 17
M  V30 17 2 17 18
M  V30 18 1 18 19
M  V30 19 2 19 20
M  V30 20 1 20 21
M  V30 21 1 21 22
M  V30 22 2 22 23
M  V30 23 1 22 24
M  V30 24 1 24 25
M  V30 25 1 25 26
M  V30 26 2 26 27
M  V30 27 1 27 28
M  V30 28 2 28 29
M  V30 29 1 29 30
M  V30 30 2 30 31
M  V30 31 1 20 32
M  V30 32 2 32 33
M  V30 33 2 15 34
M  V30 34 1 34 35
M  V30 35 2 35 36
M  V30 36 1 36 37
M  V30 37 2 37 38
M  V30 38 1 38 11
M  V30 39 1 37 14
M  V30 40 1 33 17
M  V30 41 1 31 26
M  V30 42 1 1 39
M  V30 43 1 1 40
M  V30 44 1 1 41
M  V30 45 1 2 42
M  V30 46 1 2 43
M  V30 47 1 4 44
M  V30 48 1 4 45
M  V30 49 1 5 46
M  V30 50 1 5 47
M  V30 51 1 6 48
M  V30 52 1 7 49
M  V30 53 1 7 50
M  V30 54 1 8 51
M  V30 55 1 8 52
M  V30 56 1 9 53
M  V30 57 1 9 54
M  V30 58 1 12 55
M  V30 59 1 13 56
M  V30 60 1 16 57
M  V30 61 1 18 58
M  V30 62 1 19 59
M  V30 63 1 21 60
M  V30 64 1 24 61
M  V30 65 1 25 62
M  V30 66 1 25 63
M  V30 67 1 27 64
M  V30 68 1 28 65
M  V30 69 1 29 66
M  V30 70 1 30 67
M  V30 71 1 31 68
M  V30 72 1 32 69
M  V30 73 1 33 70
M  V30 74 1 35 71
M  V30 75 1 38 72
M  V30 END BOND
M  V30 END CTAB
M  END
>  <Dataset>  (118) 
ChEMBL_Kinases

>  <Ligand_Instance>  (118) 
nan

>  <PDB_ID>  (118) 
nan

>  <Standardized_SMILES>  (118) 
CCN(CCO)CCCOc1ccc2c(Nc3ccc(NC(=O)NCc4ccccc4)cc3)ncnc2c1

>  <Name>  (118) 
nan

>  <Pocket>  (118) 
nan

>  <ATP_Site>  (118) 
nan

>  <Peripheral>  (118) 
nan

>  <Num_H_Atoms_ProtBoundConf>  (118) 
nan

>  <Num_Resolved_Atoms>  (118) 
nan

>  <Num_Not_Resolved_Atoms>  (118) 
nan

$$$$
CHEMBL3706676
     RDKit          3D

  0  0  0  0  0  0  0  0  0  0999 V3000
M  V30 BEGIN CTAB
M  V30 COUNTS 78 82 0 0 0
M  V30 BEGIN ATOM
M  V30 1 O 2.545754 2.276277 4.150173 0
M  V30 2 C 2.905004 3.416982 4.471003 0
M  V30 3 N 4.249078 3.746237 4.811632 0
M  V30 4 C 5.342956 2.788702 4.818055 0
M  V30 5 C 5.321358 1.889490 6.002654 0
M  V30 6 C 5.982748 2.270196 7.152085 0
M  V30 7 C 6.057796 1.548537 8.325698 0
M  V30 8 C 5.402140 0.327511 8.336922 0
M  V30 9 C 4.718253 -0.115120 7.214942 0
M  V30 10 C 4.685615 0.666472 6.066254 0
M  V30 11 N 1.874373 4.411759 4.481501 0
M  V30 12 C 0.637480 3.767093 4.095630 0
M  V30 13 C -0.126749 3.254858 5.139353 0
M  V30 14 C -1.324072 2.614534 4.872454 0
M  V30 15 C -1.794153 2.464401 3.573158 0
M  V30 16 N -3.027039 1.797073 3.300405 0
M  V30 17 C -3.399172 1.645683 1.933827 0
M  V30 18 N -4.168389 2.498764 1.243282 0
M  V30 19 C -4.465513 2.270656 -0.060959 0
M  V30 20 N -3.998366 1.180768 -0.705434 0
M  V30 21 C -3.225334 0.324866 -0.008250 0
M  V30 22 C -2.757217 -0.775446 -0.683849 0
M  V30 23 C -1.960139 -1.739146 -0.132125 0
M  V30 24 O -1.366705 -2.879934 -0.509170 0
M  V30 25 C -1.357386 -3.571838 -1.720805 0
M  V30 26 C -2.688710 -4.051579 -2.155234 0
M  V30 27 C -2.761338 -4.846392 -3.389099 0
M  V30 28 N -2.351358 -4.297019 -4.621460 0
M  V30 29 C -0.950111 -4.127977 -4.745297 0
M  V30 30 C -0.411062 -4.748841 -6.043516 0
M  V30 31 N -1.085585 -4.223920 -7.168898 0
M  V30 32 C -0.796230 -2.880150 -7.498275 0
M  V30 33 C 0.587923 -2.607842 -8.021758 0
M  V30 34 O 1.610623 -2.922290 -7.150476 0
M  V30 35 C -2.511945 -4.488869 -7.045345 0
M  V30 36 C -2.884016 -5.067868 -5.723826 0
M  V30 37 C -1.631090 -1.535867 1.219661 0
M  V30 38 C -2.083419 -0.429301 1.954439 0
M  V30 39 C -2.893949 0.507951 1.313961 0
M  V30 40 C -1.002880 2.985881 2.599362 0
M  V30 41 C 0.187270 3.629596 2.784144 0
M  V30 42 H 4.505754 4.737656 5.080796 0
M  V30 43 H 6.321846 3.290610 4.710844 0
M  V30 44 H 5.271674 2.132062 3.903185 0
M  V30 45 H 6.505747 3.221000 7.173988 0
M  V30 46 H 6.583565 1.881801 9.196525 0
M  V30 47 H 5.386365 -0.338346 9.204271 0
M  V30 48 H 4.209984 -1.063142 7.224071 0
M  V30 49 H 4.157256 0.328126 5.186974 0
M  V30 50 H 2.086737 5.402688 4.738701 0
M  V30 51 H 0.200056 3.349347 6.161025 0
M  V30 52 H -1.933961 2.206547 5.689408 0
M  V30 53 H -3.605850 1.449385 4.093009 0
M  V30 54 H -5.090188 3.030240 -0.495618 0
M  V30 55 H -2.971279 -0.972416 -1.720733 0
M  V30 56 H -0.680627 -4.462761 -1.588754 0
M  V30 57 H -0.864249 -2.950083 -2.515242 0
M  V30 58 H -3.377705 -3.176522 -2.282647 0
M  V30 59 H -3.076888 -4.704115 -1.320126 0
M  V30 60 H -3.781976 -5.340378 -3.480761 0
M  V30 61 H -2.100463 -5.778761 -3.243885 0
M  V30 62 H -0.429632 -4.686926 -3.949076 0
M  V30 63 H -0.674582 -3.035171 -4.762097 0
M  V30 64 H -0.616069 -5.858182 -6.021987 0
M  V30 65 H 0.666920 -4.646063 -6.036224 0
M  V30 66 H -1.553980 -2.556643 -8.276063 0
M  V30 67 H -0.929345 -2.209258 -6.601250 0
M  V30 68 H 0.714916 -3.153758 -9.004334 0
M  V30 69 H 0.654301 -1.523501 -8.316914 0
M  V30 70 H 1.709108 -2.207554 -6.450380 0
M  V30 71 H -3.084707 -3.599745 -7.326951 0
M  V30 72 H -2.745999 -5.283449 -7.813007 0
M  V30 73 H -4.001221 -5.085960 -5.669739 0
M  V30 74 H -2.572392 -6.116003 -5.596889 0
M  V30 75 H -1.020533 -2.139671 1.895220 0
M  V30 76 H -1.889024 -0.197172 2.974804 0
M  V30 77 H -1.345531 2.885807 1.569432 0
M  V30 78 H 0.820381 4.044959 2.015521 0
M  V30 END ATOM
M  V30 BEGIN BOND
M  V30 1 2 1 2
M  V30 2 1 2 3
M  V30 3 1 3 4
M  V30 4 1 4 5
M  V30 5 2 5 6
M  V30 6 1 6 7
M  V30 7 2 7 8
M  V30 8 1 8 9
M  V30 9 2 9 10
M  V30 10 1 2 11
M  V30 11 1 11 12
M  V30 12 2 12 13
M  V30 13 1 13 14
M  V30 14 2 14 15
M  V30 15 1 15 16
M  V30 16 1 16 17
M  V30 17 2 17 18
M  V30 18 1 18 19
M  V30 19 2 19 20
M  V30 20 1 20 21
M  V30 21 2 21 22
M  V30 22 1 22 23
M  V30 23 1 23 24
M  V30 24 1 24 25
M  V30 25 1 25 26
M  V30 26 1 26 27
M  V30 27 1 27 28
M  V30 28 1 28 29
M  V30 29 1 29 30
M  V30 30 1 30 31
M  V30 31 1 31 32
M  V30 32 1 32 33
M  V30 33 1 33 34
M  V30 34 1 31 35
M  V30 35 1 35 36
M  V30 36 2 23 37
M  V30 37 1 37 38
M  V30 38 2 38 39
M  V30 39 1 15 40
M  V30 40 2 40 41
M  V30 41 1 10 5
M  V30 42 1 41 12
M  V30 43 1 39 17
M  V30 44 1 39 21
M  V30 45 1 36 28
M  V30 46 1 3 42
M  V30 47 1 4 43
M  V30 48 1 4 44
M  V30 49 1 6 45
M  V30 50 1 7 46
M  V30 51 1 8 47
M  V30 52 1 9 48
M  V30 53 1 10 49
M  V30 54 1 11 50
M  V30 55 1 13 51
M  V30 56 1 14 52
M  V30 57 1 16 53
M  V30 58 1 19 54
M  V30 59 1 22 55
M  V30 60 1 25 56
M  V30 61 1 25 57
M  V30 62 1 26 58
M  V30 63 1 26 59
M  V30 64 1 27 60
M  V30 65 1 27 61
M  V30 66 1 29 62
M  V30 67 1 29 63
M  V30 68 1 30 64
M  V30 69 1 30 65
M  V30 70 1 32 66
M  V30 71 1 32 67
M  V30 72 1 33 68
M  V30 73 1 33 69
M  V30 74 1 34 70
M  V30 75 1 35 71
M  V30 76 1 35 72
M  V30 77 1 36 73
M  V30 78 1 36 74
M  V30 79 1 37 75
M  V30 80 1 38 76
M  V30 81 1 40 77
M  V30 82 1 41 78
M  V30 END BOND
M  V30 END CTAB
M  END
>  <Dataset>  (119) 
ChEMBL_Kinases

>  <Ligand_Instance>  (119) 
nan

>  <PDB_ID>  (119) 
nan

>  <Standardized_SMILES>  (119) 
O=C(NCc1ccccc1)Nc1ccc(Nc2ncnc3cc(OCCCN4CCN(CCO)CC4)ccc23)cc1

>  <Name>  (119) 
nan

>  <Pocket>  (119) 
nan

>  <ATP_Site>  (119) 
nan

>  <Peripheral>  (119) 
nan

>  <Num_H_Atoms_ProtBoundConf>  (119) 
nan

>  <Num_Resolved_Atoms>  (119) 
nan

>  <Num_Not_Resolved_Atoms>  (119) 
nan

$$$$
CHEMBL2398642
     RDKit          3D

  0  0  0  0  0  0  0  0  0  0999 V3000
M  V30 BEGIN CTAB
M  V30 COUNTS 80 85 0 0 0
M  V30 BEGIN ATOM
M  V30 1 O 0.003327 -0.685031 8.560274 0
M  V30 2 C -0.567933 0.437367 8.534705 0
M  V30 3 N -0.524924 1.350829 9.639741 0
M  V30 4 C 0.103128 1.250794 10.907896 0
M  V30 5 C -0.380020 0.766000 12.109165 0
M  V30 6 C 0.512261 0.809225 13.156446 0
M  V30 7 C 1.802186 1.273948 13.126811 0
M  V30 8 C 2.254430 1.753882 11.901294 0
M  V30 9 C 1.395430 1.734608 10.809299 0
M  V30 10 N -1.309987 0.920387 7.414826 0
M  V30 11 C -1.386602 0.086427 6.266477 0
M  V30 12 C -2.268991 -0.882927 5.846776 0
M  V30 13 C -2.075468 -1.542723 4.655701 0
M  V30 14 C -1.006664 -1.275670 3.829234 0
M  V30 15 C -0.726574 -1.956760 2.535619 0
M  V30 16 C 0.146363 -3.177404 2.900983 0
M  V30 17 N 0.546524 -3.925768 1.788227 0
M  V30 18 C 0.949058 -4.678140 0.674677 0
M  V30 19 N 1.636310 -5.816491 0.564063 0
M  V30 20 C 1.984630 -6.443221 -0.547316 0
M  V30 21 N 1.589083 -5.842931 -1.672000 0
M  V30 22 C 0.898639 -4.707169 -1.706501 0
M  V30 23 O 0.473580 -4.052327 -2.745379 0
M  V30 24 C -0.171427 -2.971795 -2.387807 0
M  V30 25 C -0.797528 -1.966279 -3.243693 0
M  V30 26 C -1.561854 -0.922309 -2.756251 0
M  V30 27 C -2.064100 0.009318 -3.675770 0
M  V30 28 C -1.816206 -0.085953 -5.058488 0
M  V30 29 O -2.418944 0.935281 -5.654130 0
M  V30 30 C -2.581568 1.475560 -6.885939 0
M  V30 31 C -1.355435 1.987677 -7.590394 0
M  V30 32 N -0.326070 1.160814 -7.931234 0
M  V30 33 C -0.303738 0.207771 -8.930848 0
M  V30 34 C 0.645419 0.532163 -10.085574 0
M  V30 35 C 2.009049 0.842982 -9.565937 0
M  V30 36 O 3.010714 0.078853 -10.190267 0
M  V30 37 C 2.050483 0.647093 -8.071215 0
M  V30 38 C 0.957724 1.530578 -7.451404 0
M  V30 39 C -1.049447 -1.161282 -5.427767 0
M  V30 40 C -0.529514 -2.103546 -4.590281 0
M  V30 41 C -0.142675 -2.958839 -0.996048 0
M  V30 42 C 0.553973 -4.084902 -0.533881 0
M  V30 43 C -0.099170 -0.290739 4.243294 0
M  V30 44 C -0.282291 0.391429 5.455109 0
M  V30 45 H -0.966345 2.280902 9.692514 0
M  V30 46 H -1.396723 0.422381 12.047409 0
M  V30 47 H 0.093540 0.416377 14.096888 0
M  V30 48 H 2.370025 1.236693 14.037986 0
M  V30 49 H 3.280639 2.122315 11.881505 0
M  V30 50 H 1.899919 2.141615 9.930723 0
M  V30 51 H -1.792443 1.859348 7.417614 0
M  V30 52 H -3.058389 -1.014629 6.550275 0
M  V30 53 H -2.788576 -2.289130 4.368748 0
M  V30 54 H -1.638463 -2.306531 2.052899 0
M  V30 55 H -0.113075 -1.283494 1.925777 0
M  V30 56 H 1.053629 -2.744564 3.431948 0
M  V30 57 H -0.398104 -3.751817 3.696472 0
M  V30 58 H 0.996020 -4.606987 2.481697 0
M  V30 59 H 2.549715 -7.369028 -0.418932 0
M  V30 60 H -1.702023 -0.924267 -1.697949 0
M  V30 61 H -2.643545 0.760250 -3.119839 0
M  V30 62 H -3.256793 2.380220 -6.788658 0
M  V30 63 H -3.174315 0.778542 -7.519824 0
M  V30 64 H -1.673248 2.648708 -8.464304 0
M  V30 65 H -0.946961 2.785350 -6.873036 0
M  V30 66 H -1.268757 -0.035561 -9.421654 0
M  V30 67 H 0.095731 -0.774598 -8.542393 0
M  V30 68 H 0.710736 -0.401766 -10.693966 0
M  V30 69 H 0.216963 1.307460 -10.758536 0
M  V30 70 H 2.238461 1.924928 -9.768886 0
M  V30 71 H 3.267374 -0.698405 -9.606809 0
M  V30 72 H 3.008791 1.033008 -7.660448 0
M  V30 73 H 1.944128 -0.406176 -7.777293 0
M  V30 74 H 1.203915 2.561546 -7.812657 0
M  V30 75 H 1.034282 1.551637 -6.342518 0
M  V30 76 H -0.914095 -1.174769 -6.492611 0
M  V30 77 H 0.065473 -2.913957 -4.994389 0
M  V30 78 H -0.563271 -2.236667 -0.313205 0
M  V30 79 H 0.745024 -0.083384 3.578196 0
M  V30 80 H 0.516992 1.125120 5.618571 0
M  V30 END ATOM
M  V30 BEGIN BOND
M  V30 1 2 1 2
M  V30 2 1 2 3
M  V30 3 1 3 4
M  V30 4 2 4 5
M  V30 5 1 5 6
M  V30 6 2 6 7
M  V30 7 1 7 8
M  V30 8 2 8 9
M  V30 9 1 2 10
M  V30 10 1 10 11
M  V30 11 2 11 12
M  V30 12 1 12 13
M  V30 13 2 13 14
M  V30 14 1 14 15
M  V30 15 1 15 16
M  V30 16 1 16 17
M  V30 17 1 17 18
M  V30 18 2 18 19
M  V30 19 1 19 20
M  V30 20 2 20 21
M  V30 21 1 21 22
M  V30 22 1 22 23
M  V30 23 1 23 24
M  V30 24 1 24 25
M  V30 25 2 25 26
M  V30 26 1 26 27
M  V30 27 2 27 28
M  V30 28 1 28 29
M  V30 29 1 29 30
M  V30 30 1 30 31
M  V30 31 1 31 32
M  V30 32 1 32 33
M  V30 33 1 33 34
M  V30 34 1 34 35
M  V30 35 1 35 36
M  V30 36 1 35 37
M  V30 37 1 37 38
M  V30 38 1 28 39
M  V30 39 2 39 40
M  V30 40 2 24 41
M  V30 41 1 41 42
M  V30 42 1 14 43
M  V30 43 2 43 44
M  V30 44 1 9 4
M  V30 45 1 44 11
M  V30 46 1 42 18
M  V30 47 2 42 22
M  V30 48 1 40 25
M  V30 49 1 38 32
M  V30 50 1 3 45
M  V30 51 1 5 46
M  V30 52 1 6 47
M  V30 53 1 7 48
M  V30 54 1 8 49
M  V30 55 1 9 50
M  V30 56 1 10 51
M  V30 57 1 12 52
M  V30 58 1 13 53
M  V30 59 1 15 54
M  V30 60 1 15 55
M  V30 61 1 16 56
M  V30 62 1 16 57
M  V30 63 1 17 58
M  V30 64 1 20 59
M  V30 65 1 26 60
M  V30 66 1 27 61
M  V30 67 1 30 62
M  V30 68 1 30 63
M  V30 69 1 31 64
M  V30 70 1 31 65
M  V30 71 1 33 66
M  V30 72 1 33 67
M  V30 73 1 34 68
M  V30 74 1 34 69
M  V30 75 1 35 70
M  V30 76 1 36 71
M  V30 77 1 37 72
M  V30 78 1 37 73
M  V30 79 1 38 74
M  V30 80 1 38 75
M  V30 81 1 39 76
M  V30 82 1 40 77
M  V30 83 1 41 78
M  V30 84 1 43 79
M  V30 85 1 44 80
M  V30 END BOND
M  V30 END CTAB
M  END
>  <Dataset>  (120) 
ChEMBL_Kinases

>  <Ligand_Instance>  (120) 
nan

>  <PDB_ID>  (120) 
nan

>  <Standardized_SMILES>  (120) 
O=C(Nc1ccccc1)Nc1ccc(CCNc2ncnc3oc(-c4ccc(OCCN5CCC(O)CC5)cc4)cc23)cc1

>  <Name>  (120) 
nan

>  <Pocket>  (120) 
nan

>  <ATP_Site>  (120) 
nan

>  <Peripheral>  (120) 
nan

>  <Num_H_Atoms_ProtBoundConf>  (120) 
nan

>  <Num_Resolved_Atoms>  (120) 
nan

>  <Num_Not_Resolved_Atoms>  (120) 
nan

$$$$
CHEMBL4457529
     RDKit          3D

  0  0  0  0  0  0  0  0  0  0999 V3000
M  V30 BEGIN CTAB
M  V30 COUNTS 52 54 0 0 0
M  V30 BEGIN ATOM
M  V30 1 C -0.894066 -1.626780 5.493761 0
M  V30 2 O -0.193742 -2.384265 4.604226 0
M  V30 3 C 1.144157 -2.245379 4.625965 0
M  V30 4 C 1.767561 -0.915792 4.327816 0
M  V30 5 C 3.310316 -1.140035 4.395048 0
M  V30 6 C 1.525723 0.156294 5.358622 0
M  V30 7 C 1.383330 -0.416690 3.006503 0
M  V30 8 C 1.079565 -0.008081 1.910715 0
M  V30 9 C 0.734607 0.495080 0.602735 0
M  V30 10 C 0.992064 1.815238 0.236462 0
M  V30 11 Cl 1.725029 3.115948 1.139648 0
M  V30 12 C 0.547060 1.970521 -1.060070 0
M  V30 13 C 0.489829 2.974991 -2.006289 0
M  V30 14 Cl 1.119302 4.536770 -1.582351 0
M  V30 15 C -0.065315 2.675055 -3.232703 0
M  V30 16 C -0.575222 1.449456 -3.607104 0
M  V30 17 C -1.125401 1.315584 -4.950120 0
M  V30 18 N -1.620933 0.015492 -5.216726 0
M  V30 19 O -1.184741 2.214526 -5.824823 0
M  V30 20 N -0.504900 0.477250 -2.651907 0
M  V30 21 C 0.032868 0.749049 -1.448975 0
M  V30 22 N 0.151421 -0.145993 -0.427660 0
M  V30 23 C -0.242169 -1.528042 -0.371709 0 CFG=1
M  V30 24 C -1.613210 -1.651597 0.219614 0
M  V30 25 C -2.205885 -2.973662 -0.281653 0
M  V30 26 C -2.446997 -2.896610 -1.776439 0
M  V30 27 N -1.446402 -2.060457 -2.389459 0
M  V30 28 C -0.186841 -2.241678 -1.690885 0
M  V30 29 H -0.594163 -1.799019 6.569614 0
M  V30 30 H -1.986163 -1.990723 5.525011 0
M  V30 31 H -0.891219 -0.551218 5.273372 0
M  V30 32 H 1.572277 -2.534530 5.652597 0
M  V30 33 H 1.652714 -3.032527 3.964326 0
M  V30 34 H 3.737698 -0.358613 3.726143 0
M  V30 35 H 3.659238 -1.061563 5.440188 0
M  V30 36 H 3.576718 -2.121821 3.969696 0
M  V30 37 H 1.172500 -0.240083 6.322063 0
M  V30 38 H 0.827938 0.955234 5.030863 0
M  V30 39 H 2.492558 0.742807 5.552133 0
M  V30 40 H -0.115640 3.449664 -3.978121 0
M  V30 41 H -0.778833 -0.601528 -5.414349 0
M  V30 42 H -2.068851 -0.896177 -5.397054 0
M  V30 43 H 0.448717 -2.087959 0.317857 0
M  V30 44 H -1.608026 -1.726260 1.322941 0
M  V30 45 H -2.288830 -0.832561 -0.100570 0
M  V30 46 H -1.510350 -3.799159 -0.026361 0
M  V30 47 H -3.184728 -3.183031 0.204330 0
M  V30 48 H -3.458659 -2.495955 -1.964649 0
M  V30 49 H -2.318658 -3.927400 -2.181360 0
M  V30 50 H -1.315823 -2.258782 -3.402197 0
M  V30 51 H 0.669924 -1.931042 -2.325731 0
M  V30 52 H -0.023006 -3.340488 -1.499295 0
M  V30 END ATOM
M  V30 BEGIN BOND
M  V30 1 1 1 2
M  V30 2 1 2 3
M  V30 3 1 3 4
M  V30 4 1 4 5
M  V30 5 1 4 6
M  V30 6 1 4 7
M  V30 7 3 7 8
M  V30 8 1 8 9
M  V30 9 2 9 10
M  V30 10 1 10 11
M  V30 11 1 10 12
M  V30 12 2 12 13
M  V30 13 1 13 14
M  V30 14 1 13 15
M  V30 15 2 15 16
M  V30 16 1 16 17
M  V30 17 1 17 18
M  V30 18 2 17 19
M  V30 19 1 16 20
M  V30 20 2 20 21
M  V30 21 1 21 22
M  V30 22 1 22 23
M  V30 23 1 23 24
M  V30 24 1 24 25
M  V30 25 1 25 26
M  V30 26 1 26 27
M  V30 27 1 27 28
M  V30 28 1 22 9
M  V30 29 1 28 23
M  V30 30 1 21 12
M  V30 31 1 1 29
M  V30 32 1 1 30
M  V30 33 1 1 31
M  V30 34 1 3 32
M  V30 35 1 3 33
M  V30 36 1 5 34
M  V30 37 1 5 35
M  V30 38 1 5 36
M  V30 39 1 6 37
M  V30 40 1 6 38
M  V30 41 1 6 39
M  V30 42 1 15 40
M  V30 43 1 18 41
M  V30 44 1 18 42
M  V30 45 1 23 43 CFG=1
M  V30 46 1 24 44
M  V30 47 1 24 45
M  V30 48 1 25 46
M  V30 49 1 25 47
M  V30 50 1 26 48
M  V30 51 1 26 49
M  V30 52 1 27 50
M  V30 53 1 28 51
M  V30 54 1 28 52
M  V30 END BOND
M  V30 END CTAB
M  END
>  <Dataset>  (121) 
ChEMBL_Kinases

>  <Ligand_Instance>  (121) 
nan

>  <PDB_ID>  (121) 
nan

>  <Standardized_SMILES>  (121) 
COCC(C)(C)C#Cc1c(Cl)c2c(Cl)cc(C(N)=O)nc2n1[C@H]1CCCNC1

>  <Name>  (121) 
nan

>  <Pocket>  (121) 
nan

>  <ATP_Site>  (121) 
nan

>  <Peripheral>  (121) 
nan

>  <Num_H_Atoms_ProtBoundConf>  (121) 
nan

>  <Num_Resolved_Atoms>  (121) 
nan

>  <Num_Not_Resolved_Atoms>  (121) 
nan

$$$$
CHEMBL3706677
     RDKit          3D

  0  0  0  0  0  0  0  0  0  0999 V3000
M  V30 BEGIN CTAB
M  V30 COUNTS 76 80 0 0 0
M  V30 BEGIN ATOM
M  V30 1 O 3.849419 -0.408499 4.274726 0
M  V30 2 C 4.017965 0.299071 5.316751 0
M  V30 3 N 4.040144 -0.179982 6.640226 0
M  V30 4 C 3.848949 -1.603289 6.961083 0
M  V30 5 C 2.408382 -1.959965 6.870174 0
M  V30 6 C 1.687665 -1.788498 8.058402 0
M  V30 7 C 0.333102 -2.059108 8.183040 0
M  V30 8 C -0.335855 -2.521650 7.076975 0
M  V30 9 C 0.342390 -2.709217 5.867976 0
M  V30 10 C 1.689551 -2.426454 5.791733 0
M  V30 11 N 4.178772 1.654494 4.921692 0
M  V30 12 C 4.105443 1.786566 3.485065 0
M  V30 13 C 2.822105 1.970378 2.989843 0
M  V30 14 C 2.667601 2.109145 1.605517 0
M  V30 15 C 3.734645 2.069823 0.730385 0
M  V30 16 N 3.539612 2.209959 -0.681884 0
M  V30 17 C 2.170175 2.177571 -1.087278 0
M  V30 18 N 1.385401 3.288203 -1.066592 0
M  V30 19 C 0.103497 3.246360 -1.453315 0
M  V30 20 N -0.388518 2.052591 -1.868821 0
M  V30 21 C 0.373747 0.947619 -1.895215 0
M  V30 22 C -0.164669 -0.232412 -2.326678 0
M  V30 23 C 0.501287 -1.432697 -2.407857 0
M  V30 24 O 0.274809 -2.683484 -2.761790 0
M  V30 25 C -0.637710 -3.548335 -3.212522 0
M  V30 26 C -1.820664 -3.821417 -2.325649 0
M  V30 27 C -2.696277 -2.693542 -1.979261 0
M  V30 28 N -3.331353 -2.002083 -3.043361 0
M  V30 29 C -4.167081 -0.887608 -2.569801 0
M  V30 30 C -4.281745 0.045103 -3.749717 0
M  V30 31 C -4.801738 -0.612760 -4.982545 0
M  V30 32 C -6.298543 -0.392330 -5.036473 0
M  V30 33 O -6.771115 -1.001469 -6.172095 0
M  V30 34 C -4.466364 -2.056084 -5.129871 0
M  V30 35 C -4.208166 -2.788523 -3.861640 0
M  V30 36 C 1.852099 -1.386938 -1.999779 0
M  V30 37 C 2.446295 -0.194455 -1.549242 0
M  V30 38 C 1.681564 0.945005 -1.510761 0
M  V30 39 C 5.000061 1.883879 1.271348 0
M  V30 40 C 5.198212 1.742574 2.629523 0
M  V30 41 H 4.207750 0.618141 7.316537 0
M  V30 42 H 4.421094 -2.182233 6.176361 0
M  V30 43 H 4.253002 -1.801576 7.950113 0
M  V30 44 H 2.181629 -1.422515 8.966912 0
M  V30 45 H -0.158020 -1.899728 9.141840 0
M  V30 46 H -1.390106 -2.745581 7.121703 0
M  V30 47 H -0.157420 -3.066992 4.995041 0
M  V30 48 H 2.274313 -2.548267 4.900634 0
M  V30 49 H 4.325586 2.378343 5.689231 0
M  V30 50 H 1.939928 2.012622 3.612533 0
M  V30 51 H 1.663327 2.252690 1.228750 0
M  V30 52 H 4.392438 2.320762 -1.277720 0
M  V30 53 H -0.540901 4.101256 -1.448704 0
M  V30 54 H -1.170182 -0.334618 -2.657907 0
M  V30 55 H -0.166828 -4.561507 -3.422007 0
M  V30 56 H -0.978413 -3.237026 -4.247232 0
M  V30 57 H -1.344192 -4.153775 -1.345678 0
M  V30 58 H -2.365204 -4.748316 -2.636217 0
M  V30 59 H -3.548011 -3.081112 -1.320787 0
M  V30 60 H -2.180083 -1.982579 -1.317367 0
M  V30 61 H -5.169600 -1.228552 -2.245358 0
M  V30 62 H -3.718943 -0.343407 -1.732152 0
M  V30 63 H -4.951682 0.881330 -3.411234 0
M  V30 64 H -3.284005 0.501959 -3.906393 0
M  V30 65 H -4.391380 -0.078707 -5.864902 0
M  V30 66 H -6.788995 -0.699835 -4.091308 0
M  V30 67 H -6.446637 0.720364 -5.170168 0
M  V30 68 H -6.782413 -0.424461 -6.959304 0
M  V30 69 H -5.310623 -2.559819 -5.679247 0
M  V30 70 H -3.570890 -2.208226 -5.798667 0
M  V30 71 H -3.836732 -3.793120 -4.129707 0
M  V30 72 H -5.172404 -2.942180 -3.319423 0
M  V30 73 H 2.617934 -2.157101 -1.952154 0
M  V30 74 H 3.455850 -0.043494 -1.217755 0
M  V30 75 H 5.873916 1.843247 0.643890 0
M  V30 76 H 6.166407 1.596638 3.092984 0
M  V30 END ATOM
M  V30 BEGIN BOND
M  V30 1 2 1 2
M  V30 2 1 2 3
M  V30 3 1 3 4
M  V30 4 1 4 5
M  V30 5 2 5 6
M  V30 6 1 6 7
M  V30 7 2 7 8
M  V30 8 1 8 9
M  V30 9 2 9 10
M  V30 10 1 2 11
M  V30 11 1 11 12
M  V30 12 2 12 13
M  V30 13 1 13 14
M  V30 14 2 14 15
M  V30 15 1 15 16
M  V30 16 1 16 17
M  V30 17 2 17 18
M  V30 18 1 18 19
M  V30 19 2 19 20
M  V30 20 1 20 21
M  V30 21 2 21 22
M  V30 22 1 22 23
M  V30 23 1 23 24
M  V30 24 1 24 25
M  V30 25 1 25 26
M  V30 26 1 26 27
M  V30 27 1 27 28
M  V30 28 1 28 29
M  V30 29 1 29 30
M  V30 30 1 30 31
M  V30 31 1 31 32
M  V30 32 1 32 33
M  V30 33 1 31 34
M  V30 34 1 34 35
M  V30 35 2 23 36
M  V30 36 1 36 37
M  V30 37 2 37 38
M  V30 38 1 15 39
M  V30 39 2 39 40
M  V30 40 1 10 5
M  V30 41 1 40 12
M  V30 42 1 38 17
M  V30 43 1 38 21
M  V30 44 1 35 28
M  V30 45 1 3 41
M  V30 46 1 4 42
M  V30 47 1 4 43
M  V30 48 1 6 44
M  V30 49 1 7 45
M  V30 50 1 8 46
M  V30 51 1 9 47
M  V30 52 1 10 48
M  V30 53 1 11 49
M  V30 54 1 13 50
M  V30 55 1 14 51
M  V30 56 1 16 52
M  V30 57 1 19 53
M  V30 58 1 22 54
M  V30 59 1 25 55
M  V30 60 1 25 56
M  V30 61 1 26 57
M  V30 62 1 26 58
M  V30 63 1 27 59
M  V30 64 1 27 60
M  V30 65 1 29 61
M  V30 66 1 29 62
M  V30 67 1 30 63
M  V30 68 1 30 64
M  V30 69 1 31 65
M  V30 70 1 32 66
M  V30 71 1 32 67
M  V30 72 1 33 68
M  V30 73 1 34 69
M  V30 74 1 34 70
M  V30 75 1 35 71
M  V30 76 1 35 72
M  V30 77 1 36 73
M  V30 78 1 37 74
M  V30 79 1 39 75
M  V30 80 1 40 76
M  V30 END BOND
M  V30 END CTAB
M  END
>  <Dataset>  (122) 
ChEMBL_Kinases

>  <Ligand_Instance>  (122) 
nan

>  <PDB_ID>  (122) 
nan

>  <Standardized_SMILES>  (122) 
O=C(NCc1ccccc1)Nc1ccc(Nc2ncnc3cc(OCCCN4CCC(CO)CC4)ccc23)cc1

>  <Name>  (122) 
nan

>  <Pocket>  (122) 
nan

>  <ATP_Site>  (122) 
nan

>  <Peripheral>  (122) 
nan

>  <Num_H_Atoms_ProtBoundConf>  (122) 
nan

>  <Num_Resolved_Atoms>  (122) 
nan

>  <Num_Not_Resolved_Atoms>  (122) 
nan

$$$$
CHEMBL4572198
     RDKit          3D

  0  0  0  0  0  0  0  0  0  0999 V3000
M  V30 BEGIN CTAB
M  V30 COUNTS 55 57 0 0 0
M  V30 BEGIN ATOM
M  V30 1 C 6.579208 -3.176391 2.725402 0
M  V30 2 O 6.860305 -2.089971 1.838257 0
M  V30 3 C 5.885431 -1.118314 1.571788 0
M  V30 4 C 6.239323 -0.110796 0.709180 0
M  V30 5 C 5.276256 0.835163 0.456083 0
M  V30 6 C 4.007079 0.810593 1.018927 0
M  V30 7 C 3.691362 -0.206478 1.871785 0
M  V30 8 C 2.364934 -0.326389 2.525992 0 CFG=1
M  V30 9 C 2.224825 0.708219 3.650155 0
M  V30 10 N 1.253868 -0.108116 1.632575 0
M  V30 11 C 0.135465 -0.935057 1.340602 0
M  V30 12 O 0.360520 -1.913314 2.063408 0
M  V30 13 C -0.870389 -0.496660 0.392297 0
M  V30 14 C -0.723298 0.726043 -0.210571 0
M  V30 15 C -1.658502 1.174021 -1.113167 0
M  V30 16 C -2.759787 0.398921 -1.426006 0
M  V30 17 C -3.742977 0.906158 -2.397105 0
M  V30 18 C -3.328592 1.723118 -3.435644 0
M  V30 19 C -4.296899 2.180623 -4.334476 0
M  V30 20 N -5.562138 1.807017 -4.143774 0
M  V30 21 C -5.940201 1.019096 -3.136432 0
M  V30 22 C -5.055546 0.523167 -2.205695 0
M  V30 23 C -2.874294 -0.825277 -0.800015 0
M  V30 24 C -1.949315 -1.305512 0.114496 0
M  V30 25 N -2.197369 -2.567451 0.648242 0
M  V30 26 C -3.258076 -3.489588 0.463026 0
M  V30 27 C -4.600299 -3.122357 0.971878 0
M  V30 28 N -4.600676 -2.890808 2.425188 0
M  V30 29 C 4.637937 -1.178600 2.150458 0
M  V30 30 H 6.342086 -2.811104 3.753821 0
M  V30 31 H 5.744822 -3.790029 2.315817 0
M  V30 32 H 7.481529 -3.814629 2.751851 0
M  V30 33 H 7.210538 -0.036035 0.239244 0
M  V30 34 H 5.536151 1.648254 -0.229062 0
M  V30 35 H 3.296571 1.587900 0.777105 0
M  V30 36 H 2.238328 -1.308672 3.024117 0
M  V30 37 H 2.686381 0.288183 4.549598 0
M  V30 38 H 2.724761 1.651444 3.334146 0
M  V30 39 H 1.160052 0.926437 3.859592 0
M  V30 40 H 1.456560 0.852095 1.216738 0
M  V30 41 H 0.071327 1.421563 -0.063595 0
M  V30 42 H -1.567396 2.149367 -1.611489 0
M  V30 43 H -2.302586 1.977755 -3.522203 0
M  V30 44 H -3.902842 2.812238 -5.117827 0
M  V30 45 H -6.994727 0.751715 -3.039517 0
M  V30 46 H -5.373368 -0.118238 -1.388505 0
M  V30 47 H -3.764541 -1.352614 -1.120905 0
M  V30 48 H -1.479489 -2.920284 1.314484 0
M  V30 49 H -3.014513 -4.494353 0.821450 0
M  V30 50 H -3.384862 -3.627647 -0.660186 0
M  V30 51 H -5.234005 -4.056175 0.868801 0
M  V30 52 H -5.158525 -2.347476 0.472239 0
M  V30 53 H -4.555538 -1.875446 2.594011 0
M  V30 54 H -3.758165 -3.425014 2.777161 0
M  V30 55 H 4.388379 -1.981229 2.823507 0
M  V30 END ATOM
M  V30 BEGIN BOND
M  V30 1 1 1 2
M  V30 2 1 2 3
M  V30 3 2 3 4
M  V30 4 1 4 5
M  V30 5 2 5 6
M  V30 6 1 6 7
M  V30 7 1 7 8
M  V30 8 1 8 9
M  V30 9 1 8 10
M  V30 10 1 10 11
M  V30 11 2 11 12
M  V30 12 1 11 13
M  V30 13 2 13 14
M  V30 14 1 14 15
M  V30 15 2 15 16
M  V30 16 1 16 17
M  V30 17 2 17 18
M  V30 18 1 18 19
M  V30 19 2 19 20
M  V30 20 1 20 21
M  V30 21 2 21 22
M  V30 22 1 16 23
M  V30 23 2 23 24
M  V30 24 1 24 25
M  V30 25 1 25 26
M  V30 26 1 26 27
M  V30 27 1 27 28
M  V30 28 2 7 29
M  V30 29 1 29 3
M  V30 30 1 24 13
M  V30 31 1 22 17
M  V30 32 1 1 30
M  V30 33 1 1 31
M  V30 34 1 1 32
M  V30 35 1 4 33
M  V30 36 1 5 34
M  V30 37 1 6 35
M  V30 38 1 8 36 CFG=1
M  V30 39 1 9 37
M  V30 40 1 9 38
M  V30 41 1 9 39
M  V30 42 1 10 40
M  V30 43 1 14 41
M  V30 44 1 15 42
M  V30 45 1 18 43
M  V30 46 1 19 44
M  V30 47 1 21 45
M  V30 48 1 22 46
M  V30 49 1 23 47
M  V30 50 1 25 48
M  V30 51 1 26 49
M  V30 52 1 26 50
M  V30 53 1 27 51
M  V30 54 1 27 52
M  V30 55 1 28 53
M  V30 56 1 28 54
M  V30 57 1 29 55
M  V30 END BOND
M  V30 END CTAB
M  END
>  <Dataset>  (123) 
ChEMBL_Kinases

>  <Ligand_Instance>  (123) 
nan

>  <PDB_ID>  (123) 
nan

>  <Standardized_SMILES>  (123) 
COc1cccc([C@@H](C)NC(=O)c2ccc(-c3ccncc3)cc2NCCN)c1

>  <Name>  (123) 
nan

>  <Pocket>  (123) 
nan

>  <ATP_Site>  (123) 
nan

>  <Peripheral>  (123) 
nan

>  <Num_H_Atoms_ProtBoundConf>  (123) 
nan

>  <Num_Resolved_Atoms>  (123) 
nan

>  <Num_Not_Resolved_Atoms>  (123) 
nan

$$$$
CHEMBL3703178
     RDKit          3D

  0  0  0  0  0  0  0  0  0  0999 V3000
M  V30 BEGIN CTAB
M  V30 COUNTS 39 41 0 0 0
M  V30 BEGIN ATOM
M  V30 1 C -2.246806 -3.738967 4.335315 0
M  V30 2 S -0.779344 -2.728181 4.740598 0
M  V30 3 C 0.272351 -2.529499 3.312493 0
M  V30 4 N 1.286451 -3.379245 2.975628 0
M  V30 5 C 2.035862 -3.152129 1.872501 0
M  V30 6 C 1.817643 -2.062332 1.038992 0
M  V30 7 C 0.782348 -1.245802 1.433729 0
M  V30 8 N 0.037429 -1.463982 2.522712 0
M  V30 9 C 0.561976 -0.108139 0.552377 0
M  V30 10 C 1.431639 -0.074125 -0.500886 0
M  V30 11 C 1.052109 1.070024 -1.197747 0
M  V30 12 C 1.492378 1.771750 -2.413855 0
M  V30 13 N 2.594842 1.123669 -3.059349 0
M  V30 14 O 1.134749 2.805922 -3.026479 0
M  V30 15 C -0.008664 1.677254 -0.560555 0
M  V30 16 N -0.299109 0.917663 0.537780 0
M  V30 17 C -1.316731 1.070980 1.577213 0
M  V30 18 C -2.577312 0.293638 1.243447 0
M  V30 19 C -1.699207 2.543038 1.546316 0
M  V30 20 C 2.535898 -0.899551 -0.973263 0
M  V30 21 C 2.780061 -2.066716 -0.079367 0
M  V30 22 H -1.852948 -4.576983 3.693577 0
M  V30 23 H -2.969472 -3.214731 3.704314 0
M  V30 24 H -2.664313 -4.221734 5.219966 0
M  V30 25 H 2.785911 -3.934873 1.777468 0
M  V30 26 H 2.205792 0.537199 -3.854079 0
M  V30 27 H 3.647420 0.977292 -3.083128 0
M  V30 28 H -0.621729 2.538400 -0.701379 0
M  V30 29 H -0.918064 0.849119 2.572823 0
M  V30 30 H -2.485052 -0.772675 1.454984 0
M  V30 31 H -2.746938 0.422499 0.146856 0
M  V30 32 H -3.424960 0.779791 1.766438 0
M  V30 33 H -2.333775 2.821396 2.429125 0
M  V30 34 H -0.852681 3.219013 1.417334 0
M  V30 35 H -2.362867 2.699745 0.651445 0
M  V30 36 H 3.469818 -0.270896 -0.932491 0
M  V30 37 H 2.355261 -1.215466 -2.034058 0
M  V30 38 H 2.652796 -3.011420 -0.694682 0
M  V30 39 H 3.814205 -2.091748 0.333999 0
M  V30 END ATOM
M  V30 BEGIN BOND
M  V30 1 1 1 2
M  V30 2 1 2 3
M  V30 3 2 3 4
M  V30 4 1 4 5
M  V30 5 2 5 6
M  V30 6 1 6 7
M  V30 7 2 7 8
M  V30 8 1 7 9
M  V30 9 2 9 10
M  V30 10 1 10 11
M  V30 11 1 11 12
M  V30 12 1 12 13
M  V30 13 2 12 14
M  V30 14 2 11 15
M  V30 15 1 15 16
M  V30 16 1 16 17
M  V30 17 1 17 18
M  V30 18 1 17 19
M  V30 19 1 10 20
M  V30 20 1 20 21
M  V30 21 1 8 3
M  V30 22 1 16 9
M  V30 23 1 21 6
M  V30 24 1 1 22
M  V30 25 1 1 23
M  V30 26 1 1 24
M  V30 27 1 5 25
M  V30 28 1 13 26
M  V30 29 1 13 27
M  V30 30 1 15 28
M  V30 31 1 17 29
M  V30 32 1 18 30
M  V30 33 1 18 31
M  V30 34 1 18 32
M  V30 35 1 19 33
M  V30 36 1 19 34
M  V30 37 1 19 35
M  V30 38 1 20 36
M  V30 39 1 20 37
M  V30 40 1 21 38
M  V30 41 1 21 39
M  V30 END BOND
M  V30 END CTAB
M  END
>  <Dataset>  (124) 
ChEMBL_Kinases

>  <Ligand_Instance>  (124) 
nan

>  <PDB_ID>  (124) 
nan

>  <Standardized_SMILES>  (124) 
CSc1ncc2c(n1)-c1c(c(C(N)=O)cn1C(C)C)CC2

>  <Name>  (124) 
nan

>  <Pocket>  (124) 
nan

>  <ATP_Site>  (124) 
nan

>  <Peripheral>  (124) 
nan

>  <Num_H_Atoms_ProtBoundConf>  (124) 
nan

>  <Num_Resolved_Atoms>  (124) 
nan

>  <Num_Not_Resolved_Atoms>  (124) 
nan

$$$$
CHEMBL3702129
     RDKit          3D

  0  0  0  0  0  0  0  0  0  0999 V3000
M  V30 BEGIN CTAB
M  V30 COUNTS 60 65 0 0 0
M  V30 BEGIN ATOM
M  V30 1 O 0.739673 -6.260576 0.648188 0
M  V30 2 S 1.248492 -5.818807 -0.694460 0
M  V30 3 O 2.502765 -6.584277 -0.979372 0
M  V30 4 C 1.577435 -4.124972 -0.596620 0
M  V30 5 C 0.921062 -3.252049 0.244152 0
M  V30 6 C 1.308419 -1.930678 0.194614 0
M  V30 7 C 2.289415 -1.405347 -0.616962 0
M  V30 8 N 2.663414 -0.036585 -0.645074 0
M  V30 9 C 2.172293 1.076098 0.084219 0
M  V30 10 N 2.698367 2.299521 -0.101394 0
M  V30 11 C 2.226665 3.344491 0.591789 0
M  V30 12 C 1.194544 3.118040 1.490512 0
M  V30 13 C 0.599874 4.077802 2.283657 0
M  V30 14 C 0.718671 5.413822 2.512141 0
M  V30 15 C -0.092179 6.026530 3.426577 0
M  V30 16 N -0.995714 5.279111 4.082166 0
M  V30 17 C -1.134747 3.980724 3.882256 0
M  V30 18 C -0.336604 3.343080 2.972754 0
M  V30 19 N -0.364699 2.040628 2.672899 0
M  V30 20 C -1.018203 0.824545 2.974515 0
M  V30 21 C -1.682505 0.284914 1.685234 0
M  V30 22 C -2.814089 1.300915 1.570555 0
M  V30 23 C -3.303479 1.465840 2.999355 0
M  V30 24 C -2.223035 0.870043 3.856739 0
M  V30 25 C 0.616868 1.889218 1.722081 0
M  V30 26 N 1.200195 0.963289 0.955152 0
M  V30 27 N 2.884334 -2.288328 -1.401236 0
M  V30 28 C 2.556214 -3.587314 -1.402965 0
M  V30 29 N 0.040965 -6.197468 -1.861904 0
M  V30 30 C -1.220110 -5.607429 -1.580874 0
M  V30 31 C -1.669025 -4.687824 -2.697410 0
M  V30 32 N -0.501325 -3.841253 -2.991697 0
M  V30 33 C 0.380462 -4.685150 -3.773375 0
M  V30 34 C 0.511066 -6.066505 -3.211880 0
M  V30 35 H 0.157933 -3.629753 0.883293 0
M  V30 36 H 0.755960 -1.306051 0.877143 0
M  V30 37 H 3.433791 0.191111 -1.319585 0
M  V30 38 H 2.646809 4.323095 0.443501 0
M  V30 39 H 1.474518 5.925180 1.934957 0
M  V30 40 H 0.047329 7.078346 3.563145 0
M  V30 41 H -1.882222 3.494869 4.467446 0
M  V30 42 H -0.291470 0.033018 3.343043 0
M  V30 43 H -2.112444 -0.689969 1.939337 0
M  V30 44 H -1.026492 0.289669 0.827042 0
M  V30 45 H -3.654808 0.965684 0.966028 0
M  V30 46 H -2.468492 2.270695 1.188179 0
M  V30 47 H -3.571639 2.505133 3.217461 0
M  V30 48 H -4.236293 0.879191 3.171105 0
M  V30 49 H -2.495996 -0.227781 4.032662 0
M  V30 50 H -2.096729 1.306002 4.844517 0
M  V30 51 H 3.096796 -4.244952 -2.080474 0
M  V30 52 H -2.033727 -6.338949 -1.398634 0
M  V30 53 H -1.101477 -4.943992 -0.678250 0
M  V30 54 H -1.915881 -5.264984 -3.619321 0
M  V30 55 H -2.519101 -4.054166 -2.373784 0
M  V30 56 H -0.779757 -2.996993 -3.499701 0
M  V30 57 H 1.338195 -4.183451 -3.969004 0
M  V30 58 H -0.133222 -4.789107 -4.767054 0
M  V30 59 H 1.603442 -6.308204 -3.202511 0
M  V30 60 H 0.026172 -6.852653 -3.820001 0
M  V30 END ATOM
M  V30 BEGIN BOND
M  V30 1 2 1 2
M  V30 2 2 2 3
M  V30 3 1 2 4
M  V30 4 2 4 5
M  V30 5 1 5 6
M  V30 6 2 6 7
M  V30 7 1 7 8
M  V30 8 1 8 9
M  V30 9 2 9 10
M  V30 10 1 10 11
M  V30 11 2 11 12
M  V30 12 1 12 13
M  V30 13 2 13 14
M  V30 14 1 14 15
M  V30 15 2 15 16
M  V30 16 1 16 17
M  V30 17 2 17 18
M  V30 18 1 18 19
M  V30 19 1 19 20
M  V30 20 1 20 21
M  V30 21 1 21 22
M  V30 22 1 22 23
M  V30 23 1 23 24
M  V30 24 1 19 25
M  V30 25 2 25 26
M  V30 26 1 7 27
M  V30 27 2 27 28
M  V30 28 1 2 29
M  V30 29 1 29 30
M  V30 30 1 30 31
M  V30 31 1 31 32
M  V30 32 1 32 33
M  V30 33 1 33 34
M  V30 34 1 28 4
M  V30 35 1 34 29
M  V30 36 1 26 9
M  V30 37 1 25 12
M  V30 38 1 18 13
M  V30 39 1 24 20
M  V30 40 1 5 35
M  V30 41 1 6 36
M  V30 42 1 8 37
M  V30 43 1 11 38
M  V30 44 1 14 39
M  V30 45 1 15 40
M  V30 46 1 17 41
M  V30 47 1 20 42
M  V30 48 1 21 43
M  V30 49 1 21 44
M  V30 50 1 22 45
M  V30 51 1 22 46
M  V30 52 1 23 47
M  V30 53 1 23 48
M  V30 54 1 24 49
M  V30 55 1 24 50
M  V30 56 1 28 51
M  V30 57 1 30 52
M  V30 58 1 30 53
M  V30 59 1 31 54
M  V30 60 1 31 55
M  V30 61 1 32 56
M  V30 62 1 33 57
M  V30 63 1 33 58
M  V30 64 1 34 59
M  V30 65 1 34 60
M  V30 END BOND
M  V30 END CTAB
M  END
>  <Dataset>  (125) 
ChEMBL_Kinases

>  <Ligand_Instance>  (125) 
nan

>  <PDB_ID>  (125) 
nan

>  <Standardized_SMILES>  (125) 
O=S(=O)(c1ccc(Nc2ncc3c4ccncc4n(C4CCCC4)c3n2)nc1)N1CCNCC1

>  <Name>  (125) 
nan

>  <Pocket>  (125) 
nan

>  <ATP_Site>  (125) 
nan

>  <Peripheral>  (125) 
nan

>  <Num_H_Atoms_ProtBoundConf>  (125) 
nan

>  <Num_Resolved_Atoms>  (125) 
nan

>  <Num_Not_Resolved_Atoms>  (125) 
nan

$$$$
CHEMBL219988
     RDKit          3D

  0  0  0  0  0  0  0  0  0  0999 V3000
M  V30 BEGIN CTAB
M  V30 COUNTS 48 51 0 0 0
M  V30 BEGIN ATOM
M  V30 1 O 0.889618 1.249698 3.822736 0
M  V30 2 C 0.263330 0.985704 2.758005 0
M  V30 3 N 0.718162 1.705762 1.618497 0
M  V30 4 C 1.753111 2.682424 1.406038 0
M  V30 5 C 1.316578 3.797595 0.497511 0
M  V30 6 O 0.211058 4.497526 0.975896 0
M  V30 7 C 2.901852 2.011713 0.696145 0
M  V30 8 C 4.119785 2.619925 0.639140 0
M  V30 9 C 5.299749 2.213232 0.034130 0
M  V30 10 C 5.150155 0.972074 -0.602184 0
M  V30 11 C 3.955233 0.247630 -0.616142 0
M  V30 12 C 2.896232 0.812642 0.036793 0
M  V30 13 F 1.749312 0.089210 0.011854 0
M  V30 14 C -0.853325 0.042169 2.569756 0
M  V30 15 C -1.568958 -0.205863 1.410447 0
M  V30 16 C -2.500700 -1.188644 1.763608 0
M  V30 17 C -3.398338 -1.629922 0.707403 0
M  V30 18 N -4.512161 -0.964735 0.272445 0
M  V30 19 N -5.135646 -1.634766 -0.709885 0
M  V30 20 C -4.458345 -2.785941 -0.975304 0
M  V30 21 C -3.410975 -2.743024 -0.091085 0
M  V30 22 C -2.415463 -3.805639 -0.039621 0
M  V30 23 C -2.620826 -5.129851 0.281099 0
M  V30 24 C -1.625817 -6.082786 0.303666 0
M  V30 25 C -0.346485 -5.653946 -0.020703 0
M  V30 26 C -0.133695 -4.339700 -0.340383 0
M  V30 27 Cl 1.525304 -3.880247 -0.732470 0
M  V30 28 C -1.135922 -3.367125 -0.366041 0
M  V30 29 C -2.285565 -1.461148 3.095476 0
M  V30 30 N -1.284136 -0.715401 3.593208 0
M  V30 31 H 0.229954 1.541935 0.712132 0
M  V30 32 H 2.154853 3.060739 2.351533 0
M  V30 33 H 2.155697 4.508006 0.285409 0
M  V30 34 H 1.034028 3.345744 -0.473980 0
M  V30 35 H 0.601416 5.167875 1.623765 0
M  V30 36 H 4.228573 3.597416 1.146462 0
M  V30 37 H 6.210510 2.779455 0.051473 0
M  V30 38 H 6.042979 0.581221 -1.106325 0
M  V30 39 H 3.885573 -0.709458 -1.103769 0
M  V30 40 H -1.364499 0.307564 0.500625 0
M  V30 41 H -4.873381 -0.043646 0.633974 0
M  V30 42 H -4.696760 -3.540530 -1.706993 0
M  V30 43 H -3.688485 -5.272646 0.506461 0
M  V30 44 H -1.936098 -7.078670 0.575761 0
M  V30 45 H 0.440168 -6.395604 -0.003986 0
M  V30 46 H -0.860207 -2.373462 -0.626861 0
M  V30 47 H -2.925897 -2.215603 3.547107 0
M  V30 48 H -0.957524 -0.766113 4.581902 0
M  V30 END ATOM
M  V30 BEGIN BOND
M  V30 1 2 1 2
M  V30 2 1 2 3
M  V30 3 1 3 4
M  V30 4 1 4 5
M  V30 5 1 5 6
M  V30 6 1 4 7
M  V30 7 2 7 8
M  V30 8 1 8 9
M  V30 9 2 9 10
M  V30 10 1 10 11
M  V30 11 2 11 12
M  V30 12 1 12 13
M  V30 13 1 2 14
M  V30 14 2 14 15
M  V30 15 1 15 16
M  V30 16 1 16 17
M  V30 17 1 17 18
M  V30 18 1 18 19
M  V30 19 2 19 20
M  V30 20 1 20 21
M  V30 21 1 21 22
M  V30 22 2 22 23
M  V30 23 1 23 24
M  V30 24 2 24 25
M  V30 25 1 25 26
M  V30 26 1 26 27
M  V30 27 2 26 28
M  V30 28 2 16 29
M  V30 29 1 29 30
M  V30 30 1 12 7
M  V30 31 1 30 14
M  V30 32 2 21 17
M  V30 33 1 28 22
M  V30 34 1 3 31
M  V30 35 1 4 32
M  V30 36 1 5 33
M  V30 37 1 5 34
M  V30 38 1 6 35
M  V30 39 1 8 36
M  V30 40 1 9 37
M  V30 41 1 10 38
M  V30 42 1 11 39
M  V30 43 1 15 40
M  V30 44 1 18 41
M  V30 45 1 20 42
M  V30 46 1 23 43
M  V30 47 1 24 44
M  V30 48 1 25 45
M  V30 49 1 28 46
M  V30 50 1 29 47
M  V30 51 1 30 48
M  V30 END BOND
M  V30 END CTAB
M  END
>  <Dataset>  (126) 
ChEMBL_Kinases

>  <Ligand_Instance>  (126) 
nan

>  <PDB_ID>  (126) 
nan

>  <Standardized_SMILES>  (126) 
O=C(NC(CO)c1ccccc1F)c1cc(-c2[nH]ncc2-c2cccc(Cl)c2)c[nH]1

>  <Name>  (126) 
nan

>  <Pocket>  (126) 
nan

>  <ATP_Site>  (126) 
nan

>  <Peripheral>  (126) 
nan

>  <Num_H_Atoms_ProtBoundConf>  (126) 
nan

>  <Num_Resolved_Atoms>  (126) 
nan

>  <Num_Not_Resolved_Atoms>  (126) 
nan

$$$$
CHEMBL3702128
     RDKit          3D

  0  0  0  0  0  0  0  0  0  0999 V3000
M  V30 BEGIN CTAB
M  V30 COUNTS 59 64 0 0 0
M  V30 BEGIN ATOM
M  V30 1 O 4.082575 -2.454981 0.291282 0
M  V30 2 C 4.579588 -1.629971 1.105276 0
M  V30 3 C 4.930934 -1.835152 2.521099 0
M  V30 4 N 4.668370 -0.682478 3.342520 0
M  V30 5 C 5.187045 0.554119 2.834370 0
M  V30 6 C 5.758181 0.490730 1.455902 0
M  V30 7 N 4.852364 -0.317836 0.635990 0
M  V30 8 C 4.288666 0.239166 -0.584779 0
M  V30 9 C 2.996851 0.919827 -0.272677 0
M  V30 10 C 2.901755 2.253588 0.075724 0
M  V30 11 C 1.681547 2.829288 0.353500 0
M  V30 12 C 0.508229 2.076603 0.289444 0
M  V30 13 N -0.791032 2.597012 0.561765 0
M  V30 14 C -1.985262 1.815755 0.492731 0
M  V30 15 N -3.157693 2.387922 0.764661 0
M  V30 16 C -4.281696 1.647352 0.698393 0
M  V30 17 C -4.185010 0.309740 0.348666 0
M  V30 18 C -5.182247 -0.609414 0.223421 0
M  V30 19 C -6.550554 -0.575180 0.380124 0
M  V30 20 C -7.307461 -1.719492 0.171789 0
M  V30 21 N -6.670662 -2.853463 -0.184691 0
M  V30 22 C -5.322150 -2.893691 -0.340772 0
M  V30 23 C -4.551616 -1.791360 -0.144558 0
M  V30 24 N -3.238277 -1.580945 -0.233257 0
M  V30 25 C -2.173298 -2.435678 -0.565263 0
M  V30 26 C -2.386104 -3.809727 -0.974096 0
M  V30 27 C -0.917933 -4.203634 -1.264999 0
M  V30 28 C -0.230443 -3.660777 -0.036387 0
M  V30 29 C -1.151179 -2.609557 0.568179 0
M  V30 30 C -2.993228 -0.289507 0.067772 0
M  V30 31 N -1.908974 0.515395 0.154655 0
M  V30 32 N 0.640928 0.788263 -0.051510 0
M  V30 33 C 1.815666 0.193813 -0.329125 0
M  V30 34 H 4.244452 -2.640342 2.908464 0
M  V30 35 H 5.953366 -2.232622 2.686065 0
M  V30 36 H 3.682248 -0.566111 3.628648 0
M  V30 37 H 4.435984 1.363917 2.914086 0
M  V30 38 H 6.032514 0.860793 3.511926 0
M  V30 39 H 5.791230 1.528798 1.064741 0
M  V30 40 H 6.753651 0.038909 1.427971 0
M  V30 41 H 5.006199 0.899208 -1.106508 0
M  V30 42 H 4.054860 -0.624477 -1.252656 0
M  V30 43 H 3.804780 2.839932 0.126810 0
M  V30 44 H 1.574681 3.868582 0.628514 0
M  V30 45 H -0.818970 3.588994 0.816272 0
M  V30 46 H -5.244842 2.087245 0.914144 0
M  V30 47 H -7.009944 0.381813 0.672522 0
M  V30 48 H -8.389118 -1.674460 0.300216 0
M  V30 49 H -4.860222 -3.806635 -0.622253 0
M  V30 50 H -1.560754 -1.933655 -1.372911 0
M  V30 51 H -2.874759 -4.013585 -1.939329 0
M  V30 52 H -2.635813 -4.555005 -0.169182 0
M  V30 53 H -0.606538 -3.567607 -2.120518 0
M  V30 54 H -0.806156 -5.276867 -1.413258 0
M  V30 55 H 0.742714 -3.193917 -0.225607 0
M  V30 56 H -0.066193 -4.525950 0.666985 0
M  V30 57 H -1.609679 -3.038178 1.476608 0
M  V30 58 H -0.654446 -1.642938 0.726161 0
M  V30 59 H 1.821743 -0.846508 -0.593515 0
M  V30 END ATOM
M  V30 BEGIN BOND
M  V30 1 2 1 2
M  V30 2 1 2 3
M  V30 3 1 3 4
M  V30 4 1 4 5
M  V30 5 1 5 6
M  V30 6 1 6 7
M  V30 7 1 7 8
M  V30 8 1 8 9
M  V30 9 2 9 10
M  V30 10 1 10 11
M  V30 11 2 11 12
M  V30 12 1 12 13
M  V30 13 1 13 14
M  V30 14 2 14 15
M  V30 15 1 15 16
M  V30 16 2 16 17
M  V30 17 1 17 18
M  V30 18 2 18 19
M  V30 19 1 19 20
M  V30 20 2 20 21
M  V30 21 1 21 22
M  V30 22 2 22 23
M  V30 23 1 23 24
M  V30 24 1 24 25
M  V30 25 1 25 26
M  V30 26 1 26 27
M  V30 27 1 27 28
M  V30 28 1 28 29
M  V30 29 1 24 30
M  V30 30 2 30 31
M  V30 31 1 12 32
M  V30 32 2 32 33
M  V30 33 1 7 2
M  V30 34 1 33 9
M  V30 35 1 31 14
M  V30 36 1 30 17
M  V30 37 1 23 18
M  V30 38 1 29 25
M  V30 39 1 3 34
M  V30 40 1 3 35
M  V30 41 1 4 36
M  V30 42 1 5 37
M  V30 43 1 5 38
M  V30 44 1 6 39
M  V30 45 1 6 40
M  V30 46 1 8 41
M  V30 47 1 8 42
M  V30 48 1 10 43
M  V30 49 1 11 44
M  V30 50 1 13 45
M  V30 51 1 16 46
M  V30 52 1 19 47
M  V30 53 1 20 48
M  V30 54 1 22 49
M  V30 55 1 25 50
M  V30 56 1 26 51
M  V30 57 1 26 52
M  V30 58 1 27 53
M  V30 59 1 27 54
M  V30 60 1 28 55
M  V30 61 1 28 56
M  V30 62 1 29 57
M  V30 63 1 29 58
M  V30 64 1 33 59
M  V30 END BOND
M  V30 END CTAB
M  END
>  <Dataset>  (127) 
ChEMBL_Kinases

>  <Ligand_Instance>  (127) 
nan

>  <PDB_ID>  (127) 
nan

>  <Standardized_SMILES>  (127) 
O=C1CNCCN1Cc1ccc(Nc2ncc3c4ccncc4n(C4CCCC4)c3n2)nc1

>  <Name>  (127) 
nan

>  <Pocket>  (127) 
nan

>  <ATP_Site>  (127) 
nan

>  <Peripheral>  (127) 
nan

>  <Num_H_Atoms_ProtBoundConf>  (127) 
nan

>  <Num_Resolved_Atoms>  (127) 
nan

>  <Num_Not_Resolved_Atoms>  (127) 
nan

$$$$
CHEMBL219849
     RDKit          3D

  0  0  0  0  0  0  0  0  0  0999 V3000
M  V30 BEGIN CTAB
M  V30 COUNTS 48 51 0 0 0
M  V30 BEGIN ATOM
M  V30 1 O 2.612191 -1.308300 2.708671 0
M  V30 2 C 1.785636 -0.546715 2.150622 0
M  V30 3 N 2.467655 0.382595 1.294909 0
M  V30 4 C 3.888590 0.479344 1.066418 0
M  V30 5 C 4.430087 1.852134 1.384147 0
M  V30 6 O 4.216401 2.203671 2.712766 0
M  V30 7 C 4.093987 0.234519 -0.386858 0
M  V30 8 C 4.910280 0.980081 -1.211662 0
M  V30 9 C 5.062292 0.705775 -2.552605 0
M  V30 10 C 4.388828 -0.349299 -3.136624 0
M  V30 11 C 3.556458 -1.123159 -2.334711 0
M  V30 12 F 2.918143 -2.142194 -2.944295 0
M  V30 13 C 3.432589 -0.812973 -0.992881 0
M  V30 14 C 0.328000 -0.505758 2.266850 0
M  V30 15 C -0.612410 0.298028 1.681139 0
M  V30 16 C -1.834691 -0.154513 2.194681 0
M  V30 17 C -3.126202 0.424826 1.837331 0
M  V30 18 N -3.539533 1.711636 2.032309 0
M  V30 19 N -4.765401 1.845528 1.575872 0
M  V30 20 C -5.210751 0.672109 1.066696 0
M  V30 21 C -4.169889 -0.248946 1.227429 0
M  V30 22 C -4.249547 -1.637265 0.805916 0
M  V30 23 C -5.275812 -2.305998 1.480684 0
M  V30 24 C -5.524503 -3.651903 1.223937 0
M  V30 25 C -4.756853 -4.330327 0.300864 0
M  V30 26 C -3.743694 -3.659882 -0.361664 0
M  V30 27 Cl -2.731117 -4.460461 -1.546244 0
M  V30 28 C -3.488346 -2.327545 -0.115703 0
M  V30 29 C -1.593202 -1.205716 3.064317 0
M  V30 30 N -0.245968 -1.403383 3.091250 0
M  V30 31 H 1.926618 1.109164 0.736650 0
M  V30 32 H 4.483724 -0.255964 1.622981 0
M  V30 33 H 5.540303 1.796400 1.268869 0
M  V30 34 H 4.055785 2.608939 0.665184 0
M  V30 35 H 4.831011 1.743815 3.306994 0
M  V30 36 H 5.442349 1.808061 -0.767458 0
M  V30 37 H 5.726329 1.345242 -3.128640 0
M  V30 38 H 4.580666 -0.474822 -4.195137 0
M  V30 39 H 2.770259 -1.465874 -0.460702 0
M  V30 40 H -0.380777 1.077453 0.993146 0
M  V30 41 H -2.973424 2.487841 2.478580 0
M  V30 42 H -6.199181 0.531856 0.629048 0
M  V30 43 H -5.950379 -1.891846 2.227188 0
M  V30 44 H -6.306648 -4.216604 1.718376 0
M  V30 45 H -4.951966 -5.391411 0.097774 0
M  V30 46 H -2.734201 -1.718056 -0.569672 0
M  V30 47 H -2.421594 -1.702851 3.574570 0
M  V30 48 H 0.081935 -2.174464 3.713414 0
M  V30 END ATOM
M  V30 BEGIN BOND
M  V30 1 2 1 2
M  V30 2 1 2 3
M  V30 3 1 3 4
M  V30 4 1 4 5
M  V30 5 1 5 6
M  V30 6 1 4 7
M  V30 7 2 7 8
M  V30 8 1 8 9
M  V30 9 2 9 10
M  V30 10 1 10 11
M  V30 11 1 11 12
M  V30 12 2 11 13
M  V30 13 1 2 14
M  V30 14 2 14 15
M  V30 15 1 15 16
M  V30 16 1 16 17
M  V30 17 1 17 18
M  V30 18 1 18 19
M  V30 19 2 19 20
M  V30 20 1 20 21
M  V30 21 1 21 22
M  V30 22 2 22 23
M  V30 23 1 23 24
M  V30 24 2 24 25
M  V30 25 1 25 26
M  V30 26 1 26 27
M  V30 27 2 26 28
M  V30 28 2 16 29
M  V30 29 1 29 30
M  V30 30 1 13 7
M  V30 31 1 30 14
M  V30 32 2 21 17
M  V30 33 1 28 22
M  V30 34 1 3 31
M  V30 35 1 4 32
M  V30 36 1 5 33
M  V30 37 1 5 34
M  V30 38 1 6 35
M  V30 39 1 8 36
M  V30 40 1 9 37
M  V30 41 1 10 38
M  V30 42 1 13 39
M  V30 43 1 15 40
M  V30 44 1 18 41
M  V30 45 1 20 42
M  V30 46 1 23 43
M  V30 47 1 24 44
M  V30 48 1 25 45
M  V30 49 1 28 46
M  V30 50 1 29 47
M  V30 51 1 30 48
M  V30 END BOND
M  V30 END CTAB
M  END
>  <Dataset>  (128) 
ChEMBL_Kinases

>  <Ligand_Instance>  (128) 
nan

>  <PDB_ID>  (128) 
nan

>  <Standardized_SMILES>  (128) 
O=C(NC(CO)c1cccc(F)c1)c1cc(-c2[nH]ncc2-c2cccc(Cl)c2)c[nH]1

>  <Name>  (128) 
nan

>  <Pocket>  (128) 
nan

>  <ATP_Site>  (128) 
nan

>  <Peripheral>  (128) 
nan

>  <Num_H_Atoms_ProtBoundConf>  (128) 
nan

>  <Num_Resolved_Atoms>  (128) 
nan

>  <Num_Not_Resolved_Atoms>  (128) 
nan

$$$$
CHEMBL2397524
     RDKit          3D

  0  0  0  0  0  0  0  0  0  0999 V3000
M  V30 BEGIN CTAB
M  V30 COUNTS 31 34 0 0 0
M  V30 BEGIN ATOM
M  V30 1 C -0.178097 -4.672207 3.173857 0
M  V30 2 O -1.352489 -4.202446 2.539541 0
M  V30 3 C -1.285570 -3.030469 1.799631 0
M  V30 4 C -2.528841 -2.730444 1.255367 0
M  V30 5 C -2.695555 -1.586042 0.467639 0
M  V30 6 C -1.592372 -0.782866 0.258421 0
M  V30 7 N -1.529739 0.354918 -0.461421 0
M  V30 8 C -0.263827 0.791006 -0.387981 0
M  V30 9 C 0.382762 1.890146 -0.919750 0
M  V30 10 N -0.304921 2.833116 -1.724719 0 CHG=1 VAL=4
M  V30 11 O -1.479790 3.257900 -1.752308 0
M  V30 12 O 0.433445 3.458673 -2.720923 0 CHG=-1 VAL=1
M  V30 13 C 1.733993 2.142751 -0.704730 0
M  V30 14 C 2.406219 1.215951 0.085193 0
M  V30 15 N 3.723893 1.261213 0.425664 0
M  V30 16 N 3.963193 0.184327 1.191716 0
M  V30 17 C 2.831216 -0.524397 1.333892 0
M  V30 18 C 1.822248 0.102350 0.643982 0
M  V30 19 C 0.483831 -0.087322 0.391566 0
M  V30 20 C -0.364200 -1.090479 0.803251 0
M  V30 21 C -0.208423 -2.216163 1.575846 0
M  V30 22 H 0.730177 -4.476931 2.594706 0
M  V30 23 H -0.097872 -4.082091 4.126894 0
M  V30 24 H -0.271802 -5.727464 3.497675 0
M  V30 25 H -3.454225 -3.309844 1.369315 0
M  V30 26 H -3.665531 -1.326558 0.026505 0
M  V30 27 H -2.254511 0.877683 -1.003962 0
M  V30 28 H 2.228679 2.996641 -1.120583 0
M  V30 29 H 4.520000 1.906674 0.230034 0
M  V30 30 H 2.731389 -1.429613 1.893687 0
M  V30 31 H 0.691356 -2.522326 2.027457 0
M  V30 END ATOM
M  V30 BEGIN BOND
M  V30 1 1 1 2
M  V30 2 1 2 3
M  V30 3 2 3 4
M  V30 4 1 4 5
M  V30 5 2 5 6
M  V30 6 1 6 7
M  V30 7 1 7 8
M  V30 8 2 8 9
M  V30 9 1 9 10
M  V30 10 2 10 11
M  V30 11 1 10 12
M  V30 12 1 9 13
M  V30 13 2 13 14
M  V30 14 1 14 15
M  V30 15 1 15 16
M  V30 16 2 16 17
M  V30 17 1 17 18
M  V30 18 2 18 19
M  V30 19 1 19 20
M  V30 20 2 20 21
M  V30 21 1 21 3
M  V30 22 1 20 6
M  V30 23 1 19 8
M  V30 24 1 18 14
M  V30 25 1 1 22
M  V30 26 1 1 23
M  V30 27 1 1 24
M  V30 28 1 4 25
M  V30 29 1 5 26
M  V30 30 1 7 27
M  V30 31 1 13 28
M  V30 32 1 15 29
M  V30 33 1 17 30
M  V30 34 1 21 31
M  V30 END BOND
M  V30 END CTAB
M  END
>  <Dataset>  (129) 
ChEMBL_Kinases

>  <Ligand_Instance>  (129) 
nan

>  <PDB_ID>  (129) 
nan

>  <Standardized_SMILES>  (129) 
COc1ccc2[nH]c3c([N+](=O)[O-])cc4[nH]ncc4c3c2c1

>  <Name>  (129) 
nan

>  <Pocket>  (129) 
nan

>  <ATP_Site>  (129) 
nan

>  <Peripheral>  (129) 
nan

>  <Num_H_Atoms_ProtBoundConf>  (129) 
nan

>  <Num_Resolved_Atoms>  (129) 
nan

>  <Num_Not_Resolved_Atoms>  (129) 
nan

$$$$
CHEMBL4571942
     RDKit          3D

  0  0  0  0  0  0  0  0  0  0999 V3000
M  V30 BEGIN CTAB
M  V30 COUNTS 48 51 0 0 0
M  V30 BEGIN ATOM
M  V30 1 C 3.217411 -4.270559 4.525982 0
M  V30 2 S 4.369682 -3.223767 3.599046 0
M  V30 3 C 3.511876 -1.874241 2.798622 0
M  V30 4 N 4.234162 -1.005487 2.068427 0
M  V30 5 C 3.397943 -0.080890 1.561892 0
M  V30 6 C 3.553379 1.094820 0.712279 0
M  V30 7 C 2.909080 1.075125 -0.529179 0
M  V30 8 C 3.036071 2.166790 -1.352005 0
M  V30 9 C 3.767382 3.274936 -1.008402 0
M  V30 10 F 3.860739 4.324761 -1.855766 0
M  V30 11 C 4.412813 3.307523 0.222590 0
M  V30 12 C 4.287332 2.213144 1.051010 0
M  V30 13 C 2.115513 -0.377243 1.985652 0
M  V30 14 C 0.763113 0.167222 1.832378 0
M  V30 15 C 0.577326 1.454335 2.349220 0
M  V30 16 C -0.673061 2.070116 2.257437 0
M  V30 17 N -1.709249 1.411382 1.662674 0
M  V30 18 C -1.526479 0.167488 1.164117 0
M  V30 19 N -2.558994 -0.573149 0.534210 0
M  V30 20 C -2.744340 -0.451772 -0.855822 0
M  V30 21 O -1.871044 0.369208 -1.299902 0
M  V30 22 C -3.829820 -1.235436 -1.492881 0
M  V30 23 C -3.498058 -2.706181 -1.203631 0
M  V30 24 C -4.811812 -3.395989 -1.496495 0
M  V30 25 C -5.862192 -2.342533 -1.254625 0
M  V30 26 O -7.041712 -2.613905 -1.466585 0
M  V30 27 C -5.146555 -1.106675 -0.769854 0
M  V30 28 C -0.321072 -0.464768 1.235474 0
M  V30 29 N 2.201331 -1.500054 2.757512 0
M  V30 30 H 2.176617 -3.952714 4.477262 0
M  V30 31 H 3.573649 -4.286412 5.595578 0
M  V30 32 H 3.269916 -5.315704 4.141700 0
M  V30 33 H 2.324980 0.201214 -0.814584 0
M  V30 34 H 2.511568 2.091588 -2.304763 0
M  V30 35 H 4.991021 4.179471 0.498398 0
M  V30 36 H 4.780473 2.194524 2.034519 0
M  V30 37 H 1.369640 2.010496 2.827271 0
M  V30 38 H -0.903322 3.055616 2.627439 0
M  V30 39 H -3.130521 -1.183410 1.191274 0
M  V30 40 H -3.909813 -1.120831 -2.572305 0
M  V30 41 H -3.277999 -2.851592 -0.136133 0
M  V30 42 H -2.660973 -3.056771 -1.846637 0
M  V30 43 H -4.952035 -4.270890 -0.855914 0
M  V30 44 H -4.806585 -3.725437 -2.543707 0
M  V30 45 H -4.969535 -1.254633 0.307428 0
M  V30 46 H -5.704077 -0.203919 -1.025180 0
M  V30 47 H -0.086129 -1.450037 0.866941 0
M  V30 48 H 1.526382 -2.101974 3.292764 0
M  V30 END ATOM
M  V30 BEGIN BOND
M  V30 1 1 1 2
M  V30 2 1 2 3
M  V30 3 2 3 4
M  V30 4 1 4 5
M  V30 5 1 5 6
M  V30 6 2 6 7
M  V30 7 1 7 8
M  V30 8 2 8 9
M  V30 9 1 9 10
M  V30 10 1 9 11
M  V30 11 2 11 12
M  V30 12 2 5 13
M  V30 13 1 13 14
M  V30 14 2 14 15
M  V30 15 1 15 16
M  V30 16 2 16 17
M  V30 17 1 17 18
M  V30 18 1 18 19
M  V30 19 1 19 20
M  V30 20 2 20 21
M  V30 21 1 20 22
M  V30 22 1 22 23
M  V30 23 1 23 24
M  V30 24 1 24 25
M  V30 25 2 25 26
M  V30 26 1 25 27
M  V30 27 2 18 28
M  V30 28 1 13 29
M  V30 29 1 29 3
M  V30 30 1 12 6
M  V30 31 1 28 14
M  V30 32 1 27 22
M  V30 33 1 1 30
M  V30 34 1 1 31
M  V30 35 1 1 32
M  V30 36 1 7 33
M  V30 37 1 8 34
M  V30 38 1 11 35
M  V30 39 1 12 36
M  V30 40 1 15 37
M  V30 41 1 16 38
M  V30 42 1 19 39
M  V30 43 1 22 40
M  V30 44 1 23 41
M  V30 45 1 23 42
M  V30 46 1 24 43
M  V30 47 1 24 44
M  V30 48 1 27 45
M  V30 49 1 27 46
M  V30 50 1 28 47
M  V30 51 1 29 48
M  V30 END BOND
M  V30 END CTAB
M  END
>  <Dataset>  (130) 
ChEMBL_Kinases

>  <Ligand_Instance>  (130) 
nan

>  <PDB_ID>  (130) 
nan

>  <Standardized_SMILES>  (130) 
CSc1nc(-c2ccc(F)cc2)c(-c2ccnc(NC(=O)C3CCC(=O)C3)c2)[nH]1

>  <Name>  (130) 
nan

>  <Pocket>  (130) 
nan

>  <ATP_Site>  (130) 
nan

>  <Peripheral>  (130) 
nan

>  <Num_H_Atoms_ProtBoundConf>  (130) 
nan

>  <Num_Resolved_Atoms>  (130) 
nan

>  <Num_Not_Resolved_Atoms>  (130) 
nan

$$$$
CHEMBL2397525
     RDKit          3D

  0  0  0  0  0  0  0  0  0  0999 V3000
M  V30 BEGIN CTAB
M  V30 COUNTS 27 30 0 0 0
M  V30 BEGIN ATOM
M  V30 1 O 2.183903 1.139055 4.441430 0
M  V30 2 N 1.243171 0.565958 3.903975 0 CHG=1 VAL=4
M  V30 3 O 0.067975 0.488736 4.629482 0 CHG=-1 VAL=1
M  V30 4 C 1.413568 0.019120 2.583032 0
M  V30 5 C 2.649867 -0.386942 2.119820 0
M  V30 6 C 2.844542 -0.915386 0.859932 0
M  V30 7 N 3.951768 -1.359697 0.236764 0
M  V30 8 N 3.541616 -1.750390 -0.951927 0
M  V30 9 C 2.220678 -1.574826 -1.114732 0
M  V30 10 C 1.746424 -1.033115 0.049952 0
M  V30 11 C 0.518725 -0.630950 0.507596 0
M  V30 12 C 0.292070 -0.099936 1.758353 0
M  V30 13 N -1.011086 0.195142 1.910327 0
M  V30 14 C -1.655545 -0.134996 0.769225 0
M  V30 15 C -3.002327 0.002817 0.498613 0
M  V30 16 C -3.455309 -0.400875 -0.741010 0
M  V30 17 C -2.550701 -0.924010 -1.658305 0
M  V30 18 Cl -3.179795 -1.419502 -3.216216 0
M  V30 19 C -1.219575 -1.029628 -1.313579 0
M  V30 20 C -0.713631 -0.644738 -0.097110 0
M  V30 21 H 3.489939 -0.275603 2.799768 0
M  V30 22 H 4.933104 -1.397047 0.593896 0
M  V30 23 H 1.688866 -1.832947 -2.013502 0
M  V30 24 H -1.382175 0.607656 2.795295 0
M  V30 25 H -3.688409 0.405976 1.209686 0
M  V30 26 H -4.491396 -0.317669 -1.006425 0
M  V30 27 H -0.590610 -1.440565 -2.076105 0
M  V30 END ATOM
M  V30 BEGIN BOND
M  V30 1 2 1 2
M  V30 2 1 2 3
M  V30 3 1 2 4
M  V30 4 2 4 5
M  V30 5 1 5 6
M  V30 6 1 6 7
M  V30 7 1 7 8
M  V30 8 2 8 9
M  V30 9 1 9 10
M  V30 10 1 10 11
M  V30 11 2 11 12
M  V30 12 1 12 13
M  V30 13 1 13 14
M  V30 14 2 14 15
M  V30 15 1 15 16
M  V30 16 2 16 17
M  V30 17 1 17 18
M  V30 18 1 17 19
M  V30 19 2 19 20
M  V30 20 1 12 4
M  V30 21 1 20 14
M  V30 22 2 10 6
M  V30 23 1 20 11
M  V30 24 1 5 21
M  V30 25 1 7 22
M  V30 26 1 9 23
M  V30 27 1 13 24
M  V30 28 1 15 25
M  V30 29 1 16 26
M  V30 30 1 19 27
M  V30 END BOND
M  V30 END CTAB
M  END
>  <Dataset>  (131) 
ChEMBL_Kinases

>  <Ligand_Instance>  (131) 
nan

>  <PDB_ID>  (131) 
nan

>  <Standardized_SMILES>  (131) 
O=[N+]([O-])c1cc2[nH]ncc2c2c1[nH]c1ccc(Cl)cc12

>  <Name>  (131) 
nan

>  <Pocket>  (131) 
nan

>  <ATP_Site>  (131) 
nan

>  <Peripheral>  (131) 
nan

>  <Num_H_Atoms_ProtBoundConf>  (131) 
nan

>  <Num_Resolved_Atoms>  (131) 
nan

>  <Num_Not_Resolved_Atoms>  (131) 
nan

$$$$
CHEMBL219788
     RDKit          3D

  0  0  0  0  0  0  0  0  0  0999 V3000
M  V30 BEGIN CTAB
M  V30 COUNTS 57 62 0 0 0
M  V30 BEGIN ATOM
M  V30 1 O 6.894089 -2.810677 1.430949 0
M  V30 2 C 6.924413 -3.274067 0.126025 0
M  V30 3 C 7.408325 -2.206235 -0.758468 0
M  V30 4 N 8.668247 -2.195258 -1.269401 0
M  V30 5 N 8.746529 -1.123822 -2.004997 0
M  V30 6 N 7.607905 -0.471847 -1.978035 0
M  V30 7 C 6.694883 -1.116570 -1.188983 0
M  V30 8 C 5.345896 -0.648068 -0.971645 0
M  V30 9 C 4.366182 -1.162333 -0.171546 0
M  V30 10 C 3.097301 -0.651639 -0.045143 0
M  V30 11 C 2.728140 0.461924 -0.754293 0
M  V30 12 C 1.559503 1.175607 -0.827420 0
M  V30 13 C 0.281053 1.001621 -0.170334 0
M  V30 14 C -0.261831 0.127885 0.729261 0
M  V30 15 C -1.573626 0.432879 1.029321 0
M  V30 16 C -2.493265 -0.166778 1.871270 0
M  V30 17 C -3.779091 0.378754 1.975119 0
M  V30 18 C -4.693526 -0.328513 2.899356 0
M  V30 19 N -5.477418 -1.353549 2.380971 0
M  V30 20 C -6.392023 -1.095118 1.360751 0
M  V30 21 C -5.923326 -1.695164 0.075201 0
M  V30 22 C -5.645155 -3.164611 0.162368 0
M  V30 23 F -6.835130 -3.798028 -0.170986 0
M  V30 24 C -5.168184 -3.647114 1.486039 0
M  V30 25 C -5.119480 -2.686525 2.606670 0
M  V30 26 C -4.066538 1.499587 1.223420 0
M  V30 27 C -3.120491 2.067722 0.395137 0
M  V30 28 C -1.843077 1.557376 0.267612 0
M  V30 29 N -0.728702 1.857536 -0.421100 0
M  V30 30 N 1.846202 2.153726 -1.701858 0
M  V30 31 N 3.088179 2.063116 -2.140876 0
M  V30 32 C 3.689221 1.008830 -1.571478 0
M  V30 33 C 4.951446 0.475996 -1.677945 0
M  V30 34 H 7.146722 -1.868519 1.511861 0
M  V30 35 H 7.687740 -4.121656 0.156812 0
M  V30 36 H 5.952140 -3.702641 -0.159732 0
M  V30 37 H 7.549803 0.409537 -2.534059 0
M  V30 38 H 4.571259 -2.015719 0.412817 0
M  V30 39 H 2.388665 -1.111368 0.601333 0
M  V30 40 H 0.244070 -0.692310 1.158084 0
M  V30 41 H -2.208734 -1.047730 2.437935 0
M  V30 42 H -5.379128 0.449307 3.348009 0
M  V30 43 H -4.112521 -0.704778 3.762659 0
M  V30 44 H -6.645867 -0.048288 1.214806 0
M  V30 45 H -7.361931 -1.614179 1.614385 0
M  V30 46 H -6.722287 -1.479813 -0.674564 0
M  V30 47 H -5.038555 -1.119222 -0.268608 0
M  V30 48 H -4.940180 -3.412088 -0.659624 0
M  V30 49 H -5.737308 -4.578561 1.765713 0
M  V30 50 H -4.123176 -4.051334 1.339597 0
M  V30 51 H -4.110366 -2.674698 3.119201 0
M  V30 52 H -5.787650 -3.059753 3.441382 0
M  V30 53 H -5.069593 1.889930 1.331294 0
M  V30 54 H -3.366432 2.944696 -0.184923 0
M  V30 55 H -0.792249 2.695626 -1.044671 0
M  V30 56 H 3.525331 2.716036 -2.824912 0
M  V30 57 H 5.615609 1.017130 -2.368665 0
M  V30 END ATOM
M  V30 BEGIN BOND
M  V30 1 1 1 2
M  V30 2 1 2 3
M  V30 3 1 3 4
M  V30 4 2 4 5
M  V30 5 1 5 6
M  V30 6 1 6 7
M  V30 7 1 7 8
M  V30 8 2 8 9
M  V30 9 1 9 10
M  V30 10 2 10 11
M  V30 11 1 11 12
M  V30 12 1 12 13
M  V30 13 2 13 14
M  V30 14 1 14 15
M  V30 15 2 15 16
M  V30 16 1 16 17
M  V30 17 1 17 18
M  V30 18 1 18 19
M  V30 19 1 19 20
M  V30 20 1 20 21
M  V30 21 1 21 22
M  V30 22 1 22 23
M  V30 23 1 22 24
M  V30 24 1 24 25
M  V30 25 2 17 26
M  V30 26 1 26 27
M  V30 27 2 27 28
M  V30 28 1 28 29
M  V30 29 2 12 30
M  V30 30 1 30 31
M  V30 31 1 31 32
M  V30 32 2 32 33
M  V30 33 2 7 3
M  V30 34 1 33 8
M  V30 35 1 32 11
M  V30 36 1 29 13
M  V30 37 1 28 15
M  V30 38 1 25 19
M  V30 39 1 1 34
M  V30 40 1 2 35
M  V30 41 1 2 36
M  V30 42 1 6 37
M  V30 43 1 9 38
M  V30 44 1 10 39
M  V30 45 1 14 40
M  V30 46 1 16 41
M  V30 47 1 18 42
M  V30 48 1 18 43
M  V30 49 1 20 44
M  V30 50 1 20 45
M  V30 51 1 21 46
M  V30 52 1 21 47
M  V30 53 1 22 48
M  V30 54 1 24 49
M  V30 55 1 24 50
M  V30 56 1 25 51
M  V30 57 1 25 52
M  V30 58 1 26 53
M  V30 59 1 27 54
M  V30 60 1 29 55
M  V30 61 1 31 56
M  V30 62 1 33 57
M  V30 END BOND
M  V30 END CTAB
M  END
>  <Dataset>  (132) 
ChEMBL_Kinases

>  <Ligand_Instance>  (132) 
nan

>  <PDB_ID>  (132) 
nan

>  <Standardized_SMILES>  (132) 
OCc1nn[nH]c1-c1ccc2c(-c3cc4cc(CN5CCC(F)CC5)ccc4[nH]3)n[nH]c2c1

>  <Name>  (132) 
nan

>  <Pocket>  (132) 
nan

>  <ATP_Site>  (132) 
nan

>  <Peripheral>  (132) 
nan

>  <Num_H_Atoms_ProtBoundConf>  (132) 
nan

>  <Num_Resolved_Atoms>  (132) 
nan

>  <Num_Not_Resolved_Atoms>  (132) 
nan

$$$$
CHEMBL2397528
     RDKit          3D

  0  0  0  0  0  0  0  0  0  0999 V3000
M  V30 BEGIN CTAB
M  V30 COUNTS 27 30 0 0 0
M  V30 BEGIN ATOM
M  V30 1 N -1.383299 -3.739982 0.426972 0
M  V30 2 C -0.450609 -2.809182 0.942416 0
M  V30 3 C 0.455820 -3.102689 1.936646 0
M  V30 4 C 1.357508 -2.146356 2.411732 0
M  V30 5 N 2.301692 -2.250413 3.364346 0
M  V30 6 N 2.841529 -1.050059 3.390313 0
M  V30 7 C 2.296298 -0.212283 2.520035 0
M  V30 8 C 1.309812 -0.891927 1.849317 0
M  V30 9 C 0.424419 -0.558110 0.858761 0
M  V30 10 C -0.454548 -1.520778 0.408171 0
M  V30 11 N -1.194792 -0.916088 -0.554054 0
M  V30 12 C -0.786033 0.377276 -0.692688 0
M  V30 13 C -1.239817 1.372923 -1.539862 0
M  V30 14 C -0.676038 2.633736 -1.515726 0
M  V30 15 C 0.365218 2.921980 -0.631092 0
M  V30 16 Cl 1.118103 4.497379 -0.554296 0
M  V30 17 C 0.774239 1.894307 0.186135 0
M  V30 18 C 0.239749 0.629497 0.191870 0
M  V30 19 H -1.144079 -4.648372 -0.008135 0
M  V30 20 H -2.389687 -3.507270 0.482587 0
M  V30 21 H 0.419901 -4.131946 2.325797 0
M  V30 22 H 2.491022 -3.121882 3.905563 0
M  V30 23 H 2.642105 0.801643 2.435817 0
M  V30 24 H -1.957309 -1.357832 -1.106915 0
M  V30 25 H -2.060374 1.150846 -2.239102 0
M  V30 26 H -1.026120 3.416659 -2.175394 0
M  V30 27 H 1.570948 2.124559 0.859020 0
M  V30 END ATOM
M  V30 BEGIN BOND
M  V30 1 1 1 2
M  V30 2 2 2 3
M  V30 3 1 3 4
M  V30 4 1 4 5
M  V30 5 1 5 6
M  V30 6 2 6 7
M  V30 7 1 7 8
M  V30 8 1 8 9
M  V30 9 2 9 10
M  V30 10 1 10 11
M  V30 11 1 11 12
M  V30 12 2 12 13
M  V30 13 1 13 14
M  V30 14 2 14 15
M  V30 15 1 15 16
M  V30 16 1 15 17
M  V30 17 2 17 18
M  V30 18 1 10 2
M  V30 19 1 18 12
M  V30 20 2 8 4
M  V30 21 1 18 9
M  V30 22 1 1 19
M  V30 23 1 1 20
M  V30 24 1 3 21
M  V30 25 1 5 22
M  V30 26 1 7 23
M  V30 27 1 11 24
M  V30 28 1 13 25
M  V30 29 1 14 26
M  V30 30 1 17 27
M  V30 END BOND
M  V30 END CTAB
M  END
>  <Dataset>  (133) 
ChEMBL_Kinases

>  <Ligand_Instance>  (133) 
nan

>  <PDB_ID>  (133) 
nan

>  <Standardized_SMILES>  (133) 
Nc1cc2[nH]ncc2c2c1[nH]c1ccc(Cl)cc12

>  <Name>  (133) 
nan

>  <Pocket>  (133) 
nan

>  <ATP_Site>  (133) 
nan

>  <Peripheral>  (133) 
nan

>  <Num_H_Atoms_ProtBoundConf>  (133) 
nan

>  <Num_Resolved_Atoms>  (133) 
nan

>  <Num_Not_Resolved_Atoms>  (133) 
nan

$$$$
CHEMBL4572019
     RDKit          3D

  0  0  0  0  0  0  0  0  0  0999 V3000
M  V30 BEGIN CTAB
M  V30 COUNTS 38 40 0 0 0
M  V30 BEGIN ATOM
M  V30 1 C -1.646191 -3.708176 -0.008897 0
M  V30 2 C -0.718559 -3.340890 1.172987 0 CFG=2
M  V30 3 N -0.757653 -1.883256 1.346750 0
M  V30 4 C -2.187015 -1.579333 1.518524 0
M  V30 5 C 0.087664 -0.736116 1.419961 0
M  V30 6 N -0.057282 0.019472 0.290438 0
M  V30 7 C 0.678257 1.158149 0.142317 0
M  V30 8 C 0.590552 2.025270 -1.026154 0
M  V30 9 C -0.298498 1.660990 -2.043921 0
M  V30 10 C -0.348165 2.510301 -3.129275 0
M  V30 11 N 0.376795 3.632790 -3.275560 0
M  V30 12 C 1.241344 3.981075 -2.278799 0
M  V30 13 C 1.340571 3.175209 -1.164074 0
M  V30 14 N 1.534313 1.519280 1.110288 0
M  V30 15 C 1.693552 0.795876 2.226229 0
M  V30 16 C 2.546072 1.092331 3.282826 0
M  V30 17 N 2.635978 0.310603 4.370938 0
M  V30 18 C 1.890721 -0.825286 4.500502 0
M  V30 19 C 1.021010 -1.187610 3.493821 0
M  V30 20 C 0.967223 -0.357007 2.406225 0
M  V30 21 C 0.633149 -3.848484 0.761352 0
M  V30 22 F 1.636164 -3.648363 1.650298 0
M  V30 23 F 0.493932 -5.237462 0.637299 0
M  V30 24 F 0.934896 -3.401051 -0.512159 0
M  V30 25 H -2.672528 -3.861863 0.338917 0
M  V30 26 H -1.584228 -2.910592 -0.773864 0
M  V30 27 H -1.256743 -4.629236 -0.515209 0
M  V30 28 H -1.127378 -3.848085 2.051186 0
M  V30 29 H -2.682871 -1.845479 0.563239 0
M  V30 30 H -2.635554 -2.198152 2.335211 0
M  V30 31 H -2.356914 -0.503975 1.677222 0
M  V30 32 H -0.921601 0.788410 -2.027239 0
M  V30 33 H -0.998732 2.348973 -3.998469 0
M  V30 34 H 1.891848 4.850226 -2.246772 0
M  V30 35 H 2.007836 3.388749 -0.329399 0
M  V30 36 H 3.145597 2.009786 3.174140 0
M  V30 37 H 1.973682 -1.446879 5.385256 0
M  V30 38 H 0.403476 -2.091330 3.556046 0
M  V30 END ATOM
M  V30 BEGIN BOND
M  V30 1 1 1 2
M  V30 2 1 2 3
M  V30 3 1 3 4
M  V30 4 1 3 5
M  V30 5 2 5 6
M  V30 6 1 6 7
M  V30 7 1 7 8
M  V30 8 2 8 9
M  V30 9 1 9 10
M  V30 10 2 10 11
M  V30 11 1 11 12
M  V30 12 2 12 13
M  V30 13 2 7 14
M  V30 14 1 14 15
M  V30 15 2 15 16
M  V30 16 1 16 17
M  V30 17 2 17 18
M  V30 18 1 18 19
M  V30 19 2 19 20
M  V30 20 1 2 21
M  V30 21 1 21 22
M  V30 22 1 21 23
M  V30 23 1 21 24
M  V30 24 1 20 5
M  V30 25 1 13 8
M  V30 26 1 20 15
M  V30 27 1 1 25
M  V30 28 1 1 26
M  V30 29 1 1 27
M  V30 30 1 2 28 CFG=1
M  V30 31 1 4 29
M  V30 32 1 4 30
M  V30 33 1 4 31
M  V30 34 1 9 32
M  V30 35 1 10 33
M  V30 36 1 12 34
M  V30 37 1 13 35
M  V30 38 1 16 36
M  V30 39 1 18 37
M  V30 40 1 19 38
M  V30 END BOND
M  V30 END CTAB
M  END
>  <Dataset>  (134) 
ChEMBL_Kinases

>  <Ligand_Instance>  (134) 
nan

>  <PDB_ID>  (134) 
nan

>  <Standardized_SMILES>  (134) 
C[C@H](N(C)c1nc(-c2ccncc2)nc2cnccc12)C(F)(F)F

>  <Name>  (134) 
nan

>  <Pocket>  (134) 
nan

>  <ATP_Site>  (134) 
nan

>  <Peripheral>  (134) 
nan

>  <Num_H_Atoms_ProtBoundConf>  (134) 
nan

>  <Num_Resolved_Atoms>  (134) 
nan

>  <Num_Not_Resolved_Atoms>  (134) 
nan

$$$$
CHEMBL219790
     RDKit          3D

  0  0  0  0  0  0  0  0  0  0999 V3000
M  V30 BEGIN CTAB
M  V30 COUNTS 48 51 0 0 0
M  V30 BEGIN ATOM
M  V30 1 O -0.356146 1.368626 3.431940 0
M  V30 2 C 0.003783 0.842271 2.366013 0
M  V30 3 N 1.367350 1.049857 2.021490 0
M  V30 4 C 2.383137 1.803809 2.771267 0
M  V30 5 C 3.506851 0.824464 3.038033 0
M  V30 6 O 3.045551 -0.265226 3.783618 0
M  V30 7 C 2.889218 2.884828 1.892270 0
M  V30 8 C 1.827709 3.527251 1.254644 0
M  V30 9 C 2.032049 4.588535 0.366823 0
M  V30 10 C 3.326730 4.986491 0.136892 0
M  V30 11 F 3.614265 5.993944 -0.697870 0
M  V30 12 C 4.387510 4.355091 0.765058 0
M  V30 13 F 5.671714 4.711920 0.569100 0
M  V30 14 C 4.175614 3.311051 1.637518 0
M  V30 15 C -0.799303 0.048079 1.441440 0
M  V30 16 C -0.526140 -0.591979 0.241204 0
M  V30 17 C -1.707473 -1.204172 -0.196193 0
M  V30 18 C -1.753354 -1.965985 -1.439777 0
M  V30 19 N -1.469231 -1.388083 -2.637890 0
M  V30 20 N -1.580712 -2.281019 -3.588702 0
M  V30 21 C -1.938707 -3.484996 -3.094355 0
M  V30 22 C -2.050164 -3.286392 -1.717396 0
M  V30 23 C -2.407771 -4.212980 -0.647903 0
M  V30 24 C -3.692961 -4.700304 -0.860123 0
M  V30 25 C -4.289268 -5.608470 0.015333 0
M  V30 26 C -3.547991 -6.020321 1.127363 0
M  V30 27 C -2.276034 -5.524418 1.318039 0
M  V30 28 Cl -1.299437 -6.002778 2.691862 0
M  V30 29 C -1.693684 -4.634852 0.459166 0
M  V30 30 C -2.659631 -0.912266 0.758914 0
M  V30 31 N -2.115554 -0.160145 1.743194 0
M  V30 32 H 1.758767 0.643895 1.140906 0
M  V30 33 H 1.936500 2.206944 3.697435 0
M  V30 34 H 4.364334 1.327443 3.559113 0
M  V30 35 H 3.845591 0.430911 2.064182 0
M  V30 36 H 3.397775 -1.127304 3.393765 0
M  V30 37 H 0.755990 3.300397 1.357567 0
M  V30 38 H 1.247796 5.107981 -0.142215 0
M  V30 39 H 4.901442 2.736636 2.188683 0
M  V30 40 H 0.463103 -0.534334 -0.150484 0
M  V30 41 H -1.197463 -0.385197 -2.824779 0
M  V30 42 H -2.123263 -4.445945 -3.565983 0
M  V30 43 H -4.374520 -4.467206 -1.674470 0
M  V30 44 H -5.265560 -6.024651 -0.080220 0
M  V30 45 H -3.956705 -6.718172 1.835163 0
M  V30 46 H -0.722188 -4.179431 0.495267 0
M  V30 47 H -3.672533 -1.257452 0.683291 0
M  V30 48 H -2.682960 0.166445 2.566533 0
M  V30 END ATOM
M  V30 BEGIN BOND
M  V30 1 2 1 2
M  V30 2 1 2 3
M  V30 3 1 3 4
M  V30 4 1 4 5
M  V30 5 1 5 6
M  V30 6 1 4 7
M  V30 7 2 7 8
M  V30 8 1 8 9
M  V30 9 2 9 10
M  V30 10 1 10 11
M  V30 11 1 10 12
M  V30 12 1 12 13
M  V30 13 2 12 14
M  V30 14 1 2 15
M  V30 15 2 15 16
M  V30 16 1 16 17
M  V30 17 1 17 18
M  V30 18 1 18 19
M  V30 19 1 19 20
M  V30 20 2 20 21
M  V30 21 1 21 22
M  V30 22 1 22 23
M  V30 23 2 23 24
M  V30 24 1 24 25
M  V30 25 2 25 26
M  V30 26 1 26 27
M  V30 27 1 27 28
M  V30 28 2 27 29
M  V30 29 2 17 30
M  V30 30 1 30 31
M  V30 31 1 14 7
M  V30 32 1 31 15
M  V30 33 2 22 18
M  V30 34 1 29 23
M  V30 35 1 3 32
M  V30 36 1 4 33
M  V30 37 1 5 34
M  V30 38 1 5 35
M  V30 39 1 6 36
M  V30 40 1 8 37
M  V30 41 1 9 38
M  V30 42 1 14 39
M  V30 43 1 16 40
M  V30 44 1 19 41
M  V30 45 1 21 42
M  V30 46 1 24 43
M  V30 47 1 25 44
M  V30 48 1 26 45
M  V30 49 1 29 46
M  V30 50 1 30 47
M  V30 51 1 31 48
M  V30 END BOND
M  V30 END CTAB
M  END
>  <Dataset>  (135) 
ChEMBL_Kinases

>  <Ligand_Instance>  (135) 
nan

>  <PDB_ID>  (135) 
nan

>  <Standardized_SMILES>  (135) 
O=C(NC(CO)c1ccc(F)c(F)c1)c1cc(-c2[nH]ncc2-c2cccc(Cl)c2)c[nH]1

>  <Name>  (135) 
nan

>  <Pocket>  (135) 
nan

>  <ATP_Site>  (135) 
nan

>  <Peripheral>  (135) 
nan

>  <Num_H_Atoms_ProtBoundConf>  (135) 
nan

>  <Num_Resolved_Atoms>  (135) 
nan

>  <Num_Not_Resolved_Atoms>  (135) 
nan

$$$$
CHEMBL3703179
     RDKit          3D

  0  0  0  0  0  0  0  0  0  0999 V3000
M  V30 BEGIN CTAB
M  V30 COUNTS 37 39 0 0 0
M  V30 BEGIN ATOM
M  V30 1 C -1.987375 -3.923750 3.398138 0
M  V30 2 S -0.252464 -4.462441 3.453173 0
M  V30 3 C 0.781039 -3.324860 2.548223 0
M  V30 4 N 2.096409 -3.578513 2.490471 0
M  V30 5 C 2.930427 -2.751360 1.818622 0
M  V30 6 C 2.419784 -1.621822 1.178110 0
M  V30 7 C 1.065981 -1.404853 1.265890 0
M  V30 8 N 0.248493 -2.237888 1.938753 0
M  V30 9 C 0.556216 -0.218538 0.588481 0
M  V30 10 C 1.455754 0.568620 -0.068888 0
M  V30 11 C 0.722492 1.602731 -0.610631 0
M  V30 12 C 1.254209 2.703543 -1.407874 0
M  V30 13 N 0.364862 3.690842 -1.893107 0
M  V30 14 O 2.467744 2.832265 -1.694748 0
M  V30 15 C -0.579703 1.400932 -0.262006 0
M  V30 16 N -0.677226 0.293995 0.466196 0
M  V30 17 C -1.906428 -0.236301 1.013768 0
M  V30 18 C -2.563906 -1.197753 0.029599 0
M  V30 19 O -2.840665 -0.508036 -1.136953 0
M  V30 20 C 2.923423 0.392794 -0.202643 0
M  V30 21 C 3.437996 -0.821161 0.492640 0
M  V30 22 H -2.067307 -2.814395 3.312717 0
M  V30 23 H -2.523576 -4.382665 2.531851 0
M  V30 24 H -2.536466 -4.200386 4.321948 0
M  V30 25 H 3.997951 -3.021119 1.812833 0
M  V30 26 H -0.280939 4.410412 -2.242996 0
M  V30 27 H -0.250482 3.834233 -2.731783 0
M  V30 28 H -1.397791 2.056511 -0.546080 0
M  V30 29 H -1.658471 -0.774891 1.928606 0
M  V30 30 H -2.597374 0.592775 1.251501 0
M  V30 31 H -1.865795 -2.041596 -0.112278 0
M  V30 32 H -3.487382 -1.585473 0.489321 0
M  V30 33 H -2.323139 -0.906991 -1.889270 0
M  V30 34 H 3.393564 1.336484 0.184041 0
M  V30 35 H 3.127879 0.313410 -1.290269 0
M  V30 36 H 3.966551 -1.478922 -0.236512 0
M  V30 37 H 4.183359 -0.492255 1.254128 0
M  V30 END ATOM
M  V30 BEGIN BOND
M  V30 1 1 1 2
M  V30 2 1 2 3
M  V30 3 2 3 4
M  V30 4 1 4 5
M  V30 5 2 5 6
M  V30 6 1 6 7
M  V30 7 2 7 8
M  V30 8 1 7 9
M  V30 9 2 9 10
M  V30 10 1 10 11
M  V30 11 1 11 12
M  V30 12 1 12 13
M  V30 13 2 12 14
M  V30 14 2 11 15
M  V30 15 1 15 16
M  V30 16 1 16 17
M  V30 17 1 17 18
M  V30 18 1 18 19
M  V30 19 1 10 20
M  V30 20 1 20 21
M  V30 21 1 8 3
M  V30 22 1 16 9
M  V30 23 1 21 6
M  V30 24 1 1 22
M  V30 25 1 1 23
M  V30 26 1 1 24
M  V30 27 1 5 25
M  V30 28 1 13 26
M  V30 29 1 13 27
M  V30 30 1 15 28
M  V30 31 1 17 29
M  V30 32 1 17 30
M  V30 33 1 18 31
M  V30 34 1 18 32
M  V30 35 1 19 33
M  V30 36 1 20 34
M  V30 37 1 20 35
M  V30 38 1 21 36
M  V30 39 1 21 37
M  V30 END BOND
M  V30 END CTAB
M  END
>  <Dataset>  (136) 
ChEMBL_Kinases

>  <Ligand_Instance>  (136) 
nan

>  <PDB_ID>  (136) 
nan

>  <Standardized_SMILES>  (136) 
CSc1ncc2c(n1)-c1c(c(C(N)=O)cn1CCO)CC2

>  <Name>  (136) 
nan

>  <Pocket>  (136) 
nan

>  <ATP_Site>  (136) 
nan

>  <Peripheral>  (136) 
nan

>  <Num_H_Atoms_ProtBoundConf>  (136) 
nan

>  <Num_Resolved_Atoms>  (136) 
nan

>  <Num_Not_Resolved_Atoms>  (136) 
nan

$$$$
CHEMBL2397598
     RDKit          3D

  0  0  0  0  0  0  0  0  0  0999 V3000
M  V30 BEGIN CTAB
M  V30 COUNTS 27 30 0 0 0
M  V30 BEGIN ATOM
M  V30 1 O 2.776308 -0.321347 4.524666 0
M  V30 2 N 2.026684 -0.724155 3.623397 0 CHG=1 VAL=4
M  V30 3 O 1.283483 -1.561021 4.418433 0 CHG=-1 VAL=1
M  V30 4 C 1.904420 -0.469893 2.241058 0
M  V30 5 C 2.962068 -0.074001 1.447145 0
M  V30 6 C 2.724344 0.148196 0.097066 0
M  V30 7 C 3.611658 0.548987 -0.907124 0
M  V30 8 N 2.826799 0.595610 -1.989967 0
M  V30 9 N 1.583867 0.260977 -1.698352 0
M  V30 10 C 1.457689 -0.030273 -0.404539 0
M  V30 11 C 0.403787 -0.424281 0.383923 0
M  V30 12 C 0.628286 -0.647857 1.726569 0
M  V30 13 N -0.568689 -1.013394 2.215867 0
M  V30 14 C -1.508188 -1.025419 1.249348 0
M  V30 15 C -2.845366 -1.347809 1.370477 0
M  V30 16 C -3.642655 -1.301053 0.268236 0
M  V30 17 C -3.045104 -0.924304 -0.928901 0
M  V30 18 C -1.707618 -0.605331 -1.033380 0
M  V30 19 C -0.897292 -0.650272 0.073608 0
M  V30 20 H 3.938965 0.044728 1.926439 0
M  V30 21 H 4.663596 0.751268 -0.756902 0
M  V30 22 H 0.907244 0.268992 -2.473367 0
M  V30 23 H -0.707494 -1.248825 3.219760 0
M  V30 24 H -3.283494 -1.640335 2.328214 0
M  V30 25 H -4.688551 -1.554138 0.366913 0
M  V30 26 H -3.665765 -0.879608 -1.827749 0
M  V30 27 H -1.293325 -0.319806 -1.982601 0
M  V30 END ATOM
M  V30 BEGIN BOND
M  V30 1 2 1 2
M  V30 2 1 2 3
M  V30 3 1 2 4
M  V30 4 2 4 5
M  V30 5 1 5 6
M  V30 6 1 6 7
M  V30 7 2 7 8
M  V30 8 1 8 9
M  V30 9 1 9 10
M  V30 10 1 10 11
M  V30 11 2 11 12
M  V30 12 1 12 13
M  V30 13 1 13 14
M  V30 14 2 14 15
M  V30 15 1 15 16
M  V30 16 2 16 17
M  V30 17 1 17 18
M  V30 18 2 18 19
M  V30 19 1 12 4
M  V30 20 1 19 14
M  V30 21 2 10 6
M  V30 22 1 19 11
M  V30 23 1 5 20
M  V30 24 1 7 21
M  V30 25 1 9 22
M  V30 26 1 13 23
M  V30 27 1 15 24
M  V30 28 1 16 25
M  V30 29 1 17 26
M  V30 30 1 18 27
M  V30 END BOND
M  V30 END CTAB
M  END
>  <Dataset>  (137) 
ChEMBL_Kinases

>  <Ligand_Instance>  (137) 
nan

>  <PDB_ID>  (137) 
nan

>  <Standardized_SMILES>  (137) 
O=[N+]([O-])c1cc2cn[nH]c2c2c1[nH]c1ccccc12

>  <Name>  (137) 
nan

>  <Pocket>  (137) 
nan

>  <ATP_Site>  (137) 
nan

>  <Peripheral>  (137) 
nan

>  <Num_H_Atoms_ProtBoundConf>  (137) 
nan

>  <Num_Resolved_Atoms>  (137) 
nan

>  <Num_Not_Resolved_Atoms>  (137) 
nan

$$$$
CHEMBL3703180
     RDKit          3D

  0  0  0  0  0  0  0  0  0  0999 V3000
M  V30 BEGIN CTAB
M  V30 COUNTS 38 40 0 0 0
M  V30 BEGIN ATOM
M  V30 1 C -0.530324 -4.579913 4.206247 0
M  V30 2 S 0.966718 -3.578466 4.219338 0
M  V30 3 C 1.512438 -3.130955 2.577561 0
M  V30 4 N 2.354931 -3.862532 1.828697 0
M  V30 5 C 2.732867 -3.473926 0.592925 0
M  V30 6 C 2.255445 -2.280881 0.040009 0
M  V30 7 C 2.635485 -1.878796 -1.216864 0
M  V30 8 C 2.126943 -0.689668 -1.703286 0
M  V30 9 C 1.262683 0.056515 -0.929673 0
M  V30 10 C 0.595258 1.250936 -1.108298 0
M  V30 11 C 0.708820 2.044358 -2.329114 0
M  V30 12 N -0.005238 3.282466 -2.470585 0
M  V30 13 O 1.419544 1.689340 -3.289735 0
M  V30 14 C -0.172464 1.592052 -0.017215 0
M  V30 15 C -1.019444 2.802785 0.139025 0
M  V30 16 N 0.021941 0.588552 0.857834 0
M  V30 17 C -0.565246 0.468224 2.170939 0
M  V30 18 C -1.888927 -0.265598 2.177309 0
M  V30 19 O -2.835273 0.381894 1.384861 0
M  V30 20 C 0.865665 -0.335962 0.348730 0
M  V30 21 C 1.389673 -1.534350 0.816171 0
M  V30 22 N 1.065573 -1.986240 2.024850 0
M  V30 23 H -0.259213 -5.649413 4.247097 0
M  V30 24 H -1.209513 -4.392663 3.374999 0
M  V30 25 H -1.079346 -4.361142 5.142352 0
M  V30 26 H 3.405547 -4.109020 0.058980 0
M  V30 27 H 3.308078 -2.486322 -1.785239 0
M  V30 28 H 2.407816 -0.346719 -2.689697 0
M  V30 29 H -0.998488 3.484588 -2.671248 0
M  V30 30 H -0.993727 3.612494 -2.669948 0
M  V30 31 H -1.885758 2.787078 -0.543057 0
M  V30 32 H -0.403274 3.699565 -0.161556 0
M  V30 33 H -1.285784 2.972896 1.190134 0
M  V30 34 H 0.149209 0.039016 2.875391 0
M  V30 35 H -0.814097 1.508987 2.530184 0
M  V30 36 H -1.812310 -1.294100 1.781303 0
M  V30 37 H -2.243956 -0.234988 3.228264 0
M  V30 38 H -3.707532 0.388775 1.854495 0
M  V30 END ATOM
M  V30 BEGIN BOND
M  V30 1 1 1 2
M  V30 2 1 2 3
M  V30 3 2 3 4
M  V30 4 1 4 5
M  V30 5 2 5 6
M  V30 6 1 6 7
M  V30 7 2 7 8
M  V30 8 1 8 9
M  V30 9 1 9 10
M  V30 10 1 10 11
M  V30 11 1 11 12
M  V30 12 2 11 13
M  V30 13 2 10 14
M  V30 14 1 14 15
M  V30 15 1 14 16
M  V30 16 1 16 17
M  V30 17 1 17 18
M  V30 18 1 18 19
M  V30 19 1 16 20
M  V30 20 1 20 21
M  V30 21 2 21 22
M  V30 22 1 22 3
M  V30 23 1 21 6
M  V30 24 2 20 9
M  V30 25 1 1 23
M  V30 26 1 1 24
M  V30 27 1 1 25
M  V30 28 1 5 26
M  V30 29 1 7 27
M  V30 30 1 8 28
M  V30 31 1 12 29
M  V30 32 1 12 30
M  V30 33 1 15 31
M  V30 34 1 15 32
M  V30 35 1 15 33
M  V30 36 1 17 34
M  V30 37 1 17 35
M  V30 38 1 18 36
M  V30 39 1 18 37
M  V30 40 1 19 38
M  V30 END BOND
M  V30 END CTAB
M  END
>  <Dataset>  (138) 
ChEMBL_Kinases

>  <Ligand_Instance>  (138) 
nan

>  <PDB_ID>  (138) 
nan

>  <Standardized_SMILES>  (138) 
CSc1ncc2ccc3c(C(N)=O)c(C)n(CCO)c3c2n1

>  <Name>  (138) 
nan

>  <Pocket>  (138) 
nan

>  <ATP_Site>  (138) 
nan

>  <Peripheral>  (138) 
nan

>  <Num_H_Atoms_ProtBoundConf>  (138) 
nan

>  <Num_Resolved_Atoms>  (138) 
nan

>  <Num_Not_Resolved_Atoms>  (138) 
nan

$$$$
CHEMBL2397599
     RDKit          3D

  0  0  0  0  0  0  0  0  0  0999 V3000
M  V30 BEGIN CTAB
M  V30 COUNTS 31 34 0 0 0
M  V30 BEGIN ATOM
M  V30 1 C -1.948893 -3.294524 4.023093 0
M  V30 2 O -1.791745 -3.826385 2.719225 0
M  V30 3 C -1.184985 -3.121491 1.689065 0
M  V30 4 C -1.121624 -3.802686 0.486414 0
M  V30 5 C -0.552151 -3.252871 -0.642745 0
M  V30 6 C -0.046126 -1.963587 -0.484326 0
M  V30 7 N 0.555526 -1.244506 -1.476612 0
M  V30 8 C 0.887695 -0.072005 -0.899057 0
M  V30 9 C 1.524293 1.014129 -1.476937 0
M  V30 10 N 1.922056 1.001478 -2.840928 0 CHG=1 VAL=4
M  V30 11 O 2.277928 -0.007052 -3.478687 0
M  V30 12 O 1.942230 2.156954 -3.585497 0 CHG=-1 VAL=1
M  V30 13 C 1.750743 2.102651 -0.663432 0
M  V30 14 C 1.370065 2.129684 0.663746 0
M  V30 15 C 1.486619 3.083902 1.653855 0
M  V30 16 N 0.930994 2.546968 2.754485 0
M  V30 17 N 0.483700 1.338989 2.515157 0
M  V30 18 C 0.736962 1.050308 1.239432 0
M  V30 19 C 0.512617 -0.033319 0.426003 0
M  V30 20 C -0.085058 -1.244193 0.691182 0
M  V30 21 C -0.668601 -1.859448 1.773090 0
M  V30 22 H -1.061856 -3.522444 4.657350 0
M  V30 23 H -2.131945 -2.199236 3.923219 0
M  V30 24 H -2.812443 -3.789794 4.549126 0
M  V30 25 H -1.522512 -4.819238 0.367055 0
M  V30 26 H -0.509468 -3.789570 -1.566967 0
M  V30 27 H 0.733809 -1.512368 -2.468627 0
M  V30 28 H 2.245155 2.939811 -1.122139 0
M  V30 29 H 1.938285 4.053664 1.534009 0
M  V30 30 H 0.022746 0.770233 3.248671 0
M  V30 31 H -0.729377 -1.358367 2.707241 0
M  V30 END ATOM
M  V30 BEGIN BOND
M  V30 1 1 1 2
M  V30 2 1 2 3
M  V30 3 2 3 4
M  V30 4 1 4 5
M  V30 5 2 5 6
M  V30 6 1 6 7
M  V30 7 1 7 8
M  V30 8 2 8 9
M  V30 9 1 9 10
M  V30 10 2 10 11
M  V30 11 1 10 12
M  V30 12 1 9 13
M  V30 13 2 13 14
M  V30 14 1 14 15
M  V30 15 2 15 16
M  V30 16 1 16 17
M  V30 17 1 17 18
M  V30 18 2 18 19
M  V30 19 1 19 20
M  V30 20 2 20 21
M  V30 21 1 21 3
M  V30 22 1 20 6
M  V30 23 1 19 8
M  V30 24 1 18 14
M  V30 25 1 1 22
M  V30 26 1 1 23
M  V30 27 1 1 24
M  V30 28 1 4 25
M  V30 29 1 5 26
M  V30 30 1 7 27
M  V30 31 1 13 28
M  V30 32 1 15 29
M  V30 33 1 17 30
M  V30 34 1 21 31
M  V30 END BOND
M  V30 END CTAB
M  END
>  <Dataset>  (139) 
ChEMBL_Kinases

>  <Ligand_Instance>  (139) 
nan

>  <PDB_ID>  (139) 
nan

>  <Standardized_SMILES>  (139) 
COc1ccc2[nH]c3c([N+](=O)[O-])cc4cn[nH]c4c3c2c1

>  <Name>  (139) 
nan

>  <Pocket>  (139) 
nan

>  <ATP_Site>  (139) 
nan

>  <Peripheral>  (139) 
nan

>  <Num_H_Atoms_ProtBoundConf>  (139) 
nan

>  <Num_Resolved_Atoms>  (139) 
nan

>  <Num_Not_Resolved_Atoms>  (139) 
nan

$$$$
CHEMBL3703181
     RDKit          3D

  0  0  0  0  0  0  0  0  0  0999 V3000
M  V30 BEGIN CTAB
M  V30 COUNTS 40 42 0 0 0
M  V30 BEGIN ATOM
M  V30 1 C -0.370123 -4.112867 4.636840 0
M  V30 2 S 1.216811 -3.342464 4.207341 0
M  V30 3 C 1.256962 -2.947524 2.462897 0
M  V30 4 N 1.730122 -3.910073 1.634464 0
M  V30 5 C 1.811264 -3.735410 0.300079 0
M  V30 6 C 1.382455 -2.512397 -0.179762 0
M  V30 7 C 1.461058 -2.322460 -1.544013 0
M  V30 8 C 1.043864 -1.117462 -2.062641 0
M  V30 9 C 0.565538 -0.148549 -1.210250 0
M  V30 10 C 0.100224 1.115706 -1.508798 0
M  V30 11 C -0.009779 1.767230 -2.812603 0
M  V30 12 N 0.389283 1.099651 -4.003240 0
M  V30 13 O -0.428374 2.907398 -3.099136 0
M  V30 14 C -0.266260 1.703724 -0.315051 0
M  V30 15 C -0.829730 3.060461 -0.065775 0
M  V30 16 N -0.040049 0.836076 0.716992 0
M  V30 17 C -0.275727 1.026118 2.145922 0
M  V30 18 C 1.016867 1.023772 2.928537 0
M  V30 19 C -1.311600 0.116521 2.717080 0
M  V30 20 C 0.463905 -0.281785 0.159409 0
M  V30 21 C 0.897151 -1.518223 0.645614 0
M  V30 22 N 0.844664 -1.762460 1.969241 0
M  V30 23 H -0.387396 -5.141078 4.210271 0
M  V30 24 H -1.235040 -3.525243 4.217002 0
M  V30 25 H -0.492558 -4.168466 5.717682 0
M  V30 26 H 2.186454 -4.492571 -0.377819 0
M  V30 27 H 1.832860 -3.081348 -2.186008 0
M  V30 28 H 1.112595 -0.989735 -3.121230 0
M  V30 29 H 1.291772 0.965590 -4.509093 0
M  V30 30 H -0.269541 0.565624 -4.638366 0
M  V30 31 H -1.716404 2.946993 0.622811 0
M  V30 32 H -1.210815 3.516050 -0.980928 0
M  V30 33 H -0.113394 3.675695 0.513021 0
M  V30 34 H -0.687394 2.054367 2.237150 0
M  V30 35 H 1.254797 2.026977 3.380735 0
M  V30 36 H 1.912104 0.804689 2.303023 0
M  V30 37 H 0.886820 0.361079 3.793223 0
M  V30 38 H -2.221836 0.654081 3.109725 0
M  V30 39 H -0.869867 -0.329548 3.655951 0
M  V30 40 H -1.718205 -0.636581 2.035533 0
M  V30 END ATOM
M  V30 BEGIN BOND
M  V30 1 1 1 2
M  V30 2 1 2 3
M  V30 3 2 3 4
M  V30 4 1 4 5
M  V30 5 2 5 6
M  V30 6 1 6 7
M  V30 7 2 7 8
M  V30 8 1 8 9
M  V30 9 1 9 10
M  V30 10 1 10 11
M  V30 11 1 11 12
M  V30 12 2 11 13
M  V30 13 2 10 14
M  V30 14 1 14 15
M  V30 15 1 14 16
M  V30 16 1 16 17
M  V30 17 1 17 18
M  V30 18 1 17 19
M  V30 19 1 16 20
M  V30 20 1 20 21
M  V30 21 2 21 22
M  V30 22 1 22 3
M  V30 23 1 21 6
M  V30 24 2 20 9
M  V30 25 1 1 23
M  V30 26 1 1 24
M  V30 27 1 1 25
M  V30 28 1 5 26
M  V30 29 1 7 27
M  V30 30 1 8 28
M  V30 31 1 12 29
M  V30 32 1 12 30
M  V30 33 1 15 31
M  V30 34 1 15 32
M  V30 35 1 15 33
M  V30 36 1 17 34
M  V30 37 1 18 35
M  V30 38 1 18 36
M  V30 39 1 18 37
M  V30 40 1 19 38
M  V30 41 1 19 39
M  V30 42 1 19 40
M  V30 END BOND
M  V30 END CTAB
M  END
>  <Dataset>  (140) 
ChEMBL_Kinases

>  <Ligand_Instance>  (140) 
nan

>  <PDB_ID>  (140) 
nan

>  <Standardized_SMILES>  (140) 
CSc1ncc2ccc3c(C(N)=O)c(C)n(C(C)C)c3c2n1

>  <Name>  (140) 
nan

>  <Pocket>  (140) 
nan

>  <ATP_Site>  (140) 
nan

>  <Peripheral>  (140) 
nan

>  <Num_H_Atoms_ProtBoundConf>  (140) 
nan

>  <Num_Resolved_Atoms>  (140) 
nan

>  <Num_Not_Resolved_Atoms>  (140) 
nan

$$$$
CHEMBL219789
     RDKit          3D

  0  0  0  0  0  0  0  0  0  0999 V3000
M  V30 BEGIN CTAB
M  V30 COUNTS 58 63 0 0 0
M  V30 BEGIN ATOM
M  V30 1 N 7.596311 -0.629306 -0.210043 0
M  V30 2 C 7.791842 0.753604 0.154751 0
M  V30 3 C 7.762480 0.938473 1.621965 0
M  V30 4 N 8.869518 1.124015 2.368117 0
M  V30 5 N 8.436467 1.244747 3.604356 0
M  V30 6 N 7.140318 1.144205 3.653347 0
M  V30 7 C 6.631671 0.943738 2.402220 0
M  V30 8 C 5.218966 0.795558 2.128665 0
M  V30 9 C 4.571432 0.583742 0.942205 0
M  V30 10 C 3.220956 0.459338 0.785284 0
M  V30 11 C 2.386448 0.544246 1.867989 0
M  V30 12 C 1.025968 0.459926 1.995118 0
M  V30 13 C -0.032024 0.251418 1.028925 0
M  V30 14 C -1.361036 0.217329 1.398528 0
M  V30 15 C -2.185109 0.014329 0.317287 0
M  V30 16 C -3.543393 -0.100892 0.102668 0
M  V30 17 C -4.116819 -0.307775 -1.133028 0
M  V30 18 C -5.582267 -0.413231 -1.334903 0
M  V30 19 N -5.978671 -1.776469 -1.141159 0
M  V30 20 C -5.687992 -2.293570 0.153148 0
M  V30 21 C -6.214979 -3.709647 0.337147 0
M  V30 22 C -5.733483 -4.614548 -0.770285 0
M  V30 23 F -4.875114 -5.562085 -0.247540 0
M  V30 24 C -4.958915 -3.849140 -1.821224 0
M  V30 25 C -5.775873 -2.641199 -2.244832 0
M  V30 26 C -3.223445 -0.397230 -2.188301 0
M  V30 27 C -1.852185 -0.289851 -2.036334 0
M  V30 28 C -1.346816 -0.082953 -0.770356 0
M  V30 29 N -0.101384 0.063683 -0.290253 0
M  V30 30 N 0.831563 0.629587 3.333483 0
M  V30 31 N 1.971904 0.801262 3.961810 0
M  V30 32 C 2.984075 0.756934 3.088268 0
M  V30 33 C 4.345426 0.877681 3.214723 0
M  V30 34 H 6.980379 -1.150682 0.472956 0
M  V30 35 H 8.524673 -1.083830 -0.266668 0
M  V30 36 H 8.829500 1.040650 -0.198209 0
M  V30 37 H 7.144840 1.472150 -0.401253 0
M  V30 38 H 6.695659 1.226013 4.585525 0
M  V30 39 H 5.150376 0.507225 0.067271 0
M  V30 40 H 2.809648 0.297331 -0.172851 0
M  V30 41 H -1.815424 0.324000 2.376102 0
M  V30 42 H -4.190148 -0.020150 0.984244 0
M  V30 43 H -6.036031 0.228705 -0.523056 0
M  V30 44 H -5.892269 -0.059358 -2.336844 0
M  V30 45 H -4.577785 -2.333117 0.355413 0
M  V30 46 H -6.185097 -1.665745 0.920302 0
M  V30 47 H -7.326967 -3.602331 0.281082 0
M  V30 48 H -5.868867 -4.086562 1.304772 0
M  V30 49 H -6.607043 -5.074935 -1.255063 0
M  V30 50 H -4.762650 -4.468658 -2.717445 0
M  V30 51 H -3.979468 -3.486153 -1.457858 0
M  V30 52 H -5.336145 -2.111544 -3.086932 0
M  V30 53 H -6.775860 -3.031653 -2.547263 0
M  V30 54 H -3.550750 -0.554513 -3.205221 0
M  V30 55 H -1.170120 -0.362410 -2.872076 0
M  V30 56 H 0.706089 0.027652 -0.920466 0
M  V30 57 H 2.066958 0.948806 4.983659 0
M  V30 58 H 4.695269 1.045340 4.245396 0
M  V30 END ATOM
M  V30 BEGIN BOND
M  V30 1 1 1 2
M  V30 2 1 2 3
M  V30 3 1 3 4
M  V30 4 2 4 5
M  V30 5 1 5 6
M  V30 6 1 6 7
M  V30 7 1 7 8
M  V30 8 2 8 9
M  V30 9 1 9 10
M  V30 10 2 10 11
M  V30 11 1 11 12
M  V30 12 1 12 13
M  V30 13 2 13 14
M  V30 14 1 14 15
M  V30 15 2 15 16
M  V30 16 1 16 17
M  V30 17 1 17 18
M  V30 18 1 18 19
M  V30 19 1 19 20
M  V30 20 1 20 21
M  V30 21 1 21 22
M  V30 22 1 22 23
M  V30 23 1 22 24
M  V30 24 1 24 25
M  V30 25 2 17 26
M  V30 26 1 26 27
M  V30 27 2 27 28
M  V30 28 1 28 29
M  V30 29 2 12 30
M  V30 30 1 30 31
M  V30 31 1 31 32
M  V30 32 2 32 33
M  V30 33 2 7 3
M  V30 34 1 33 8
M  V30 35 1 32 11
M  V30 36 1 29 13
M  V30 37 1 28 15
M  V30 38 1 25 19
M  V30 39 1 1 34
M  V30 40 1 1 35
M  V30 41 1 2 36
M  V30 42 1 2 37
M  V30 43 1 6 38
M  V30 44 1 9 39
M  V30 45 1 10 40
M  V30 46 1 14 41
M  V30 47 1 16 42
M  V30 48 1 18 43
M  V30 49 1 18 44
M  V30 50 1 20 45
M  V30 51 1 20 46
M  V30 52 1 21 47
M  V30 53 1 21 48
M  V30 54 1 22 49
M  V30 55 1 24 50
M  V30 56 1 24 51
M  V30 57 1 25 52
M  V30 58 1 25 53
M  V30 59 1 26 54
M  V30 60 1 27 55
M  V30 61 1 29 56
M  V30 62 1 31 57
M  V30 63 1 33 58
M  V30 END BOND
M  V30 END CTAB
M  END
>  <Dataset>  (141) 
ChEMBL_Kinases

>  <Ligand_Instance>  (141) 
nan

>  <PDB_ID>  (141) 
nan

>  <Standardized_SMILES>  (141) 
NCc1nn[nH]c1-c1ccc2c(-c3cc4cc(CN5CCC(F)CC5)ccc4[nH]3)n[nH]c2c1

>  <Name>  (141) 
nan

>  <Pocket>  (141) 
nan

>  <ATP_Site>  (141) 
nan

>  <Peripheral>  (141) 
nan

>  <Num_H_Atoms_ProtBoundConf>  (141) 
nan

>  <Num_Resolved_Atoms>  (141) 
nan

>  <Num_Not_Resolved_Atoms>  (141) 
nan

$$$$
CHEMBL3702127
     RDKit          3D

  0  0  0  0  0  0  0  0  0  0999 V3000
M  V30 BEGIN CTAB
M  V30 COUNTS 59 64 0 0 0
M  V30 BEGIN ATOM
M  V30 1 O 2.197691 -5.837395 -0.583475 0
M  V30 2 C 2.425312 -5.179889 -1.658657 0
M  V30 3 C 2.542821 -3.715003 -1.496134 0
M  V30 4 N 3.338097 -3.185266 -2.582285 0
M  V30 5 C 4.064669 -2.013906 -2.153619 0
M  V30 6 C 3.217362 -0.902731 -1.706604 0
M  V30 7 C 2.736240 -0.596558 -0.456356 0
M  V30 8 C 1.941874 0.485058 -0.162066 0
M  V30 9 C 1.629882 1.296716 -1.231889 0
M  V30 10 N 0.796672 2.453855 -1.002274 0
M  V30 11 C 0.344808 2.665291 0.328971 0
M  V30 12 N 0.743400 3.507848 1.316467 0
M  V30 13 C 0.130110 3.481537 2.512893 0
M  V30 14 C -0.908736 2.621925 2.798392 0
M  V30 15 C -1.707128 2.361620 3.891704 0
M  V30 16 C -1.704086 2.942563 5.136135 0
M  V30 17 C -2.637756 2.475492 6.068627 0
M  V30 18 N -3.492545 1.481979 5.705373 0
M  V30 19 C -3.442154 0.951480 4.459778 0
M  V30 20 C -2.554696 1.353954 3.482603 0
M  V30 21 N -2.343802 0.968444 2.215445 0
M  V30 22 C -3.013579 -0.038666 1.441669 0
M  V30 23 C -4.495315 -0.032925 1.475291 0
M  V30 24 C -4.940252 -1.456465 1.794245 0
M  V30 25 C -3.724500 -2.338219 1.596863 0
M  V30 26 C -2.525770 -1.433446 1.780008 0
M  V30 27 C -1.311267 1.767447 1.793918 0
M  V30 28 N -0.676777 1.811538 0.590498 0
M  V30 29 N 2.082761 1.036158 -2.491842 0
M  V30 30 C 2.869670 -0.046955 -2.749603 0
M  V30 31 C 4.256685 -4.219030 -3.011278 0
M  V30 32 C 3.407220 -5.176741 -3.859352 0
M  V30 33 N 2.547729 -5.881456 -2.911968 0
M  V30 34 H 1.543836 -3.220830 -1.450158 0
M  V30 35 H 3.028862 -3.517959 -0.519493 0
M  V30 36 H 4.808183 -1.695854 -2.914196 0
M  V30 37 H 4.636437 -2.347604 -1.236066 0
M  V30 38 H 3.039647 -1.291288 0.313235 0
M  V30 39 H 1.609317 0.650431 0.851719 0
M  V30 40 H 0.575262 3.094191 -1.786945 0
M  V30 41 H 0.489945 4.173763 3.252935 0
M  V30 42 H -0.991309 3.745077 5.380736 0
M  V30 43 H -2.623320 2.944968 7.046013 0
M  V30 44 H -4.144423 0.159590 4.235030 0
M  V30 45 H -2.691014 0.115577 0.366913 0
M  V30 46 H -4.933455 0.153223 0.444648 0
M  V30 47 H -4.975655 0.727279 2.101242 0
M  V30 48 H -5.187402 -1.511548 2.873652 0
M  V30 49 H -5.762574 -1.811335 1.167158 0
M  V30 50 H -3.629768 -3.134595 2.370146 0
M  V30 51 H -3.702918 -2.825282 0.602732 0
M  V30 52 H -1.677295 -1.754590 1.143295 0
M  V30 53 H -2.163442 -1.379990 2.825511 0
M  V30 54 H 3.134062 -0.098750 -3.791099 0
M  V30 55 H 5.097605 -3.831665 -3.616242 0
M  V30 56 H 4.594968 -4.820350 -2.130536 0
M  V30 57 H 4.030321 -5.867477 -4.448613 0
M  V30 58 H 2.769692 -4.511202 -4.488479 0
M  V30 59 H 1.998666 -6.766972 -2.915070 0
M  V30 END ATOM
M  V30 BEGIN BOND
M  V30 1 2 1 2
M  V30 2 1 2 3
M  V30 3 1 3 4
M  V30 4 1 4 5
M  V30 5 1 5 6
M  V30 6 2 6 7
M  V30 7 1 7 8
M  V30 8 2 8 9
M  V30 9 1 9 10
M  V30 10 1 10 11
M  V30 11 2 11 12
M  V30 12 1 12 13
M  V30 13 2 13 14
M  V30 14 1 14 15
M  V30 15 2 15 16
M  V30 16 1 16 17
M  V30 17 2 17 18
M  V30 18 1 18 19
M  V30 19 2 19 20
M  V30 20 1 20 21
M  V30 21 1 21 22
M  V30 22 1 22 23
M  V30 23 1 23 24
M  V30 24 1 24 25
M  V30 25 1 25 26
M  V30 26 1 21 27
M  V30 27 2 27 28
M  V30 28 1 9 29
M  V30 29 2 29 30
M  V30 30 1 4 31
M  V30 31 1 31 32
M  V30 32 1 32 33
M  V30 33 1 33 2
M  V30 34 1 30 6
M  V30 35 1 28 11
M  V30 36 1 27 14
M  V30 37 1 20 15
M  V30 38 1 26 22
M  V30 39 1 3 34
M  V30 40 1 3 35
M  V30 41 1 5 36
M  V30 42 1 5 37
M  V30 43 1 7 38
M  V30 44 1 8 39
M  V30 45 1 10 40
M  V30 46 1 13 41
M  V30 47 1 16 42
M  V30 48 1 17 43
M  V30 49 1 19 44
M  V30 50 1 22 45
M  V30 51 1 23 46
M  V30 52 1 23 47
M  V30 53 1 24 48
M  V30 54 1 24 49
M  V30 55 1 25 50
M  V30 56 1 25 51
M  V30 57 1 26 52
M  V30 58 1 26 53
M  V30 59 1 30 54
M  V30 60 1 31 55
M  V30 61 1 31 56
M  V30 62 1 32 57
M  V30 63 1 32 58
M  V30 64 1 33 59
M  V30 END BOND
M  V30 END CTAB
M  END
>  <Dataset>  (142) 
ChEMBL_Kinases

>  <Ligand_Instance>  (142) 
nan

>  <PDB_ID>  (142) 
nan

>  <Standardized_SMILES>  (142) 
O=C1CN(Cc2ccc(Nc3ncc4c5ccncc5n(C5CCCC5)c4n3)nc2)CCN1

>  <Name>  (142) 
nan

>  <Pocket>  (142) 
nan

>  <ATP_Site>  (142) 
nan

>  <Peripheral>  (142) 
nan

>  <Num_H_Atoms_ProtBoundConf>  (142) 
nan

>  <Num_Resolved_Atoms>  (142) 
nan

>  <Num_Not_Resolved_Atoms>  (142) 
nan

$$$$
CHEMBL457313
     RDKit          3D

  0  0  0  0  0  0  0  0  0  0999 V3000
M  V30 BEGIN CTAB
M  V30 COUNTS 20 22 0 0 0
M  V30 BEGIN ATOM
M  V30 1 N 2.482425 -0.526652 3.844105 0
M  V30 2 C 1.245717 -0.631367 3.194771 0
M  V30 3 N 0.097762 -1.015128 3.767757 0
M  V30 4 C -0.980496 -1.049147 2.966586 0
M  V30 5 N -1.016367 -0.743707 1.682080 0
M  V30 6 C 0.060370 -0.345366 0.987146 0
M  V30 7 C 1.210967 -0.306864 1.833034 0
M  V30 8 S 2.548202 0.251836 0.707455 0
M  V30 9 C 1.530704 0.382722 -0.717266 0
M  V30 10 N 1.871898 0.753002 -1.938747 0
M  V30 11 C 0.984014 0.809955 -2.946988 0
M  V30 12 C -0.287898 0.445209 -2.560191 0
M  V30 13 C -0.677629 0.055745 -1.302355 0
M  V30 14 C 0.274116 0.015029 -0.305005 0
M  V30 15 H 3.368076 -1.100871 3.822961 0
M  V30 16 H 2.430926 0.323803 4.457191 0
M  V30 17 H -1.958986 -1.355093 3.368136 0
M  V30 18 H 1.171337 1.099166 -3.970066 0
M  V30 19 H -1.059925 0.472757 -3.346720 0
M  V30 20 H -1.735118 -0.206149 -1.150449 0
M  V30 END ATOM
M  V30 BEGIN BOND
M  V30 1 1 1 2
M  V30 2 2 2 3
M  V30 3 1 3 4
M  V30 4 2 4 5
M  V30 5 1 5 6
M  V30 6 2 6 7
M  V30 7 1 7 8
M  V30 8 1 8 9
M  V30 9 2 9 10
M  V30 10 1 10 11
M  V30 11 2 11 12
M  V30 12 1 12 13
M  V30 13 2 13 14
M  V30 14 1 7 2
M  V30 15 1 14 9
M  V30 16 1 14 6
M  V30 17 1 1 15
M  V30 18 1 1 16
M  V30 19 1 4 17
M  V30 20 1 11 18
M  V30 21 1 12 19
M  V30 22 1 13 20
M  V30 END BOND
M  V30 END CTAB
M  END
>  <Dataset>  (143) 
ChEMBL_Kinases

>  <Ligand_Instance>  (143) 
nan

>  <PDB_ID>  (143) 
nan

>  <Standardized_SMILES>  (143) 
Nc1ncnc2c1sc1ncccc12

>  <Name>  (143) 
nan

>  <Pocket>  (143) 
nan

>  <ATP_Site>  (143) 
nan

>  <Peripheral>  (143) 
nan

>  <Num_H_Atoms_ProtBoundConf>  (143) 
nan

>  <Num_Resolved_Atoms>  (143) 
nan

>  <Num_Not_Resolved_Atoms>  (143) 
nan

$$$$
CHEMBL2401965
     RDKit          3D

  0  0  0  0  0  0  0  0  0  0999 V3000
M  V30 BEGIN CTAB
M  V30 COUNTS 52 55 0 0 0
M  V30 BEGIN ATOM
M  V30 1 C -0.442437 -2.909314 4.284485 0
M  V30 2 C -0.407816 -2.283041 2.926837 0
M  V30 3 C 0.253074 -3.152127 1.888440 0 CFG=2
M  V30 4 C 1.668363 -3.404865 2.333746 0
M  V30 5 O 2.280061 -4.431095 2.750886 0
M  V30 6 N 2.463115 -2.219288 2.258557 0
M  V30 7 C 3.671728 -1.992388 3.054677 0
M  V30 8 C 2.155355 -1.149348 1.404358 0
M  V30 9 C 2.876868 0.021840 1.281853 0
M  V30 10 N 2.494699 0.990569 0.429498 0
M  V30 11 C 1.396029 0.866099 -0.341517 0
M  V30 12 N 1.160893 1.991776 -1.171661 0
M  V30 13 C 1.998692 2.732477 -1.903510 0
M  V30 14 C 1.253861 3.716924 -2.528692 0
M  V30 15 N -0.037139 3.532328 -2.143931 0
M  V30 16 C -0.108407 2.467960 -1.304082 0
M  V30 17 C -1.392217 2.053066 -0.741804 0
M  V30 18 C -1.622157 1.882272 0.609403 0
M  V30 19 C -2.870890 1.485411 1.069693 0
M  V30 20 C -3.887067 1.261199 0.164546 0
M  V30 21 C -3.686309 1.424789 -1.202701 0
M  V30 22 C -2.432069 1.819805 -1.618420 0
M  V30 23 N 0.617473 -0.251263 -0.293857 0
M  V30 24 C 1.045876 -1.204732 0.585125 0
M  V30 25 N 0.240290 -2.392024 0.652831 0
M  V30 26 C -0.579246 -2.882387 -0.413821 0
M  V30 27 C -2.038431 -2.966002 -0.092258 0
M  V30 28 C -0.335565 -2.179188 -1.740816 0
M  V30 29 H 0.553204 -3.020617 4.746172 0
M  V30 30 H -1.026925 -3.831638 4.218441 0
M  V30 31 H -1.012728 -2.195390 4.939520 0
M  V30 32 H -1.448194 -2.062885 2.620475 0
M  V30 33 H 0.147685 -1.313179 2.909610 0
M  V30 34 H -0.187428 -4.143966 1.763589 0
M  V30 35 H 3.502126 -1.046303 3.602760 0
M  V30 36 H 4.492970 -1.887531 2.329302 0
M  V30 37 H 3.846382 -2.857975 3.723021 0
M  V30 38 H 3.771018 0.125682 1.907872 0
M  V30 39 H 3.062916 2.566642 -1.973721 0
M  V30 40 H 1.624669 4.499298 -3.205574 0
M  V30 41 H -0.780945 2.075554 1.259252 0
M  V30 42 H -3.005278 1.364166 2.137127 0
M  V30 43 H -4.872726 0.948320 0.523082 0
M  V30 44 H -4.475361 1.253698 -1.944586 0
M  V30 45 H -2.273592 1.948671 -2.694224 0
M  V30 46 H -0.247991 -3.951458 -0.581398 0
M  V30 47 H -2.173851 -3.505524 0.845149 0
M  V30 48 H -2.540917 -1.985839 -0.167370 0
M  V30 49 H -2.494231 -3.611039 -0.892243 0
M  V30 50 H 0.740231 -1.989805 -1.904588 0
M  V30 51 H -0.630960 -2.853310 -2.593948 0
M  V30 52 H -0.942362 -1.251569 -1.781896 0
M  V30 END ATOM
M  V30 BEGIN BOND
M  V30 1 1 1 2
M  V30 2 1 2 3
M  V30 3 1 3 4
M  V30 4 2 4 5
M  V30 5 1 4 6
M  V30 6 1 6 7
M  V30 7 1 6 8
M  V30 8 2 8 9
M  V30 9 1 9 10
M  V30 10 2 10 11
M  V30 11 1 11 12
M  V30 12 1 12 13
M  V30 13 2 13 14
M  V30 14 1 14 15
M  V30 15 2 15 16
M  V30 16 1 16 17
M  V30 17 2 17 18
M  V30 18 1 18 19
M  V30 19 2 19 20
M  V30 20 1 20 21
M  V30 21 2 21 22
M  V30 22 1 11 23
M  V30 23 2 23 24
M  V30 24 1 24 25
M  V30 25 1 25 26
M  V30 26 1 26 27
M  V30 27 1 26 28
M  V30 28 1 25 3
M  V30 29 1 24 8
M  V30 30 1 16 12
M  V30 31 1 22 17
M  V30 32 1 1 29
M  V30 33 1 1 30
M  V30 34 1 1 31
M  V30 35 1 2 32
M  V30 36 1 2 33
M  V30 37 1 3 34 CFG=3
M  V30 38 1 7 35
M  V30 39 1 7 36
M  V30 40 1 7 37
M  V30 41 1 9 38
M  V30 42 1 13 39
M  V30 43 1 14 40
M  V30 44 1 18 41
M  V30 45 1 19 42
M  V30 46 1 20 43
M  V30 47 1 21 44
M  V30 48 1 22 45
M  V30 49 1 26 46
M  V30 50 1 27 47
M  V30 51 1 27 48
M  V30 52 1 27 49
M  V30 53 1 28 50
M  V30 54 1 28 51
M  V30 55 1 28 52
M  V30 END BOND
M  V30 END CTAB
M  END
>  <Dataset>  (144) 
ChEMBL_Kinases

>  <Ligand_Instance>  (144) 
nan

>  <PDB_ID>  (144) 
nan

>  <Standardized_SMILES>  (144) 
CC[C@@H]1C(=O)N(C)c2cnc(-n3ccnc3-c3ccccc3)nc2N1C(C)C

>  <Name>  (144) 
nan

>  <Pocket>  (144) 
nan

>  <ATP_Site>  (144) 
nan

>  <Peripheral>  (144) 
nan

>  <Num_H_Atoms_ProtBoundConf>  (144) 
nan

>  <Num_Resolved_Atoms>  (144) 
nan

>  <Num_Not_Resolved_Atoms>  (144) 
nan

$$$$
CHEMBL4573345
     RDKit          3D

  0  0  0  0  0  0  0  0  0  0999 V3000
M  V30 BEGIN CTAB
M  V30 COUNTS 25 25 0 0 0
M  V30 BEGIN ATOM
M  V30 1 C 2.473023 -4.467519 0.448161 0
M  V30 2 C 1.251357 -3.916841 1.160271 0
M  V30 3 O 1.499855 -2.537867 1.466759 0
M  V30 4 C 2.583353 -2.175304 2.286064 0
M  V30 5 O 3.382985 -3.007948 2.790031 0
M  V30 6 S 2.956895 -0.482053 2.712044 0
M  V30 7 C 1.741056 0.633401 1.931908 0
M  V30 8 C 1.855025 1.193175 0.719329 0
M  V30 9 N 0.868767 1.976673 0.321328 0
M  V30 10 C -0.077860 2.254124 0.857756 0
M  V30 11 N -1.318643 3.072016 0.681793 0
M  V30 12 C -2.378442 2.336249 0.082764 0
M  V30 13 C -3.691112 2.979125 -0.172983 0
M  V30 14 O -2.135424 1.124714 -0.211675 0
M  V30 15 S 0.124982 1.283117 2.506973 0
M  V30 16 H 3.374735 -3.843891 0.592604 0
M  V30 17 H 2.728279 -5.497122 0.726299 0
M  V30 18 H 2.266676 -4.430758 -0.660144 0
M  V30 19 H 0.385256 -3.928226 0.491595 0
M  V30 20 H 1.014651 -4.480941 2.063694 0
M  V30 21 H 2.723719 1.023815 0.062092 0
M  V30 22 H -1.458942 4.065039 0.943624 0
M  V30 23 H -3.547487 4.073857 -0.397913 0
M  V30 24 H -4.454850 2.776553 0.578266 0
M  V30 25 H -4.082410 2.571976 -1.150679 0
M  V30 END ATOM
M  V30 BEGIN BOND
M  V30 1 1 1 2
M  V30 2 1 2 3
M  V30 3 1 3 4
M  V30 4 2 4 5
M  V30 5 1 4 6
M  V30 6 1 6 7
M  V30 7 2 7 8
M  V30 8 1 8 9
M  V30 9 2 9 10
M  V30 10 1 10 11
M  V30 11 1 11 12
M  V30 12 1 12 13
M  V30 13 2 12 14
M  V30 14 1 10 15
M  V30 15 1 15 7
M  V30 16 1 1 16
M  V30 17 1 1 17
M  V30 18 1 1 18
M  V30 19 1 2 19
M  V30 20 1 2 20
M  V30 21 1 8 21
M  V30 22 1 11 22
M  V30 23 1 13 23
M  V30 24 1 13 24
M  V30 25 1 13 25
M  V30 END BOND
M  V30 END CTAB
M  END
>  <Dataset>  (145) 
ChEMBL_Kinases

>  <Ligand_Instance>  (145) 
nan

>  <PDB_ID>  (145) 
nan

>  <Standardized_SMILES>  (145) 
CCOC(=O)Sc1cnc(NC(C)=O)s1

>  <Name>  (145) 
nan

>  <Pocket>  (145) 
nan

>  <ATP_Site>  (145) 
nan

>  <Peripheral>  (145) 
nan

>  <Num_H_Atoms_ProtBoundConf>  (145) 
nan

>  <Num_Resolved_Atoms>  (145) 
nan

>  <Num_Not_Resolved_Atoms>  (145) 
nan

$$$$
CHEMBL2401966
     RDKit          3D

  0  0  0  0  0  0  0  0  0  0999 V3000
M  V30 BEGIN CTAB
M  V30 COUNTS 52 55 0 0 0
M  V30 BEGIN ATOM
M  V30 1 C 1.138173 -2.933465 4.409423 0
M  V30 2 C 0.642269 -2.220334 3.190192 0
M  V30 3 C 1.181013 -2.867515 1.913771 0 CFG=2
M  V30 4 C 2.681992 -2.762920 2.021579 0
M  V30 5 O 3.492992 -3.733483 2.188528 0
M  V30 6 N 3.208823 -1.451217 1.924281 0
M  V30 7 C 4.501394 -1.093849 2.521924 0
M  V30 8 C 2.448775 -0.487256 1.227247 0
M  V30 9 C 2.884703 0.811800 1.083470 0
M  V30 10 N 2.132860 1.698527 0.412766 0
M  V30 11 C 0.939372 1.412310 -0.154822 0
M  V30 12 N 0.301165 2.488416 -0.823017 0
M  V30 13 C 0.849373 3.611264 -1.279409 0
M  V30 14 C -0.135365 4.397608 -1.870629 0
M  V30 15 N -1.269697 3.685858 -1.737471 0
M  V30 16 C -1.006698 2.547639 -1.112320 0
M  V30 17 C -2.111941 1.631625 -0.869907 0
M  V30 18 C -2.690054 1.114498 -2.036317 0
M  V30 19 C -3.754276 0.233923 -2.022236 0
M  V30 20 C -4.255731 -0.140826 -0.795397 0
M  V30 21 C -3.691789 0.363723 0.353161 0
M  V30 22 C -2.634096 1.239386 0.346603 0
M  V30 23 N 0.494201 0.157377 -0.028973 0
M  V30 24 C 1.217842 -0.788253 0.644012 0
M  V30 25 N 0.717182 -2.114655 0.759135 0
M  V30 26 C -0.178285 -2.661545 -0.202714 0
M  V30 27 C -1.571870 -2.930054 0.259142 0
M  V30 28 C -2.364632 -3.514263 -0.912665 0
M  V30 29 F -3.659659 -3.768909 -0.506016 0
M  V30 30 F -2.280724 -2.646056 -1.958130 0
M  V30 31 F -1.788200 -4.724199 -1.254718 0
M  V30 32 H 0.436293 -2.718223 5.242550 0
M  V30 33 H 1.147306 -4.021174 4.260109 0
M  V30 34 H 2.116796 -2.508596 4.714278 0
M  V30 35 H 0.988392 -1.167591 3.181639 0
M  V30 36 H -0.444436 -2.199422 3.224209 0
M  V30 37 H 0.967152 -3.944551 1.852310 0
M  V30 38 H 5.304894 -1.096477 1.754270 0
M  V30 39 H 4.388761 -0.108888 3.012863 0
M  V30 40 H 4.771902 -1.823339 3.335178 0
M  V30 41 H 3.829817 1.136997 1.504436 0
M  V30 42 H 1.914777 3.862602 -1.193893 0
M  V30 43 H 0.118960 5.372078 -2.310792 0
M  V30 44 H -2.351077 1.362650 -3.039941 0
M  V30 45 H -4.205902 -0.168901 -2.914817 0
M  V30 46 H -5.093608 -0.833202 -0.771848 0
M  V30 47 H -4.083842 0.069863 1.321725 0
M  V30 48 H -2.154367 1.663686 1.204056 0
M  V30 49 H 0.221979 -3.617209 -0.649760 0
M  V30 50 H -0.217596 -1.964324 -1.083995 0
M  V30 51 H -2.131924 -2.060147 0.583631 0
M  V30 52 H -1.599049 -3.687528 1.066989 0
M  V30 END ATOM
M  V30 BEGIN BOND
M  V30 1 1 1 2
M  V30 2 1 2 3
M  V30 3 1 3 4
M  V30 4 2 4 5
M  V30 5 1 4 6
M  V30 6 1 6 7
M  V30 7 1 6 8
M  V30 8 2 8 9
M  V30 9 1 9 10
M  V30 10 2 10 11
M  V30 11 1 11 12
M  V30 12 1 12 13
M  V30 13 2 13 14
M  V30 14 1 14 15
M  V30 15 2 15 16
M  V30 16 1 16 17
M  V30 17 2 17 18
M  V30 18 1 18 19
M  V30 19 2 19 20
M  V30 20 1 20 21
M  V30 21 2 21 22
M  V30 22 1 11 23
M  V30 23 2 23 24
M  V30 24 1 24 25
M  V30 25 1 25 26
M  V30 26 1 26 27
M  V30 27 1 27 28
M  V30 28 1 28 29
M  V30 29 1 28 30
M  V30 30 1 28 31
M  V30 31 1 25 3
M  V30 32 1 24 8
M  V30 33 1 16 12
M  V30 34 1 22 17
M  V30 35 1 1 32
M  V30 36 1 1 33
M  V30 37 1 1 34
M  V30 38 1 2 35
M  V30 39 1 2 36
M  V30 40 1 3 37 CFG=3
M  V30 41 1 7 38
M  V30 42 1 7 39
M  V30 43 1 7 40
M  V30 44 1 9 41
M  V30 45 1 13 42
M  V30 46 1 14 43
M  V30 47 1 18 44
M  V30 48 1 19 45
M  V30 49 1 20 46
M  V30 50 1 21 47
M  V30 51 1 22 48
M  V30 52 1 26 49
M  V30 53 1 26 50
M  V30 54 1 27 51
M  V30 55 1 27 52
M  V30 END BOND
M  V30 END CTAB
M  END
>  <Dataset>  (146) 
ChEMBL_Kinases

>  <Ligand_Instance>  (146) 
nan

>  <PDB_ID>  (146) 
nan

>  <Standardized_SMILES>  (146) 
CC[C@@H]1C(=O)N(C)c2cnc(-n3ccnc3-c3ccccc3)nc2N1CCC(F)(F)F

>  <Name>  (146) 
nan

>  <Pocket>  (146) 
nan

>  <ATP_Site>  (146) 
nan

>  <Peripheral>  (146) 
nan

>  <Num_H_Atoms_ProtBoundConf>  (146) 
nan

>  <Num_Resolved_Atoms>  (146) 
nan

>  <Num_Not_Resolved_Atoms>  (146) 
nan

$$$$
CHEMBL3706684
     RDKit          3D

  0  0  0  0  0  0  0  0  0  0999 V3000
M  V30 BEGIN CTAB
M  V30 COUNTS 74 77 0 0 0
M  V30 BEGIN ATOM
M  V30 1 C 5.018754 -3.510028 3.694731 0
M  V30 2 C 5.132194 -3.295445 2.210413 0
M  V30 3 N 4.456992 -4.254207 1.411208 0
M  V30 4 C 3.040157 -4.180359 1.457062 0
M  V30 5 C 2.362660 -4.572416 2.713149 0
M  V30 6 C 4.965834 -4.308864 0.049393 0
M  V30 7 C 4.608920 -3.043450 -0.713368 0
M  V30 8 C 5.152112 -3.142329 -2.094069 0
M  V30 9 O 4.849265 -2.035230 -2.871515 0
M  V30 10 C 3.616162 -1.609171 -3.266423 0
M  V30 11 C 2.328696 -2.054216 -3.100469 0
M  V30 12 C 1.259574 -1.377896 -3.637870 0
M  V30 13 C 1.440730 -0.206765 -4.377768 0
M  V30 14 C 0.294537 0.415033 -4.886358 0
M  V30 15 N -0.957145 -0.211423 -4.601542 0
M  V30 16 C -1.571741 0.209764 -3.391258 0
M  V30 17 C -1.133398 1.311822 -2.708725 0
M  V30 18 C -1.737009 1.677396 -1.528920 0
M  V30 19 C -2.786844 0.929545 -1.033834 0
M  V30 20 N -3.497631 1.193975 0.168918 0
M  V30 21 C -4.632760 1.869477 0.660115 0
M  V30 22 O -5.336051 2.480467 -0.163000 0
M  V30 23 N -4.821111 1.757938 2.048545 0
M  V30 24 C -5.911094 2.356732 2.727752 0
M  V30 25 C -5.551416 3.333375 3.817782 0
M  V30 26 C -4.726874 2.719348 4.903599 0
M  V30 27 C -5.287109 1.441703 5.424258 0
M  V30 28 C -5.924151 0.559045 4.406652 0
M  V30 29 C -6.739240 1.280725 3.386528 0
M  V30 30 C -3.223973 -0.194909 -1.744030 0
M  V30 31 C -2.619725 -0.575335 -2.942065 0
M  V30 32 N 0.506640 1.540253 -5.592603 0
M  V30 33 C 1.747922 2.034733 -5.795559 0
M  V30 34 N 2.817519 1.407010 -5.290439 0
M  V30 35 C 2.736618 0.283371 -4.572915 0
M  V30 36 C 3.784629 -0.436862 -4.008410 0
M  V30 37 H 4.634972 -4.507849 3.924494 0
M  V30 38 H 4.401578 -2.713368 4.164787 0
M  V30 39 H 6.049770 -3.452640 4.169220 0
M  V30 40 H 4.743202 -2.260411 1.941667 0
M  V30 41 H 6.230926 -3.297944 1.945932 0
M  V30 42 H 2.574696 -4.783616 0.632812 0
M  V30 43 H 2.768207 -3.088893 1.282487 0
M  V30 44 H 1.249746 -4.709632 2.481568 0
M  V30 45 H 2.418678 -3.806778 3.500256 0
M  V30 46 H 2.714974 -5.583726 3.066741 0
M  V30 47 H 6.072962 -4.370634 0.056473 0
M  V30 48 H 4.581869 -5.220096 -0.421912 0
M  V30 49 H 5.120074 -2.196345 -0.175920 0
M  V30 50 H 3.554126 -2.822790 -0.710259 0
M  V30 51 H 4.686373 -4.067091 -2.548054 0
M  V30 52 H 6.239647 -3.368861 -2.064431 0
M  V30 53 H 2.231660 -2.950288 -2.550826 0
M  V30 54 H 0.277394 -1.818088 -3.445420 0
M  V30 55 H -1.363438 -0.915822 -5.245049 0
M  V30 56 H -0.307493 1.888470 -3.111043 0
M  V30 57 H -1.429108 2.543530 -0.944888 0
M  V30 58 H -2.830971 0.638607 0.785068 0
M  V30 59 H -4.182439 1.238863 2.689079 0
M  V30 60 H -6.605586 2.910203 2.049531 0
M  V30 61 H -6.505523 3.645970 4.292762 0
M  V30 62 H -5.087361 4.251534 3.453369 0
M  V30 63 H -4.752884 3.452950 5.763188 0
M  V30 64 H -3.651808 2.628594 4.652711 0
M  V30 65 H -6.034944 1.590107 6.235909 0
M  V30 66 H -4.424926 0.887408 5.888334 0
M  V30 67 H -6.532418 -0.200681 4.969930 0
M  V30 68 H -5.152785 -0.052956 3.864450 0
M  V30 69 H -7.710327 1.651698 3.788184 0
M  V30 70 H -6.972797 0.515921 2.586329 0
M  V30 71 H -4.051596 -0.851788 -1.428604 0
M  V30 72 H -2.957229 -1.435388 -3.478665 0
M  V30 73 H 1.864477 2.936326 -6.366732 0
M  V30 74 H 4.711870 0.087490 -4.260980 0
M  V30 END ATOM
M  V30 BEGIN BOND
M  V30 1 1 1 2
M  V30 2 1 2 3
M  V30 3 1 3 4
M  V30 4 1 4 5
M  V30 5 1 3 6
M  V30 6 1 6 7
M  V30 7 1 7 8
M  V30 8 1 8 9
M  V30 9 1 9 10
M  V30 10 2 10 11
M  V30 11 1 11 12
M  V30 12 2 12 13
M  V30 13 1 13 14
M  V30 14 1 14 15
M  V30 15 1 15 16
M  V30 16 2 16 17
M  V30 17 1 17 18
M  V30 18 2 18 19
M  V30 19 1 19 20
M  V30 20 1 20 21
M  V30 21 2 21 22
M  V30 22 1 21 23
M  V30 23 1 23 24
M  V30 24 1 24 25
M  V30 25 1 25 26
M  V30 26 1 26 27
M  V30 27 1 27 28
M  V30 28 1 28 29
M  V30 29 1 19 30
M  V30 30 2 30 31
M  V30 31 2 14 32
M  V30 32 1 32 33
M  V30 33 2 33 34
M  V30 34 1 34 35
M  V30 35 2 35 36
M  V30 36 1 36 10
M  V30 37 1 35 13
M  V30 38 1 31 16
M  V30 39 1 29 24
M  V30 40 1 1 37
M  V30 41 1 1 38
M  V30 42 1 1 39
M  V30 43 1 2 40
M  V30 44 1 2 41
M  V30 45 1 4 42
M  V30 46 1 4 43
M  V30 47 1 5 44
M  V30 48 1 5 45
M  V30 49 1 5 46
M  V30 50 1 6 47
M  V30 51 1 6 48
M  V30 52 1 7 49
M  V30 53 1 7 50
M  V30 54 1 8 51
M  V30 55 1 8 52
M  V30 56 1 11 53
M  V30 57 1 12 54
M  V30 58 1 15 55
M  V30 59 1 17 56
M  V30 60 1 18 57
M  V30 61 1 20 58
M  V30 62 1 23 59
M  V30 63 1 24 60
M  V30 64 1 25 61
M  V30 65 1 25 62
M  V30 66 1 26 63
M  V30 67 1 26 64
M  V30 68 1 27 65
M  V30 69 1 27 66
M  V30 70 1 28 67
M  V30 71 1 28 68
M  V30 72 1 29 69
M  V30 73 1 29 70
M  V30 74 1 30 71
M  V30 75 1 31 72
M  V30 76 1 33 73
M  V30 77 1 36 74
M  V30 END BOND
M  V30 END CTAB
M  END
>  <Dataset>  (147) 
ChEMBL_Kinases

>  <Ligand_Instance>  (147) 
nan

>  <PDB_ID>  (147) 
nan

>  <Standardized_SMILES>  (147) 
CCN(CC)CCCOc1ccc2c(Nc3ccc(NC(=O)NC4CCCCC4)cc3)ncnc2c1

>  <Name>  (147) 
nan

>  <Pocket>  (147) 
nan

>  <ATP_Site>  (147) 
nan

>  <Peripheral>  (147) 
nan

>  <Num_H_Atoms_ProtBoundConf>  (147) 
nan

>  <Num_Resolved_Atoms>  (147) 
nan

>  <Num_Not_Resolved_Atoms>  (147) 
nan

$$$$
CHEMBL3702126
     RDKit          3D

  0  0  0  0  0  0  0  0  0  0999 V3000
M  V30 BEGIN CTAB
M  V30 COUNTS 47 51 0 0 0
M  V30 BEGIN ATOM
M  V30 1 O 4.104153 -6.154626 2.701884 0
M  V30 2 C 3.784548 -4.952064 2.879521 0
M  V30 3 O 3.872003 -4.386906 4.164830 0
M  V30 4 C 3.314732 -4.109353 1.767044 0
M  V30 5 C 3.195595 -4.621730 0.493597 0
M  V30 6 C 2.743135 -3.792171 -0.526120 0
M  V30 7 C 2.404554 -2.456240 -0.303683 0
M  V30 8 N 1.922940 -1.581772 -1.335356 0
M  V30 9 C 1.628215 -0.245202 -0.940227 0
M  V30 10 N 2.385719 0.869506 -1.058140 0
M  V30 11 C 1.893692 2.055232 -0.585954 0
M  V30 12 C 0.640007 2.011360 -0.017192 0
M  V30 13 C -0.065234 3.063641 0.527670 0
M  V30 14 C 0.199230 4.418286 0.688578 0
M  V30 15 C -0.749731 5.214257 1.294509 0
M  V30 16 N -1.937650 4.711455 1.739098 0
M  V30 17 C -2.211963 3.386117 1.588687 0
M  V30 18 O -3.430923 2.936938 2.058450 0
M  V30 19 C -1.286069 2.550789 0.985410 0
M  V30 20 N -1.331277 1.213893 0.728371 0
M  V30 21 C -2.349807 0.251956 1.004171 0
M  V30 22 C -1.832819 -0.941122 1.775848 0
M  V30 23 C -2.248469 -2.157717 1.002251 0
M  V30 24 C -3.340245 -1.723386 0.051748 0
M  V30 25 C -2.957906 -0.290996 -0.276265 0
M  V30 26 C -0.168977 0.905009 0.125805 0
M  V30 27 N 0.391579 -0.240219 -0.369718 0
M  V30 28 N 2.555950 -2.060001 0.965019 0
M  V30 29 C 2.984184 -2.801677 1.988006 0
M  V30 30 H 4.155200 -4.914395 4.982681 0
M  V30 31 H 3.443037 -5.653137 0.260682 0
M  V30 32 H 2.645880 -4.180143 -1.532740 0
M  V30 33 H 1.834455 -2.018651 -2.287298 0
M  V30 34 H 2.497152 2.932022 -0.682438 0
M  V30 35 H 1.145497 4.842610 0.339462 0
M  V30 36 H -0.544907 6.287093 1.424587 0
M  V30 37 H -3.545723 2.727646 3.050851 0
M  V30 38 H -3.162630 0.727490 1.582209 0
M  V30 39 H -0.761580 -0.870761 2.006130 0
M  V30 40 H -2.357521 -1.000463 2.764248 0
M  V30 41 H -1.432859 -2.587564 0.395979 0
M  V30 42 H -2.722927 -2.932913 1.666739 0
M  V30 43 H -4.320886 -1.733346 0.590768 0
M  V30 44 H -3.396642 -2.376600 -0.842184 0
M  V30 45 H -3.827107 0.304487 -0.591686 0
M  V30 46 H -2.217556 -0.254104 -1.097733 0
M  V30 47 H 3.050036 -2.316802 2.973498 0
M  V30 END ATOM
M  V30 BEGIN BOND
M  V30 1 2 1 2
M  V30 2 1 2 3
M  V30 3 1 2 4
M  V30 4 2 4 5
M  V30 5 1 5 6
M  V30 6 2 6 7
M  V30 7 1 7 8
M  V30 8 1 8 9
M  V30 9 2 9 10
M  V30 10 1 10 11
M  V30 11 2 11 12
M  V30 12 1 12 13
M  V30 13 2 13 14
M  V30 14 1 14 15
M  V30 15 2 15 16
M  V30 16 1 16 17
M  V30 17 1 17 18
M  V30 18 2 17 19
M  V30 19 1 19 20
M  V30 20 1 20 21
M  V30 21 1 21 22
M  V30 22 1 22 23
M  V30 23 1 23 24
M  V30 24 1 24 25
M  V30 25 1 20 26
M  V30 26 2 26 27
M  V30 27 1 7 28
M  V30 28 2 28 29
M  V30 29 1 29 4
M  V30 30 1 27 9
M  V30 31 1 26 12
M  V30 32 1 19 13
M  V30 33 1 25 21
M  V30 34 1 3 30
M  V30 35 1 5 31
M  V30 36 1 6 32
M  V30 37 1 8 33
M  V30 38 1 11 34
M  V30 39 1 14 35
M  V30 40 1 15 36
M  V30 41 1 18 37
M  V30 42 1 21 38
M  V30 43 1 22 39
M  V30 44 1 22 40
M  V30 45 1 23 41
M  V30 46 1 23 42
M  V30 47 1 24 43
M  V30 48 1 24 44
M  V30 49 1 25 45
M  V30 50 1 25 46
M  V30 51 1 29 47
M  V30 END BOND
M  V30 END CTAB
M  END
>  <Dataset>  (148) 
ChEMBL_Kinases

>  <Ligand_Instance>  (148) 
nan

>  <PDB_ID>  (148) 
nan

>  <Standardized_SMILES>  (148) 
O=C(O)c1ccc(Nc2ncc3c4ccnc(O)c4n(C4CCCC4)c3n2)nc1

>  <Name>  (148) 
nan

>  <Pocket>  (148) 
nan

>  <ATP_Site>  (148) 
nan

>  <Peripheral>  (148) 
nan

>  <Num_H_Atoms_ProtBoundConf>  (148) 
nan

>  <Num_Resolved_Atoms>  (148) 
nan

>  <Num_Not_Resolved_Atoms>  (148) 
nan

$$$$
CHEMBL2401967
     RDKit          3D

  0  0  0  0  0  0  0  0  0  0999 V3000
M  V30 BEGIN CTAB
M  V30 COUNTS 52 55 0 0 0
M  V30 BEGIN ATOM
M  V30 1 C 1.634069 -1.499530 3.282009 0
M  V30 2 C 1.138160 -2.863795 2.890910 0
M  V30 3 C 1.357348 -3.190697 1.437861 0 CFG=2
M  V30 4 C 2.793649 -3.158493 1.070137 0
M  V30 5 O 3.526222 -4.178011 1.010607 0
M  V30 6 N 3.380734 -1.895630 0.765358 0
M  V30 7 C 4.817953 -1.653953 0.878576 0
M  V30 8 C 2.525314 -0.842491 0.336200 0
M  V30 9 C 3.100757 0.377094 0.043193 0
M  V30 10 N 2.241845 1.331057 -0.357125 0
M  V30 11 C 0.908656 1.154882 -0.478044 0
M  V30 12 N 0.213215 2.313973 -0.919712 0
M  V30 13 C 0.651831 3.377623 -1.606260 0
M  V30 14 C -0.361383 4.291494 -1.833690 0
M  V30 15 N -1.450769 3.746366 -1.256486 0
M  V30 16 C -1.077256 2.557358 -0.714340 0
M  V30 17 C -2.108153 1.784050 -0.030417 0
M  V30 18 C -2.146739 1.387117 1.302104 0
M  V30 19 C -3.227558 0.654307 1.756628 0
M  V30 20 C -4.275929 0.299551 0.932232 0
M  V30 21 F -5.312744 -0.422135 1.429426 0
M  V30 22 C -4.274577 0.674295 -0.396490 0
M  V30 23 C -3.191145 1.403353 -0.831643 0
M  V30 24 N 0.336133 -0.007541 -0.201785 0
M  V30 25 C 1.147432 -1.025970 0.211894 0
M  V30 26 N 0.640543 -2.313876 0.533656 0
M  V30 27 C -0.618179 -2.722886 -0.074589 0
M  V30 28 C -1.749333 -2.845251 0.892651 0
M  V30 29 C -2.978809 -3.277776 0.087008 0
M  V30 30 F -3.204634 -2.302292 -0.846374 0
M  V30 31 F -2.628735 -4.436984 -0.577756 0
M  V30 32 F -4.061460 -3.480488 0.917957 0
M  V30 33 H 1.076575 -0.673311 2.840170 0
M  V30 34 H 1.484483 -1.399759 4.391675 0
M  V30 35 H 2.743999 -1.436821 3.163017 0
M  V30 36 H 1.682711 -3.625494 3.485571 0
M  V30 37 H 0.074542 -2.942385 3.185116 0
M  V30 38 H 1.000372 -4.256866 1.320686 0
M  V30 39 H 5.049611 -0.806734 1.569924 0
M  V30 40 H 5.279459 -1.412373 -0.116671 0
M  V30 41 H 5.324628 -2.553345 1.247587 0
M  V30 42 H 4.170343 0.564253 0.126049 0
M  V30 43 H 1.672591 3.521999 -1.949200 0
M  V30 44 H -0.276142 5.221961 -2.356517 0
M  V30 45 H -1.293820 1.705926 1.872754 0
M  V30 46 H -3.208668 0.365593 2.820512 0
M  V30 47 H -5.082543 0.410790 -1.064277 0
M  V30 48 H -3.228085 1.681945 -1.896927 0
M  V30 49 H -0.442960 -3.760988 -0.484761 0
M  V30 50 H -0.889025 -2.109663 -0.932255 0
M  V30 51 H -1.942055 -1.933910 1.487497 0
M  V30 52 H -1.578130 -3.692081 1.620044 0
M  V30 END ATOM
M  V30 BEGIN BOND
M  V30 1 1 1 2
M  V30 2 1 2 3
M  V30 3 1 3 4
M  V30 4 2 4 5
M  V30 5 1 4 6
M  V30 6 1 6 7
M  V30 7 1 6 8
M  V30 8 2 8 9
M  V30 9 1 9 10
M  V30 10 2 10 11
M  V30 11 1 11 12
M  V30 12 1 12 13
M  V30 13 2 13 14
M  V30 14 1 14 15
M  V30 15 2 15 16
M  V30 16 1 16 17
M  V30 17 2 17 18
M  V30 18 1 18 19
M  V30 19 2 19 20
M  V30 20 1 20 21
M  V30 21 1 20 22
M  V30 22 2 22 23
M  V30 23 1 11 24
M  V30 24 2 24 25
M  V30 25 1 25 26
M  V30 26 1 26 27
M  V30 27 1 27 28
M  V30 28 1 28 29
M  V30 29 1 29 30
M  V30 30 1 29 31
M  V30 31 1 29 32
M  V30 32 1 26 3
M  V30 33 1 25 8
M  V30 34 1 16 12
M  V30 35 1 23 17
M  V30 36 1 1 33
M  V30 37 1 1 34
M  V30 38 1 1 35
M  V30 39 1 2 36
M  V30 40 1 2 37
M  V30 41 1 3 38 CFG=1
M  V30 42 1 7 39
M  V30 43 1 7 40
M  V30 44 1 7 41
M  V30 45 1 9 42
M  V30 46 1 13 43
M  V30 47 1 14 44
M  V30 48 1 18 45
M  V30 49 1 19 46
M  V30 50 1 22 47
M  V30 51 1 23 48
M  V30 52 1 27 49
M  V30 53 1 27 50
M  V30 54 1 28 51
M  V30 55 1 28 52
M  V30 END BOND
M  V30 END CTAB
M  END
>  <Dataset>  (149) 
ChEMBL_Kinases

>  <Ligand_Instance>  (149) 
nan

>  <PDB_ID>  (149) 
nan

>  <Standardized_SMILES>  (149) 
CC[C@@H]1C(=O)N(C)c2cnc(-n3ccnc3-c3ccc(F)cc3)nc2N1CCC(F)(F)F

>  <Name>  (149) 
nan

>  <Pocket>  (149) 
nan

>  <ATP_Site>  (149) 
nan

>  <Peripheral>  (149) 
nan

>  <Num_H_Atoms_ProtBoundConf>  (149) 
nan

>  <Num_Resolved_Atoms>  (149) 
nan

>  <Num_Not_Resolved_Atoms>  (149) 
nan

$$$$
CHEMBL2401968
     RDKit          3D

  0  0  0  0  0  0  0  0  0  0999 V3000
M  V30 BEGIN CTAB
M  V30 COUNTS 56 60 0 0 0
M  V30 BEGIN ATOM
M  V30 1 C 1.024955 -1.904910 3.021004 0
M  V30 2 C 0.981538 -3.145097 2.185494 0
M  V30 3 C 1.588728 -3.014241 0.820353 0
M  V30 4 C 3.030621 -2.642181 0.851291 0
M  V30 5 O 3.900413 -3.543294 0.622846 0
M  V30 6 N 3.470406 -1.319019 1.126399 0
M  V30 7 C 4.772925 -1.053297 1.673510 0
M  V30 8 C 2.583483 -0.270063 0.843980 0
M  V30 9 C 2.915665 1.045532 1.079055 0
M  V30 10 N 1.982465 1.981642 0.772892 0
M  V30 11 C 0.775242 1.607847 0.255659 0
M  V30 12 N -0.109970 2.687531 -0.019924 0
M  V30 13 C 0.105507 3.928891 -0.447200 0
M  V30 14 C -1.080747 4.623491 -0.569269 0
M  V30 15 N -2.066626 3.757263 -0.196303 0
M  V30 16 C -1.455180 2.598673 0.129727 0
M  V30 17 C -2.282687 1.469684 0.574867 0
M  V30 18 C -2.057414 0.686102 1.699034 0
M  V30 19 C -2.926737 -0.346541 1.991542 0
M  V30 20 C -4.028133 -0.651639 1.216921 0
M  V30 21 F -4.850518 -1.671852 1.543101 0
M  V30 22 C -4.282621 0.106539 0.091972 0
M  V30 23 C -3.403518 1.135375 -0.186224 0
M  V30 24 N 0.464840 0.324239 0.031723 0
M  V30 25 C 1.360334 -0.630304 0.320991 0
M  V30 26 N 0.912617 -1.966392 0.039029 0
M  V30 27 C -0.057161 -2.432720 -0.863444 0
M  V30 28 C -1.257290 -3.138196 -0.261470 0
M  V30 29 C -2.271150 -3.222083 -1.393968 0
M  V30 30 C -1.816864 -2.271150 -2.479230 0
M  V30 31 F -1.494733 -3.023632 -3.592303 0
M  V30 32 F -2.834030 -1.429587 -2.812873 0
M  V30 33 C -0.591708 -1.533648 -1.919784 0
M  V30 34 H 0.467657 -2.113080 3.985124 0
M  V30 35 H 2.019383 -1.585735 3.346401 0
M  V30 36 H 0.407512 -1.109745 2.540985 0
M  V30 37 H 1.502639 -3.939121 2.791564 0
M  V30 38 H -0.067348 -3.486754 2.117966 0
M  V30 39 H 1.482708 -4.010083 0.325228 0
M  V30 40 H 4.712279 -0.703192 2.719448 0
M  V30 41 H 5.344419 -0.345856 1.008431 0
M  V30 42 H 5.357732 -1.998167 1.633968 0
M  V30 43 H 3.865605 1.301373 1.483145 0
M  V30 44 H 1.089655 4.327425 -0.666296 0
M  V30 45 H -1.258924 5.645328 -0.889157 0
M  V30 46 H -1.193222 0.945779 2.283670 0
M  V30 47 H -2.711958 -0.932999 2.879990 0
M  V30 48 H -5.122839 -0.086243 -0.544594 0
M  V30 49 H -3.611044 1.732511 -1.079477 0
M  V30 50 H 0.464359 -3.276527 -1.444454 0
M  V30 51 H -1.681836 -2.618452 0.601227 0
M  V30 52 H -1.035398 -4.179306 0.041886 0
M  V30 53 H -3.254469 -2.936853 -0.983327 0
M  V30 54 H -2.367988 -4.261638 -1.775862 0
M  V30 55 H -0.877684 -0.513580 -1.605625 0
M  V30 56 H 0.089615 -1.403913 -2.796795 0
M  V30 END ATOM
M  V30 BEGIN BOND
M  V30 1 1 1 2
M  V30 2 1 2 3
M  V30 3 1 3 4
M  V30 4 2 4 5
M  V30 5 1 4 6
M  V30 6 1 6 7
M  V30 7 1 6 8
M  V30 8 2 8 9
M  V30 9 1 9 10
M  V30 10 2 10 11
M  V30 11 1 11 12
M  V30 12 1 12 13
M  V30 13 2 13 14
M  V30 14 1 14 15
M  V30 15 2 15 16
M  V30 16 1 16 17
M  V30 17 2 17 18
M  V30 18 1 18 19
M  V30 19 2 19 20
M  V30 20 1 20 21
M  V30 21 1 20 22
M  V30 22 2 22 23
M  V30 23 1 11 24
M  V30 24 2 24 25
M  V30 25 1 25 26
M  V30 26 1 26 27
M  V30 27 1 27 28
M  V30 28 1 28 29
M  V30 29 1 29 30
M  V30 30 1 30 31
M  V30 31 1 30 32
M  V30 32 1 30 33
M  V30 33 1 26 3
M  V30 34 1 33 27
M  V30 35 1 25 8
M  V30 36 1 16 12
M  V30 37 1 23 17
M  V30 38 1 1 34
M  V30 39 1 1 35
M  V30 40 1 1 36
M  V30 41 1 2 37
M  V30 42 1 2 38
M  V30 43 1 3 39
M  V30 44 1 7 40
M  V30 45 1 7 41
M  V30 46 1 7 42
M  V30 47 1 9 43
M  V30 48 1 13 44
M  V30 49 1 14 45
M  V30 50 1 18 46
M  V30 51 1 19 47
M  V30 52 1 22 48
M  V30 53 1 23 49
M  V30 54 1 27 50
M  V30 55 1 28 51
M  V30 56 1 28 52
M  V30 57 1 29 53
M  V30 58 1 29 54
M  V30 59 1 33 55
M  V30 60 1 33 56
M  V30 END BOND
M  V30 END CTAB
M  END
>  <Dataset>  (150) 
ChEMBL_Kinases

>  <Ligand_Instance>  (150) 
nan

>  <PDB_ID>  (150) 
nan

>  <Standardized_SMILES>  (150) 
CCC1C(=O)N(C)c2cnc(-n3ccnc3-c3ccc(F)cc3)nc2N1C1CCC(F)(F)C1

>  <Name>  (150) 
nan

>  <Pocket>  (150) 
nan

>  <ATP_Site>  (150) 
nan

>  <Peripheral>  (150) 
nan

>  <Num_H_Atoms_ProtBoundConf>  (150) 
nan

>  <Num_Resolved_Atoms>  (150) 
nan

>  <Num_Not_Resolved_Atoms>  (150) 
nan

$$$$
CHEMBL4457389
     RDKit          3D

  0  0  0  0  0  0  0  0  0  0999 V3000
M  V30 BEGIN CTAB
M  V30 COUNTS 50 53 0 0 0
M  V30 BEGIN ATOM
M  V30 1 C -2.934270 -3.320855 -1.000468 0
M  V30 2 C -1.752701 -4.228994 -1.106899 0
M  V30 3 C -0.677856 -3.811982 -2.055758 0
M  V30 4 C -0.153713 -2.511011 -1.643591 0
M  V30 5 C 0.295256 -1.441457 -1.315926 0
M  V30 6 C 0.848153 -0.170839 -0.942251 0
M  V30 7 C 1.409898 0.716515 -1.843777 0
M  V30 8 Cl 1.581989 0.529121 -3.578058 0
M  V30 9 C 1.841889 1.831470 -1.163725 0
M  V30 10 C 2.461787 3.011193 -1.521946 0
M  V30 11 Cl 2.842836 3.271517 -3.217912 0
M  V30 12 C 2.770369 3.961246 -0.548414 0
M  V30 13 C 2.443572 3.690040 0.753955 0
M  V30 14 C 2.753070 4.663100 1.794662 0
M  V30 15 N 2.421074 4.400236 3.158315 0
M  V30 16 O 3.309954 5.770897 1.625089 0
M  V30 17 N 1.835426 2.529344 1.094777 0
M  V30 18 C 1.537046 1.612456 0.158997 0
M  V30 19 N 0.943880 0.409908 0.267829 0
M  V30 20 C 0.450000 -0.245536 1.456293 0 CFG=1
M  V30 21 C 0.718440 0.541036 2.711055 0
M  V30 22 C 0.360250 -0.329381 3.881817 0
M  V30 23 C -0.962952 -1.008862 3.783273 0
M  V30 24 N -1.308118 -1.466778 2.469568 0
M  V30 25 C -1.045293 -0.485926 1.434162 0
M  V30 26 C -2.144765 -5.670013 -1.389025 0
M  V30 27 O -1.040223 -6.052709 -0.609148 0
M  V30 28 C -1.288287 -4.894985 0.162042 0
M  V30 29 H -3.468589 -3.500121 -0.042627 0
M  V30 30 H -2.620511 -2.268662 -1.038482 0
M  V30 31 H -3.663180 -3.576461 -1.811905 0
M  V30 32 H 0.114976 -4.590865 -2.043751 0
M  V30 33 H -1.161050 -3.746278 -3.073945 0
M  V30 34 H 3.250366 4.875728 -0.822593 0
M  V30 35 H 3.050205 4.201742 3.970387 0
M  V30 36 H 3.213779 4.222653 3.827968 0
M  V30 37 H 0.932941 -1.246401 1.606073 0
M  V30 38 H 0.066095 1.429920 2.733050 0
M  V30 39 H 1.788099 0.794483 2.810028 0
M  V30 40 H 0.292918 0.374315 4.763642 0
M  V30 41 H 1.199420 -1.024742 4.159448 0
M  V30 42 H -1.780974 -0.363649 4.219351 0
M  V30 43 H -0.928794 -1.901689 4.450666 0
M  V30 44 H -2.269543 -1.823880 2.477214 0
M  V30 45 H -1.347664 -0.900608 0.473970 0
M  V30 46 H -1.610001 0.464451 1.620620 0
M  V30 47 H -2.063498 -5.938316 -2.453717 0
M  V30 48 H -3.110851 -5.931395 -0.919924 0
M  V30 49 H -0.360813 -4.455650 0.597100 0
M  V30 50 H -2.138518 -5.034764 0.851757 0
M  V30 END ATOM
M  V30 BEGIN BOND
M  V30 1 1 1 2
M  V30 2 1 2 3
M  V30 3 1 3 4
M  V30 4 3 4 5
M  V30 5 1 5 6
M  V30 6 2 6 7
M  V30 7 1 7 8
M  V30 8 1 7 9
M  V30 9 2 9 10
M  V30 10 1 10 11
M  V30 11 1 10 12
M  V30 12 2 12 13
M  V30 13 1 13 14
M  V30 14 1 14 15
M  V30 15 2 14 16
M  V30 16 1 13 17
M  V30 17 2 17 18
M  V30 18 1 18 19
M  V30 19 1 19 20
M  V30 20 1 20 21
M  V30 21 1 21 22
M  V30 22 1 22 23
M  V30 23 1 23 24
M  V30 24 1 24 25
M  V30 25 1 2 26
M  V30 26 1 26 27
M  V30 27 1 27 28
M  V30 28 1 28 2
M  V30 29 1 19 6
M  V30 30 1 25 20
M  V30 31 1 18 9
M  V30 32 1 1 29
M  V30 33 1 1 30
M  V30 34 1 1 31
M  V30 35 1 3 32
M  V30 36 1 3 33
M  V30 37 1 12 34
M  V30 38 1 15 35
M  V30 39 1 15 36
M  V30 40 1 20 37 CFG=1
M  V30 41 1 21 38
M  V30 42 1 21 39
M  V30 43 1 22 40
M  V30 44 1 22 41
M  V30 45 1 23 42
M  V30 46 1 23 43
M  V30 47 1 24 44
M  V30 48 1 25 45
M  V30 49 1 25 46
M  V30 50 1 26 47
M  V30 51 1 26 48
M  V30 52 1 28 49
M  V30 53 1 28 50
M  V30 END BOND
M  V30 END CTAB
M  END
>  <Dataset>  (151) 
ChEMBL_Kinases

>  <Ligand_Instance>  (151) 
nan

>  <PDB_ID>  (151) 
nan

>  <Standardized_SMILES>  (151) 
CC1(CC#Cc2c(Cl)c3c(Cl)cc(C(N)=O)nc3n2[C@H]2CCCNC2)COC1

>  <Name>  (151) 
nan

>  <Pocket>  (151) 
nan

>  <ATP_Site>  (151) 
nan

>  <Peripheral>  (151) 
nan

>  <Num_H_Atoms_ProtBoundConf>  (151) 
nan

>  <Num_Resolved_Atoms>  (151) 
nan

>  <Num_Not_Resolved_Atoms>  (151) 
nan

$$$$
CHEMBL4457163
     RDKit          3D

  0  0  0  0  0  0  0  0  0  0999 V3000
M  V30 BEGIN CTAB
M  V30 COUNTS 29 30 0 0 0
M  V30 BEGIN ATOM
M  V30 1 C -2.590110 -3.551946 2.882995 0
M  V30 2 O -1.962161 -2.854561 3.931531 0
M  V30 3 C -1.000852 -1.873403 3.713604 0
M  V30 4 C -0.394743 -1.197142 4.777516 0
M  V30 5 N 0.544038 -0.241011 4.521585 0
M  V30 6 C 0.872932 0.036942 3.245189 0
M  V30 7 C 0.298262 -0.607755 2.164271 0
M  V30 8 C 0.715097 -0.241474 0.815753 0
M  V30 9 C 0.682896 -1.241937 -0.146948 0
M  V30 10 C 1.062783 -0.987511 -1.470971 0
M  V30 11 C 1.457638 0.309095 -1.714340 0
M  V30 12 C 1.850396 0.548388 -3.115344 0
M  V30 13 N 2.276144 1.837157 -3.522206 0
M  V30 14 O 1.839944 -0.326000 -4.016209 0
M  V30 15 C 1.518438 1.356128 -0.820686 0
M  V30 16 C 1.128974 1.026614 0.461735 0
M  V30 17 C -0.654535 -1.578786 2.410833 0
M  V30 18 H -1.874870 -4.331317 2.521666 0
M  V30 19 H -3.500909 -4.044326 3.312637 0
M  V30 20 H -2.920363 -2.912579 2.043903 0
M  V30 21 H -0.675752 -1.438079 5.789348 0
M  V30 22 H 1.625978 0.803515 3.037889 0
M  V30 23 H 0.362039 -2.256097 0.092517 0
M  V30 24 H 1.059967 -1.718497 -2.262488 0
M  V30 25 H 2.479008 2.800961 -3.841059 0
M  V30 26 H 1.642154 2.597820 -3.874026 0
M  V30 27 H 1.844269 2.336564 -1.119027 0
M  V30 28 H 1.142631 1.780938 1.236538 0
M  V30 29 H -1.106395 -2.084102 1.592487 0
M  V30 END ATOM
M  V30 BEGIN BOND
M  V30 1 1 1 2
M  V30 2 1 2 3
M  V30 3 2 3 4
M  V30 4 1 4 5
M  V30 5 2 5 6
M  V30 6 1 6 7
M  V30 7 1 7 8
M  V30 8 2 8 9
M  V30 9 1 9 10
M  V30 10 2 10 11
M  V30 11 1 11 12
M  V30 12 1 12 13
M  V30 13 2 12 14
M  V30 14 1 11 15
M  V30 15 2 15 16
M  V30 16 2 7 17
M  V30 17 1 17 3
M  V30 18 1 16 8
M  V30 19 1 1 18
M  V30 20 1 1 19
M  V30 21 1 1 20
M  V30 22 1 4 21
M  V30 23 1 6 22
M  V30 24 1 9 23
M  V30 25 1 10 24
M  V30 26 1 13 25
M  V30 27 1 13 26
M  V30 28 1 15 27
M  V30 29 1 16 28
M  V30 30 1 17 29
M  V30 END BOND
M  V30 END CTAB
M  END
>  <Dataset>  (152) 
ChEMBL_Kinases

>  <Ligand_Instance>  (152) 
nan

>  <PDB_ID>  (152) 
nan

>  <Standardized_SMILES>  (152) 
COc1cncc(-c2ccc(C(N)=O)cc2)c1

>  <Name>  (152) 
nan

>  <Pocket>  (152) 
nan

>  <ATP_Site>  (152) 
nan

>  <Peripheral>  (152) 
nan

>  <Num_H_Atoms_ProtBoundConf>  (152) 
nan

>  <Num_Resolved_Atoms>  (152) 
nan

>  <Num_Not_Resolved_Atoms>  (152) 
nan

$$$$
CHEMBL3706685
     RDKit          3D

  0  0  0  0  0  0  0  0  0  0999 V3000
M  V30 BEGIN CTAB
M  V30 COUNTS 75 78 0 0 0
M  V30 BEGIN ATOM
M  V30 1 C 4.246246 -3.035217 3.892676 0
M  V30 2 C 5.480579 -3.829328 3.532988 0
M  V30 3 N 5.332777 -4.550637 2.363025 0
M  V30 4 C 4.540484 -5.664903 2.184074 0
M  V30 5 C 3.058474 -5.396973 2.255895 0
M  V30 6 O 2.392971 -6.628789 2.038344 0
M  V30 7 C 6.162856 -4.168277 1.290907 0
M  V30 8 C 5.703104 -2.775981 0.836716 0
M  V30 9 C 6.559957 -2.304439 -0.303782 0
M  V30 10 O 6.171531 -1.053813 -0.727579 0
M  V30 11 C 4.997259 -0.665416 -1.275217 0
M  V30 12 C 3.809039 -1.273385 -1.637982 0
M  V30 13 C 2.752139 -0.589358 -2.187950 0
M  V30 14 C 2.846391 0.764541 -2.401366 0
M  V30 15 C 1.739182 1.369875 -2.948364 0
M  V30 16 N 0.516483 0.769352 -3.340795 0
M  V30 17 C -0.662563 0.373075 -2.608572 0
M  V30 18 C -0.547606 0.294219 -1.239831 0
M  V30 19 C -1.718453 -0.081508 -0.606390 0
M  V30 20 C -2.875103 -0.344095 -1.315389 0
M  V30 21 N -4.106525 -0.746998 -0.696561 0
M  V30 22 C -4.963537 0.312870 -0.234855 0
M  V30 23 O -4.492846 1.460194 -0.437759 0
M  V30 24 N -6.222533 0.183467 0.396478 0
M  V30 25 C -6.960029 1.350255 0.823217 0
M  V30 26 C -7.200185 1.347931 2.315547 0
M  V30 27 C -7.870726 2.634987 2.703891 0
M  V30 28 C -7.966308 3.621100 1.567877 0
M  V30 29 C -8.660147 3.038915 0.359101 0
M  V30 30 C -8.242717 1.589986 0.093783 0
M  V30 31 C -2.915285 -0.243023 -2.697763 0
M  V30 32 C -1.761170 0.132959 -3.402939 0
M  V30 33 N 1.830931 2.705153 -3.149949 0
M  V30 34 C 2.944645 3.390642 -2.831256 0
M  V30 35 N 3.990809 2.742413 -2.301285 0
M  V30 36 C 3.991330 1.419447 -2.064869 0
M  V30 37 C 5.062814 0.712653 -1.505347 0
M  V30 38 H 3.551529 -2.935354 3.034060 0
M  V30 39 H 3.683775 -3.493028 4.727400 0
M  V30 40 H 4.531240 -2.013409 4.278688 0
M  V30 41 H 5.704016 -4.477954 4.441129 0
M  V30 42 H 6.317403 -3.073164 3.473259 0
M  V30 43 H 4.759615 -6.467893 2.972419 0
M  V30 44 H 4.702114 -6.159436 1.181032 0
M  V30 45 H 2.730424 -4.653640 1.528713 0
M  V30 46 H 2.821230 -5.136286 3.317298 0
M  V30 47 H 1.490574 -6.383961 1.658323 0
M  V30 48 H 6.066708 -4.871581 0.446077 0
M  V30 49 H 7.245501 -4.065689 1.597684 0
M  V30 50 H 4.642711 -2.842159 0.635604 0
M  V30 51 H 5.884599 -2.092894 1.708885 0
M  V30 52 H 7.616628 -2.266465 0.095167 0
M  V30 53 H 6.541422 -3.069441 -1.127617 0
M  V30 54 H 3.821511 -2.331919 -1.451811 0
M  V30 55 H 1.860233 -1.141917 -2.441413 0
M  V30 56 H 0.645085 0.656548 -4.369043 0
M  V30 57 H 0.374015 0.506854 -0.721352 0
M  V30 58 H -1.731181 -0.173495 0.485548 0
M  V30 59 H -4.480507 -1.728148 -0.526500 0
M  V30 60 H -6.524005 -0.808880 0.504608 0
M  V30 61 H -6.309424 2.233831 0.597361 0
M  V30 62 H -6.229449 1.245841 2.864166 0
M  V30 63 H -7.793852 0.471330 2.636355 0
M  V30 64 H -8.889932 2.473607 3.115952 0
M  V30 65 H -7.310887 3.154161 3.533030 0
M  V30 66 H -8.591194 4.467079 1.925118 0
M  V30 67 H -6.988605 4.063622 1.291307 0
M  V30 68 H -8.375707 3.709808 -0.505188 0
M  V30 69 H -9.757796 3.138767 0.460121 0
M  V30 70 H -9.048398 0.945396 0.480703 0
M  V30 71 H -8.108275 1.522729 -1.006435 0
M  V30 72 H -3.789270 -0.439262 -3.303289 0
M  V30 73 H -1.744721 0.223934 -4.463484 0
M  V30 74 H 2.987568 4.463470 -3.006814 0
M  V30 75 H 5.887149 1.405989 -1.304930 0
M  V30 END ATOM
M  V30 BEGIN BOND
M  V30 1 1 1 2
M  V30 2 1 2 3
M  V30 3 1 3 4
M  V30 4 1 4 5
M  V30 5 1 5 6
M  V30 6 1 3 7
M  V30 7 1 7 8
M  V30 8 1 8 9
M  V30 9 1 9 10
M  V30 10 1 10 11
M  V30 11 2 11 12
M  V30 12 1 12 13
M  V30 13 2 13 14
M  V30 14 1 14 15
M  V30 15 1 15 16
M  V30 16 1 16 17
M  V30 17 2 17 18
M  V30 18 1 18 19
M  V30 19 2 19 20
M  V30 20 1 20 21
M  V30 21 1 21 22
M  V30 22 2 22 23
M  V30 23 1 22 24
M  V30 24 1 24 25
M  V30 25 1 25 26
M  V30 26 1 26 27
M  V30 27 1 27 28
M  V30 28 1 28 29
M  V30 29 1 29 30
M  V30 30 1 20 31
M  V30 31 2 31 32
M  V30 32 2 15 33
M  V30 33 1 33 34
M  V30 34 2 34 35
M  V30 35 1 35 36
M  V30 36 2 36 37
M  V30 37 1 37 11
M  V30 38 1 36 14
M  V30 39 1 32 17
M  V30 40 1 30 25
M  V30 41 1 1 38
M  V30 42 1 1 39
M  V30 43 1 1 40
M  V30 44 1 2 41
M  V30 45 1 2 42
M  V30 46 1 4 43
M  V30 47 1 4 44
M  V30 48 1 5 45
M  V30 49 1 5 46
M  V30 50 1 6 47
M  V30 51 1 7 48
M  V30 52 1 7 49
M  V30 53 1 8 50
M  V30 54 1 8 51
M  V30 55 1 9 52
M  V30 56 1 9 53
M  V30 57 1 12 54
M  V30 58 1 13 55
M  V30 59 1 16 56
M  V30 60 1 18 57
M  V30 61 1 19 58
M  V30 62 1 21 59
M  V30 63 1 24 60
M  V30 64 1 25 61
M  V30 65 1 26 62
M  V30 66 1 26 63
M  V30 67 1 27 64
M  V30 68 1 27 65
M  V30 69 1 28 66
M  V30 70 1 28 67
M  V30 71 1 29 68
M  V30 72 1 29 69
M  V30 73 1 30 70
M  V30 74 1 30 71
M  V30 75 1 31 72
M  V30 76 1 32 73
M  V30 77 1 34 74
M  V30 78 1 37 75
M  V30 END BOND
M  V30 END CTAB
M  END
>  <Dataset>  (153) 
ChEMBL_Kinases

>  <Ligand_Instance>  (153) 
nan

>  <PDB_ID>  (153) 
nan

>  <Standardized_SMILES>  (153) 
CCN(CCO)CCCOc1ccc2c(Nc3ccc(NC(=O)NC4CCCCC4)cc3)ncnc2c1

>  <Name>  (153) 
nan

>  <Pocket>  (153) 
nan

>  <ATP_Site>  (153) 
nan

>  <Peripheral>  (153) 
nan

>  <Num_H_Atoms_ProtBoundConf>  (153) 
nan

>  <Num_Resolved_Atoms>  (153) 
nan

>  <Num_Not_Resolved_Atoms>  (153) 
nan

$$$$
CHEMBL3702123
     RDKit          3D

  0  0  0  0  0  0  0  0  0  0999 V3000
M  V30 BEGIN CTAB
M  V30 COUNTS 59 64 0 0 0
M  V30 BEGIN ATOM
M  V30 1 O 0.811336 -6.850987 0.615220 0
M  V30 2 C 0.681719 -5.781051 -0.027232 0
M  V30 3 C 1.404023 -4.518976 0.089649 0
M  V30 4 C 0.724827 -3.389060 0.499639 0
M  V30 5 C 1.428616 -2.209018 0.602310 0
M  V30 6 C 2.763981 -2.044558 0.331814 0
M  V30 7 N 3.487862 -0.828894 0.432188 0
M  V30 8 C 3.032098 0.449749 0.794857 0
M  V30 9 N 3.949738 1.429418 0.886282 0
M  V30 10 C 3.684542 2.696834 1.214143 0
M  V30 11 C 2.378589 3.036094 1.480249 0
M  V30 12 C 1.825791 4.247032 1.840523 0
M  V30 13 C 2.393579 5.484443 2.046369 0
M  V30 14 C 1.589383 6.541915 2.411253 0
M  V30 15 N 0.250520 6.316601 2.554562 0
M  V30 16 C -0.268571 5.094331 2.345099 0
M  V30 17 C 0.474286 3.990330 1.978344 0
M  V30 18 N 0.277087 2.693177 1.707218 0
M  V30 19 C -1.035815 2.145903 1.762749 0
M  V30 20 C -1.808923 2.671264 0.540300 0
M  V30 21 C -3.067768 1.831409 0.589696 0
M  V30 22 C -2.637281 0.532035 1.252114 0
M  V30 23 C -1.117209 0.663514 1.458457 0
M  V30 24 C 1.418595 2.051219 1.393400 0
M  V30 25 N 1.760889 0.795831 1.057250 0
M  V30 26 N 3.374603 -3.176316 -0.062620 0
M  V30 27 C 2.746051 -4.355100 -0.182437 0
M  V30 28 N -0.341493 -5.873605 -1.004901 0
M  V30 29 C -1.098541 -7.110662 -1.167675 0
M  V30 30 C -2.561058 -6.710818 -1.256059 0
M  V30 31 N -2.779066 -5.374992 -0.687401 0
M  V30 32 C -2.191505 -4.423310 -1.626112 0
M  V30 33 C -0.742899 -4.819647 -1.911299 0
M  V30 34 H -0.319642 -3.456317 0.725252 0
M  V30 35 H 0.858350 -1.375745 0.925618 0
M  V30 36 H 4.518206 -0.928695 0.192412 0
M  V30 37 H 4.504388 3.394364 1.254501 0
M  V30 38 H 3.451493 5.676096 1.935804 0
M  V30 39 H 1.928393 7.568650 2.601193 0
M  V30 40 H -1.332408 4.972516 2.477032 0
M  V30 41 H -1.587851 2.332603 2.688216 0
M  V30 42 H -1.200657 2.339491 -0.324991 0
M  V30 43 H -1.961784 3.742869 0.553633 0
M  V30 44 H -3.433405 1.674154 -0.444034 0
M  V30 45 H -3.809873 2.376533 1.203478 0
M  V30 46 H -3.167308 0.398245 2.214008 0
M  V30 47 H -2.885851 -0.326231 0.597066 0
M  V30 48 H -0.853045 0.008345 2.281738 0
M  V30 49 H -0.610236 0.416164 0.516938 0
M  V30 50 H 3.311063 -5.233139 -0.507827 0
M  V30 51 H -0.908123 -7.840518 -0.370663 0
M  V30 52 H -0.811362 -7.580707 -2.128235 0
M  V30 53 H -3.236872 -7.446411 -0.767071 0
M  V30 54 H -2.866899 -6.642219 -2.320054 0
M  V30 55 H -3.812367 -5.220679 -0.742850 0
M  V30 56 H -2.252182 -3.417074 -1.164393 0
M  V30 57 H -2.821290 -4.483786 -2.556972 0
M  V30 58 H -0.699578 -5.255369 -2.930909 0
M  V30 59 H -0.140275 -3.912183 -1.857292 0
M  V30 END ATOM
M  V30 BEGIN BOND
M  V30 1 2 1 2
M  V30 2 1 2 3
M  V30 3 2 3 4
M  V30 4 1 4 5
M  V30 5 2 5 6
M  V30 6 1 6 7
M  V30 7 1 7 8
M  V30 8 2 8 9
M  V30 9 1 9 10
M  V30 10 2 10 11
M  V30 11 1 11 12
M  V30 12 2 12 13
M  V30 13 1 13 14
M  V30 14 2 14 15
M  V30 15 1 15 16
M  V30 16 2 16 17
M  V30 17 1 17 18
M  V30 18 1 18 19
M  V30 19 1 19 20
M  V30 20 1 20 21
M  V30 21 1 21 22
M  V30 22 1 22 23
M  V30 23 1 18 24
M  V30 24 2 24 25
M  V30 25 1 6 26
M  V30 26 2 26 27
M  V30 27 1 2 28
M  V30 28 1 28 29
M  V30 29 1 29 30
M  V30 30 1 30 31
M  V30 31 1 31 32
M  V30 32 1 32 33
M  V30 33 1 27 3
M  V30 34 1 33 28
M  V30 35 1 25 8
M  V30 36 1 24 11
M  V30 37 1 17 12
M  V30 38 1 23 19
M  V30 39 1 4 34
M  V30 40 1 5 35
M  V30 41 1 7 36
M  V30 42 1 10 37
M  V30 43 1 13 38
M  V30 44 1 14 39
M  V30 45 1 16 40
M  V30 46 1 19 41
M  V30 47 1 20 42
M  V30 48 1 20 43
M  V30 49 1 21 44
M  V30 50 1 21 45
M  V30 51 1 22 46
M  V30 52 1 22 47
M  V30 53 1 23 48
M  V30 54 1 23 49
M  V30 55 1 27 50
M  V30 56 1 29 51
M  V30 57 1 29 52
M  V30 58 1 30 53
M  V30 59 1 30 54
M  V30 60 1 31 55
M  V30 61 1 32 56
M  V30 62 1 32 57
M  V30 63 1 33 58
M  V30 64 1 33 59
M  V30 END BOND
M  V30 END CTAB
M  END
>  <Dataset>  (154) 
ChEMBL_Kinases

>  <Ligand_Instance>  (154) 
nan

>  <PDB_ID>  (154) 
nan

>  <Standardized_SMILES>  (154) 
O=C(c1ccc(Nc2ncc3c4ccncc4n(C4CCCC4)c3n2)nc1)N1CCNCC1

>  <Name>  (154) 
nan

>  <Pocket>  (154) 
nan

>  <ATP_Site>  (154) 
nan

>  <Peripheral>  (154) 
nan

>  <Num_H_Atoms_ProtBoundConf>  (154) 
nan

>  <Num_Resolved_Atoms>  (154) 
nan

>  <Num_Not_Resolved_Atoms>  (154) 
nan

$$$$
CHEMBL3706686
     RDKit          3D

  0  0  0  0  0  0  0  0  0  0999 V3000
M  V30 BEGIN CTAB
M  V30 COUNTS 81 85 0 0 0
M  V30 BEGIN ATOM
M  V30 1 O 5.898547 2.004228 0.664876 0
M  V30 2 C 6.178261 0.908145 0.162041 0
M  V30 3 N 5.156756 -0.006478 -0.225151 0
M  V30 4 C 3.848934 0.527045 0.030541 0
M  V30 5 C 3.112447 0.441314 1.194225 0
M  V30 6 C 1.847868 1.021584 1.242008 0
M  V30 7 C 1.385928 1.666606 0.097973 0
M  V30 8 N 0.103836 2.266210 0.120885 0
M  V30 9 C -0.860319 2.476952 1.135629 0
M  V30 10 N -0.818172 3.661620 1.752818 0
M  V30 11 C -1.685775 3.965427 2.731364 0
M  V30 12 N -2.614023 3.072734 3.103025 0
M  V30 13 C -2.715891 1.873237 2.533229 0
M  V30 14 C -3.650524 0.881467 2.861649 0
M  V30 15 C -3.704744 -0.358085 2.232044 0
M  V30 16 O -4.715783 -1.074121 2.783407 0
M  V30 17 C -5.206163 -2.334356 2.551845 0
M  V30 18 C -5.732449 -2.612005 1.163892 0
M  V30 19 C -6.842692 -1.657010 0.868403 0
M  V30 20 N -7.464781 -1.794545 -0.406960 0
M  V30 21 C -8.244640 -2.960394 -0.619444 0
M  V30 22 C -7.585079 -4.171098 -1.142844 0
M  V30 23 N -6.294544 -3.861547 -1.700712 0
M  V30 24 C -5.939461 -4.914507 -2.631236 0
M  V30 25 C -5.683186 -6.193417 -1.868037 0
M  V30 26 O -5.333264 -7.227230 -2.744965 0
M  V30 27 C -6.429574 -2.620134 -2.461657 0
M  V30 28 C -6.623489 -1.444255 -1.522595 0
M  V30 29 C -2.782176 -0.600138 1.237458 0
M  V30 30 C -1.850088 0.337717 0.880420 0
M  V30 31 C -1.810627 1.557470 1.513049 0
M  V30 32 C 2.087757 1.773872 -1.079662 0
M  V30 33 C 3.351436 1.176061 -1.078429 0
M  V30 34 N 7.544056 0.551193 -0.033762 0
M  V30 35 C 8.635936 1.414254 0.345632 0
M  V30 36 C 9.631731 0.751813 1.242182 0
M  V30 37 C 10.832134 1.658327 1.381878 0
M  V30 38 C 11.599177 1.847671 0.102666 0
M  V30 39 C 10.723222 1.453619 -1.072645 0
M  V30 40 C 9.348827 2.040338 -0.827000 0
M  V30 41 H 5.366072 -0.956372 -0.647066 0
M  V30 42 H 3.598394 -0.089207 1.997578 0
M  V30 43 H 1.296582 0.941384 2.160864 0
M  V30 44 H -0.363553 2.683228 -0.693614 0
M  V30 45 H -1.687740 4.924927 3.266594 0
M  V30 46 H -4.288100 1.262298 3.666833 0
M  V30 47 H -6.016003 -2.528957 3.320696 0
M  V30 48 H -4.415414 -3.079621 2.839680 0
M  V30 49 H -6.148099 -3.665885 1.222921 0
M  V30 50 H -4.948029 -2.644825 0.412678 0
M  V30 51 H -6.542907 -0.607479 1.046714 0
M  V30 52 H -7.646142 -1.865526 1.634365 0
M  V30 53 H -9.062949 -2.686695 -1.349624 0
M  V30 54 H -8.811565 -3.265435 0.305461 0
M  V30 55 H -8.199365 -4.719462 -1.913513 0
M  V30 56 H -7.441927 -4.940878 -0.323353 0
M  V30 57 H -5.116619 -4.670119 -3.305939 0
M  V30 58 H -6.849194 -5.122106 -3.263923 0
M  V30 59 H -4.839744 -5.981447 -1.152183 0
M  V30 60 H -6.536653 -6.479683 -1.249856 0
M  V30 61 H -4.343174 -7.380881 -2.663064 0
M  V30 62 H -5.566311 -2.440891 -3.136163 0
M  V30 63 H -7.316430 -2.752113 -3.111618 0
M  V30 64 H -5.672184 -1.046957 -1.122581 0
M  V30 65 H -7.117354 -0.623272 -2.076423 0
M  V30 66 H -2.888117 -1.568704 0.813418 0
M  V30 67 H -1.150692 0.104606 0.097496 0
M  V30 68 H 1.689993 2.282649 -1.947063 0
M  V30 69 H 3.876543 1.286667 -2.038366 0
M  V30 70 H 7.787796 -0.384099 -0.474318 0
M  V30 71 H 8.167178 2.251464 0.908677 0
M  V30 72 H 9.912729 -0.270357 0.914583 0
M  V30 73 H 9.243617 0.611180 2.287818 0
M  V30 74 H 11.482357 1.363629 2.232990 0
M  V30 75 H 10.427016 2.663175 1.675065 0
M  V30 76 H 11.972094 2.881988 -0.029531 0
M  V30 77 H 12.488493 1.155658 0.136091 0
M  V30 78 H 11.100051 1.856711 -2.030655 0
M  V30 79 H 10.738292 0.352599 -1.127783 0
M  V30 80 H 8.724982 2.088710 -1.753561 0
M  V30 81 H 9.557151 3.133577 -0.617192 0
M  V30 END ATOM
M  V30 BEGIN BOND
M  V30 1 2 1 2
M  V30 2 1 2 3
M  V30 3 1 3 4
M  V30 4 2 4 5
M  V30 5 1 5 6
M  V30 6 2 6 7
M  V30 7 1 7 8
M  V30 8 1 8 9
M  V30 9 2 9 10
M  V30 10 1 10 11
M  V30 11 2 11 12
M  V30 12 1 12 13
M  V30 13 2 13 14
M  V30 14 1 14 15
M  V30 15 1 15 16
M  V30 16 1 16 17
M  V30 17 1 17 18
M  V30 18 1 18 19
M  V30 19 1 19 20
M  V30 20 1 20 21
M  V30 21 1 21 22
M  V30 22 1 22 23
M  V30 23 1 23 24
M  V30 24 1 24 25
M  V30 25 1 25 26
M  V30 26 1 23 27
M  V30 27 1 27 28
M  V30 28 2 15 29
M  V30 29 1 29 30
M  V30 30 2 30 31
M  V30 31 1 7 32
M  V30 32 2 32 33
M  V30 33 1 2 34
M  V30 34 1 34 35
M  V30 35 1 35 36
M  V30 36 1 36 37
M  V30 37 1 37 38
M  V30 38 1 38 39
M  V30 39 1 39 40
M  V30 40 1 33 4
M  V30 41 1 40 35
M  V30 42 1 31 9
M  V30 43 1 31 13
M  V30 44 1 28 20
M  V30 45 1 3 41
M  V30 46 1 5 42
M  V30 47 1 6 43
M  V30 48 1 8 44
M  V30 49 1 11 45
M  V30 50 1 14 46
M  V30 51 1 17 47
M  V30 52 1 17 48
M  V30 53 1 18 49
M  V30 54 1 18 50
M  V30 55 1 19 51
M  V30 56 1 19 52
M  V30 57 1 21 53
M  V30 58 1 21 54
M  V30 59 1 22 55
M  V30 60 1 22 56
M  V30 61 1 24 57
M  V30 62 1 24 58
M  V30 63 1 25 59
M  V30 64 1 25 60
M  V30 65 1 26 61
M  V30 66 1 27 62
M  V30 67 1 27 63
M  V30 68 1 28 64
M  V30 69 1 28 65
M  V30 70 1 29 66
M  V30 71 1 30 67
M  V30 72 1 32 68
M  V30 73 1 33 69
M  V30 74 1 34 70
M  V30 75 1 35 71
M  V30 76 1 36 72
M  V30 77 1 36 73
M  V30 78 1 37 74
M  V30 79 1 37 75
M  V30 80 1 38 76
M  V30 81 1 38 77
M  V30 82 1 39 78
M  V30 83 1 39 79
M  V30 84 1 40 80
M  V30 85 1 40 81
M  V30 END BOND
M  V30 END CTAB
M  END
>  <Dataset>  (155) 
ChEMBL_Kinases

>  <Ligand_Instance>  (155) 
nan

>  <PDB_ID>  (155) 
nan

>  <Standardized_SMILES>  (155) 
O=C(Nc1ccc(Nc2ncnc3cc(OCCCN4CCN(CCO)CC4)ccc23)cc1)NC1CCCCC1

>  <Name>  (155) 
nan

>  <Pocket>  (155) 
nan

>  <ATP_Site>  (155) 
nan

>  <Peripheral>  (155) 
nan

>  <Num_H_Atoms_ProtBoundConf>  (155) 
nan

>  <Num_Resolved_Atoms>  (155) 
nan

>  <Num_Not_Resolved_Atoms>  (155) 
nan

$$$$
CHEMBL2401971
     RDKit          3D

  0  0  0  0  0  0  0  0  0  0999 V3000
M  V30 BEGIN CTAB
M  V30 COUNTS 54 58 0 0 0
M  V30 BEGIN ATOM
M  V30 1 C 0.226834 -2.176714 3.103773 0
M  V30 2 C 0.053592 -3.334133 2.174310 0
M  V30 3 C 0.844184 -3.223897 0.893555 0 CFG=2
M  V30 4 C 2.286815 -3.138361 1.253993 0
M  V30 5 O 3.014215 -4.183397 1.322761 0
M  V30 6 N 2.910059 -1.902412 1.534212 0
M  V30 7 C 4.181532 -1.902490 2.239244 0
M  V30 8 C 2.264787 -0.725403 1.114150 0
M  V30 9 C 2.852600 0.493239 1.376745 0
M  V30 10 N 2.180771 1.593660 0.946589 0
M  V30 11 C 1.004626 1.493084 0.299245 0
M  V30 12 N 0.447349 2.764795 -0.076271 0
M  V30 13 C 1.112480 3.863113 -0.481444 0
M  V30 14 C 0.187757 4.853984 -0.739430 0
M  V30 15 N -1.053475 4.358416 -0.490234 0
M  V30 16 C -0.863569 3.069650 -0.083245 0
M  V30 17 C -1.990052 2.219274 0.273593 0
M  V30 18 C -2.625787 1.676620 -0.843924 0
M  V30 19 C -3.707964 0.849237 -0.720564 0
M  V30 20 C -4.173076 0.551085 0.540411 0
M  V30 21 C -3.553041 1.080589 1.635646 0
M  V30 22 C -2.462302 1.915743 1.537007 0
M  V30 23 N 0.429799 0.305007 0.042239 0
M  V30 24 C 1.059400 -0.836954 0.451109 0
M  V30 25 N 0.397337 -2.085847 0.148530 0
M  V30 26 C -0.630066 -2.065596 -0.871556 0 CFG=1
M  V30 27 C -0.139141 -3.035918 -1.956151 0
M  V30 28 C -1.003655 -4.233212 -1.745972 0
M  V30 29 O -1.766387 -4.066304 -0.618004 0
M  V30 30 C -1.923850 -2.690736 -0.501075 0
M  V30 31 H -0.401514 -2.388993 4.004735 0
M  V30 32 H -0.103316 -1.219196 2.686902 0
M  V30 33 H 1.262394 -2.072354 3.460997 0
M  V30 34 H -1.011184 -3.495579 1.951182 0
M  V30 35 H 0.355682 -4.263404 2.737158 0
M  V30 36 H 0.755993 -4.154356 0.288390 0
M  V30 37 H 4.276773 -1.091154 2.978884 0
M  V30 38 H 4.274748 -2.853292 2.837034 0
M  V30 39 H 5.022141 -1.931668 1.512143 0
M  V30 40 H 3.778057 0.559691 1.886774 0
M  V30 41 H 2.191257 3.944589 -0.584120 0
M  V30 42 H 0.369264 5.863441 -1.081509 0
M  V30 43 H -2.321742 1.861431 -1.880523 0
M  V30 44 H -4.217294 0.417498 -1.552416 0
M  V30 45 H -5.018230 -0.094205 0.655153 0
M  V30 46 H -3.877772 0.878705 2.648399 0
M  V30 47 H -1.904642 2.383491 2.343440 0
M  V30 48 H -0.755514 -1.054012 -1.275400 0
M  V30 49 H -0.220660 -2.578873 -2.965639 0
M  V30 50 H 0.908799 -3.319133 -1.834711 0
M  V30 51 H -0.385252 -5.163498 -1.580001 0
M  V30 52 H -1.595415 -4.473588 -2.662036 0
M  V30 53 H -2.407863 -2.344908 0.406593 0
M  V30 54 H -2.645521 -2.420211 -1.331972 0
M  V30 END ATOM
M  V30 BEGIN BOND
M  V30 1 1 1 2
M  V30 2 1 2 3
M  V30 3 1 3 4
M  V30 4 2 4 5
M  V30 5 1 4 6
M  V30 6 1 6 7
M  V30 7 1 6 8
M  V30 8 2 8 9
M  V30 9 1 9 10
M  V30 10 2 10 11
M  V30 11 1 11 12
M  V30 12 1 12 13
M  V30 13 2 13 14
M  V30 14 1 14 15
M  V30 15 2 15 16
M  V30 16 1 16 17
M  V30 17 2 17 18
M  V30 18 1 18 19
M  V30 19 2 19 20
M  V30 20 1 20 21
M  V30 21 2 21 22
M  V30 22 1 11 23
M  V30 23 2 23 24
M  V30 24 1 24 25
M  V30 25 1 25 26
M  V30 26 1 26 27
M  V30 27 1 27 28
M  V30 28 1 28 29
M  V30 29 1 29 30
M  V30 30 1 25 3
M  V30 31 1 30 26
M  V30 32 1 24 8
M  V30 33 1 16 12
M  V30 34 1 22 17
M  V30 35 1 1 31
M  V30 36 1 1 32
M  V30 37 1 1 33
M  V30 38 1 2 34
M  V30 39 1 2 35
M  V30 40 1 3 36 CFG=3
M  V30 41 1 7 37
M  V30 42 1 7 38
M  V30 43 1 7 39
M  V30 44 1 9 40
M  V30 45 1 13 41
M  V30 46 1 14 42
M  V30 47 1 18 43
M  V30 48 1 19 44
M  V30 49 1 20 45
M  V30 50 1 21 46
M  V30 51 1 22 47
M  V30 52 1 26 48 CFG=3
M  V30 53 1 27 49
M  V30 54 1 27 50
M  V30 55 1 28 51
M  V30 56 1 28 52
M  V30 57 1 30 53
M  V30 58 1 30 54
M  V30 END BOND
M  V30 END CTAB
M  END
>  <Dataset>  (156) 
ChEMBL_Kinases

>  <Ligand_Instance>  (156) 
nan

>  <PDB_ID>  (156) 
nan

>  <Standardized_SMILES>  (156) 
CC[C@@H]1C(=O)N(C)c2cnc(-n3ccnc3-c3ccccc3)nc2N1[C@H]1CCOC1

>  <Name>  (156) 
nan

>  <Pocket>  (156) 
nan

>  <ATP_Site>  (156) 
nan

>  <Peripheral>  (156) 
nan

>  <Num_H_Atoms_ProtBoundConf>  (156) 
nan

>  <Num_Resolved_Atoms>  (156) 
nan

>  <Num_Not_Resolved_Atoms>  (156) 
nan

$$$$
CHEMBL2401972
     RDKit          3D

  0  0  0  0  0  0  0  0  0  0999 V3000
M  V30 BEGIN CTAB
M  V30 COUNTS 54 58 0 0 0
M  V30 BEGIN ATOM
M  V30 1 C -0.933202 -2.759607 3.024769 0
M  V30 2 C 0.552769 -2.953542 2.814902 0
M  V30 3 C 0.864142 -3.275641 1.359820 0 CFG=2
M  V30 4 C 2.360249 -3.439173 1.306254 0
M  V30 5 O 3.134387 -4.427317 1.214840 0
M  V30 6 N 3.008979 -2.154315 1.378610 0
M  V30 7 C 4.389435 -1.974930 1.843556 0
M  V30 8 C 2.375512 -0.945946 1.008044 0
M  V30 9 C 2.974952 0.286113 1.069367 0
M  V30 10 N 2.279757 1.374399 0.691561 0
M  V30 11 C 0.998266 1.330811 0.244862 0
M  V30 12 N 0.418976 2.584168 -0.112198 0
M  V30 13 C 1.053816 3.646921 -0.598792 0
M  V30 14 C 0.170575 4.681660 -0.827459 0
M  V30 15 N -1.046048 4.227850 -0.465311 0
M  V30 16 C -0.872978 2.963547 -0.037981 0
M  V30 17 C -1.983364 2.145731 0.437993 0
M  V30 18 C -2.922338 1.896916 -0.571230 0
M  V30 19 C -4.057795 1.142952 -0.346921 0
M  V30 20 C -4.261613 0.626306 0.909190 0
M  V30 21 C -3.350960 0.864632 1.897486 0
M  V30 22 C -2.217642 1.612146 1.689642 0
M  V30 23 N 0.345564 0.136672 0.160136 0
M  V30 24 C 1.054911 -0.963928 0.544439 0
M  V30 25 N 0.424710 -2.229573 0.476271 0
M  V30 26 C -0.634803 -2.507281 -0.440926 0 CFG=2
M  V30 27 C -0.262081 -3.651432 -1.396403 0
M  V30 28 C -1.170660 -3.358942 -2.551315 0
M  V30 29 O -1.737536 -2.123929 -2.357326 0
M  V30 30 C -0.933192 -1.427426 -1.424123 0
M  V30 31 H -1.455385 -3.738533 3.030317 0
M  V30 32 H -1.360806 -2.060074 2.275010 0
M  V30 33 H -1.103057 -2.267847 4.004476 0
M  V30 34 H 0.888260 -3.806747 3.438819 0
M  V30 35 H 1.087411 -2.058346 3.156680 0
M  V30 36 H 0.441408 -4.266720 1.102279 0
M  V30 37 H 4.383666 -1.213593 2.650343 0
M  V30 38 H 5.043353 -1.656919 1.007008 0
M  V30 39 H 4.718901 -2.922422 2.315156 0
M  V30 40 H 3.980830 0.364208 1.414643 0
M  V30 41 H 2.131646 3.698420 -0.793304 0
M  V30 42 H 0.335855 5.681609 -1.214769 0
M  V30 43 H -2.845998 2.266537 -1.603266 0
M  V30 44 H -4.792774 0.941192 -1.114570 0
M  V30 45 H -5.147341 0.036305 1.090078 0
M  V30 46 H -3.475597 0.478310 2.890054 0
M  V30 47 H -1.432078 1.863617 2.395858 0
M  V30 48 H -1.585649 -2.837069 0.016530 0
M  V30 49 H 0.817037 -3.445045 -1.650536 0
M  V30 50 H -0.403310 -4.625348 -0.925925 0
M  V30 51 H -2.015585 -4.104369 -2.490532 0
M  V30 52 H -0.692842 -3.463225 -3.547151 0
M  V30 53 H -1.583418 -0.640781 -0.995875 0
M  V30 54 H -0.066355 -1.074457 -1.984378 0
M  V30 END ATOM
M  V30 BEGIN BOND
M  V30 1 1 1 2
M  V30 2 1 2 3
M  V30 3 1 3 4
M  V30 4 2 4 5
M  V30 5 1 4 6
M  V30 6 1 6 7
M  V30 7 1 6 8
M  V30 8 2 8 9
M  V30 9 1 9 10
M  V30 10 2 10 11
M  V30 11 1 11 12
M  V30 12 1 12 13
M  V30 13 2 13 14
M  V30 14 1 14 15
M  V30 15 2 15 16
M  V30 16 1 16 17
M  V30 17 2 17 18
M  V30 18 1 18 19
M  V30 19 2 19 20
M  V30 20 1 20 21
M  V30 21 2 21 22
M  V30 22 1 11 23
M  V30 23 2 23 24
M  V30 24 1 24 25
M  V30 25 1 25 26
M  V30 26 1 26 27
M  V30 27 1 27 28
M  V30 28 1 28 29
M  V30 29 1 29 30
M  V30 30 1 25 3
M  V30 31 1 30 26
M  V30 32 1 24 8
M  V30 33 1 16 12
M  V30 34 1 22 17
M  V30 35 1 1 31
M  V30 36 1 1 32
M  V30 37 1 1 33
M  V30 38 1 2 34
M  V30 39 1 2 35
M  V30 40 1 3 36 CFG=3
M  V30 41 1 7 37
M  V30 42 1 7 38
M  V30 43 1 7 39
M  V30 44 1 9 40
M  V30 45 1 13 41
M  V30 46 1 14 42
M  V30 47 1 18 43
M  V30 48 1 19 44
M  V30 49 1 20 45
M  V30 50 1 21 46
M  V30 51 1 22 47
M  V30 52 1 26 48 CFG=1
M  V30 53 1 27 49
M  V30 54 1 27 50
M  V30 55 1 28 51
M  V30 56 1 28 52
M  V30 57 1 30 53
M  V30 58 1 30 54
M  V30 END BOND
M  V30 END CTAB
M  END
>  <Dataset>  (157) 
ChEMBL_Kinases

>  <Ligand_Instance>  (157) 
nan

>  <PDB_ID>  (157) 
nan

>  <Standardized_SMILES>  (157) 
CC[C@@H]1C(=O)N(C)c2cnc(-n3ccnc3-c3ccccc3)nc2N1[C@@H]1CCOC1

>  <Name>  (157) 
nan

>  <Pocket>  (157) 
nan

>  <ATP_Site>  (157) 
nan

>  <Peripheral>  (157) 
nan

>  <Num_H_Atoms_ProtBoundConf>  (157) 
nan

>  <Num_Resolved_Atoms>  (157) 
nan

>  <Num_Not_Resolved_Atoms>  (157) 
nan

$$$$
CHEMBL2401973
     RDKit          3D

  0  0  0  0  0  0  0  0  0  0999 V3000
M  V30 BEGIN CTAB
M  V30 COUNTS 54 58 0 0 0
M  V30 BEGIN ATOM
M  V30 1 C 3.148903 -4.834754 1.669303 0
M  V30 2 C 2.006589 -4.233355 0.831545 0
M  V30 3 C 2.026506 -2.766375 1.095109 0 CFG=2
M  V30 4 C 1.808541 -2.430566 2.524998 0
M  V30 5 O 1.653078 -3.346818 3.388991 0
M  V30 6 N 1.770359 -1.075011 2.950521 0
M  V30 7 C 2.134122 -0.707008 4.327674 0
M  V30 8 C 1.357327 -0.131690 1.945289 0
M  V30 9 C 1.306202 1.187957 2.340318 0
M  V30 10 N 0.912872 2.100557 1.417481 0
M  V30 11 C 0.603634 1.633807 0.183966 0
M  V30 12 N 0.198362 2.680082 -0.720343 0
M  V30 13 C 0.853919 3.640204 -1.428492 0
M  V30 14 C -0.121320 4.338706 -2.115597 0
M  V30 15 N -1.327086 3.808373 -1.824322 0
M  V30 16 C -1.124220 2.789847 -0.966750 0
M  V30 17 C -2.267489 2.043923 -0.491658 0
M  V30 18 C -3.118090 1.458967 -1.425859 0
M  V30 19 C -4.238644 0.724668 -1.096525 0
M  V30 20 C -4.545990 0.552582 0.253784 0
M  V30 21 F -5.648481 -0.170648 0.545024 0
M  V30 22 C -3.721693 1.120150 1.189314 0
M  V30 23 C -2.613419 1.845281 0.815284 0
M  V30 24 N 0.654741 0.351519 -0.196005 0
M  V30 25 C 1.037587 -0.585924 0.680704 0
M  V30 26 N 1.098843 -1.976015 0.314599 0
M  V30 27 C 0.306759 -2.555948 -0.709028 0 CFG=1
M  V30 28 C -0.803521 -3.451013 -0.147811 0
M  V30 29 C -2.053821 -2.856127 -0.690478 0
M  V30 30 O -1.735332 -1.561943 -1.035702 0
M  V30 31 C -0.459892 -1.688919 -1.622469 0
M  V30 32 H 3.901942 -4.056404 1.885469 0
M  V30 33 H 2.766585 -5.246899 2.614796 0
M  V30 34 H 3.691520 -5.611854 1.065266 0
M  V30 35 H 1.067185 -4.678660 1.197970 0
M  V30 36 H 2.255701 -4.423437 -0.214759 0
M  V30 37 H 3.052321 -2.327558 0.857186 0
M  V30 38 H 1.434098 0.023530 4.761146 0
M  V30 39 H 2.014140 -1.633355 4.926653 0
M  V30 40 H 3.191360 -0.394793 4.379265 0
M  V30 41 H 1.566303 1.487625 3.337814 0
M  V30 42 H 1.929402 3.684765 -1.337641 0
M  V30 43 H 0.169504 5.163900 -2.756490 0
M  V30 44 H -2.931232 1.557987 -2.487274 0
M  V30 45 H -4.876832 0.284576 -1.849996 0
M  V30 46 H -4.007290 0.954920 2.214974 0
M  V30 47 H -1.970196 2.288629 1.565063 0
M  V30 48 H 0.953894 -3.284381 -1.285109 0
M  V30 49 H -0.667062 -4.515178 -0.402012 0
M  V30 50 H -0.810477 -3.257514 0.965439 0
M  V30 51 H -2.863151 -2.854792 0.092583 0
M  V30 52 H -2.359940 -3.472449 -1.566400 0
M  V30 53 H -0.681926 -2.328779 -2.547287 0
M  V30 54 H -0.034233 -0.787840 -2.010821 0
M  V30 END ATOM
M  V30 BEGIN BOND
M  V30 1 1 1 2
M  V30 2 1 2 3
M  V30 3 1 3 4
M  V30 4 2 4 5
M  V30 5 1 4 6
M  V30 6 1 6 7
M  V30 7 1 6 8
M  V30 8 2 8 9
M  V30 9 1 9 10
M  V30 10 2 10 11
M  V30 11 1 11 12
M  V30 12 1 12 13
M  V30 13 2 13 14
M  V30 14 1 14 15
M  V30 15 2 15 16
M  V30 16 1 16 17
M  V30 17 2 17 18
M  V30 18 1 18 19
M  V30 19 2 19 20
M  V30 20 1 20 21
M  V30 21 1 20 22
M  V30 22 2 22 23
M  V30 23 1 11 24
M  V30 24 2 24 25
M  V30 25 1 25 26
M  V30 26 1 26 27
M  V30 27 1 27 28
M  V30 28 1 28 29
M  V30 29 1 29 30
M  V30 30 1 30 31
M  V30 31 1 26 3
M  V30 32 1 31 27
M  V30 33 1 25 8
M  V30 34 1 16 12
M  V30 35 1 23 17
M  V30 36 1 1 32
M  V30 37 1 1 33
M  V30 38 1 1 34
M  V30 39 1 2 35
M  V30 40 1 2 36
M  V30 41 1 3 37 CFG=3
M  V30 42 1 7 38
M  V30 43 1 7 39
M  V30 44 1 7 40
M  V30 45 1 9 41
M  V30 46 1 13 42
M  V30 47 1 14 43
M  V30 48 1 18 44
M  V30 49 1 19 45
M  V30 50 1 22 46
M  V30 51 1 23 47
M  V30 52 1 27 48 CFG=3
M  V30 53 1 28 49
M  V30 54 1 28 50
M  V30 55 1 29 51
M  V30 56 1 29 52
M  V30 57 1 31 53
M  V30 58 1 31 54
M  V30 END BOND
M  V30 END CTAB
M  END
>  <Dataset>  (158) 
ChEMBL_Kinases

>  <Ligand_Instance>  (158) 
nan

>  <PDB_ID>  (158) 
nan

>  <Standardized_SMILES>  (158) 
CC[C@@H]1C(=O)N(C)c2cnc(-n3ccnc3-c3ccc(F)cc3)nc2N1[C@H]1CCOC1

>  <Name>  (158) 
nan

>  <Pocket>  (158) 
nan

>  <ATP_Site>  (158) 
nan

>  <Peripheral>  (158) 
nan

>  <Num_H_Atoms_ProtBoundConf>  (158) 
nan

>  <Num_Resolved_Atoms>  (158) 
nan

>  <Num_Not_Resolved_Atoms>  (158) 
nan

$$$$
CHEMBL3702122
     RDKit          3D

  0  0  0  0  0  0  0  0  0  0999 V3000
M  V30 BEGIN CTAB
M  V30 COUNTS 66 71 0 0 0
M  V30 BEGIN ATOM
M  V30 1 O 4.556050 -0.476384 3.719834 0
M  V30 2 C 4.995971 0.464134 2.974531 0
M  V30 3 O 5.765944 -0.588799 2.559976 0
M  V30 4 C 4.216552 1.672365 3.347217 0
M  V30 5 N 4.621611 2.807589 2.549057 0
M  V30 6 C 4.285086 2.727407 1.177512 0
M  V30 7 C 3.537600 3.897830 0.637261 0
M  V30 8 N 2.703805 4.579255 1.521976 0
M  V30 9 C 1.316950 4.665320 1.276008 0
M  V30 10 C 0.584135 3.396738 1.162759 0
M  V30 11 C 0.397525 2.810031 -0.075467 0
M  V30 12 C -0.287360 1.616622 -0.122322 0
M  V30 13 C -0.814436 0.934794 0.949291 0
M  V30 14 N -1.515559 -0.293090 0.907257 0
M  V30 15 C -1.823060 -1.080373 -0.230671 0
M  V30 16 N -1.499176 -0.778820 -1.492957 0
M  V30 17 C -1.775161 -1.506760 -2.578579 0
M  V30 18 C -2.459004 -2.686575 -2.405005 0
M  V30 19 C -2.947574 -3.724891 -3.166651 0
M  V30 20 C -2.852054 -3.854585 -4.538810 0
M  V30 21 C -3.411355 -4.983290 -5.137604 0
M  V30 22 N -4.018191 -5.889977 -4.334469 0
M  V30 23 C -4.096875 -5.740364 -3.008389 0
M  V30 24 C -3.564967 -4.647278 -2.348757 0
M  V30 25 N -3.458068 -4.177597 -1.074975 0
M  V30 26 C -4.054585 -5.009308 -0.035961 0
M  V30 27 C -3.148129 -6.201948 0.158764 0
M  V30 28 C -1.993295 -5.532324 0.918144 0
M  V30 29 C -2.766211 -4.676916 1.930085 0
M  V30 30 C -4.080625 -4.381054 1.312160 0
M  V30 31 C -2.798258 -3.008611 -1.110309 0
M  V30 32 N -2.489948 -2.232632 -0.070057 0
M  V30 33 N -0.599710 1.556756 2.120133 0
M  V30 34 C 0.056909 2.717155 2.241657 0
M  V30 35 C 3.147847 4.747413 2.861625 0
M  V30 36 C 4.447377 4.066576 3.174303 0
M  V30 37 H 5.935403 -0.784122 1.573355 0
M  V30 38 H 3.154871 1.496739 3.172722 0
M  V30 39 H 4.441757 1.948315 4.412725 0
M  V30 40 H 3.620480 1.820426 1.060282 0
M  V30 41 H 5.163359 2.482029 0.527377 0
M  V30 42 H 4.326760 4.624497 0.275741 0
M  V30 43 H 3.001281 3.612051 -0.285645 0
M  V30 44 H 0.864347 5.212376 2.156115 0
M  V30 45 H 1.087673 5.304660 0.390885 0
M  V30 46 H 0.771322 3.268610 -1.002470 0
M  V30 47 H -0.402562 1.207769 -1.106593 0
M  V30 48 H -1.843871 -0.656538 1.838041 0
M  V30 49 H -1.500852 -1.236300 -3.578829 0
M  V30 50 H -2.357362 -3.108099 -5.163443 0
M  V30 51 H -3.324720 -5.064228 -6.213108 0
M  V30 52 H -4.588739 -6.484973 -2.398058 0
M  V30 53 H -5.073692 -5.355465 -0.354760 0
M  V30 54 H -3.585940 -6.921872 0.875280 0
M  V30 55 H -2.806191 -6.651601 -0.794359 0
M  V30 56 H -1.348012 -6.275243 1.402534 0
M  V30 57 H -1.474018 -4.893229 0.175447 0
M  V30 58 H -2.234529 -3.775152 2.227091 0
M  V30 59 H -2.897937 -5.333429 2.833999 0
M  V30 60 H -4.346926 -3.304636 1.301128 0
M  V30 61 H -4.887879 -4.882350 1.889567 0
M  V30 62 H 0.182155 3.145633 3.224301 0
M  V30 63 H 3.227758 5.828660 3.081258 0
M  V30 64 H 2.371940 4.340177 3.538655 0
M  V30 65 H 5.302176 4.716131 2.821993 0
M  V30 66 H 4.598970 3.956457 4.267438 0
M  V30 END ATOM
M  V30 BEGIN BOND
M  V30 1 2 1 2
M  V30 2 1 2 3
M  V30 3 1 2 4
M  V30 4 1 4 5
M  V30 5 1 5 6
M  V30 6 1 6 7
M  V30 7 1 7 8
M  V30 8 1 8 9
M  V30 9 1 9 10
M  V30 10 2 10 11
M  V30 11 1 11 12
M  V30 12 2 12 13
M  V30 13 1 13 14
M  V30 14 1 14 15
M  V30 15 2 15 16
M  V30 16 1 16 17
M  V30 17 2 17 18
M  V30 18 1 18 19
M  V30 19 2 19 20
M  V30 20 1 20 21
M  V30 21 2 21 22
M  V30 22 1 22 23
M  V30 23 2 23 24
M  V30 24 1 24 25
M  V30 25 1 25 26
M  V30 26 1 26 27
M  V30 27 1 27 28
M  V30 28 1 28 29
M  V30 29 1 29 30
M  V30 30 1 25 31
M  V30 31 2 31 32
M  V30 32 1 13 33
M  V30 33 2 33 34
M  V30 34 1 8 35
M  V30 35 1 35 36
M  V30 36 1 36 5
M  V30 37 1 34 10
M  V30 38 1 32 15
M  V30 39 1 31 18
M  V30 40 1 24 19
M  V30 41 1 30 26
M  V30 42 1 3 37
M  V30 43 1 4 38
M  V30 44 1 4 39
M  V30 45 1 6 40
M  V30 46 1 6 41
M  V30 47 1 7 42
M  V30 48 1 7 43
M  V30 49 1 9 44
M  V30 50 1 9 45
M  V30 51 1 11 46
M  V30 52 1 12 47
M  V30 53 1 14 48
M  V30 54 1 17 49
M  V30 55 1 20 50
M  V30 56 1 21 51
M  V30 57 1 23 52
M  V30 58 1 26 53
M  V30 59 1 27 54
M  V30 60 1 27 55
M  V30 61 1 28 56
M  V30 62 1 28 57
M  V30 63 1 29 58
M  V30 64 1 29 59
M  V30 65 1 30 60
M  V30 66 1 30 61
M  V30 67 1 34 62
M  V30 68 1 35 63
M  V30 69 1 35 64
M  V30 70 1 36 65
M  V30 71 1 36 66
M  V30 END BOND
M  V30 END CTAB
M  END
>  <Dataset>  (159) 
ChEMBL_Kinases

>  <Ligand_Instance>  (159) 
nan

>  <PDB_ID>  (159) 
nan

>  <Standardized_SMILES>  (159) 
O=C(O)CN1CCN(Cc2ccc(Nc3ncc4c5ccncc5n(C5CCCC5)c4n3)nc2)CC1

>  <Name>  (159) 
nan

>  <Pocket>  (159) 
nan

>  <ATP_Site>  (159) 
nan

>  <Peripheral>  (159) 
nan

>  <Num_H_Atoms_ProtBoundConf>  (159) 
nan

>  <Num_Resolved_Atoms>  (159) 
nan

>  <Num_Not_Resolved_Atoms>  (159) 
nan

$$$$
CHEMBL218719
     RDKit          3D

  0  0  0  0  0  0  0  0  0  0999 V3000
M  V30 BEGIN CTAB
M  V30 COUNTS 47 50 0 0 0
M  V30 BEGIN ATOM
M  V30 1 C 0.847269 -0.583366 4.591761 0
M  V30 2 C 0.609856 -1.675256 3.622918 0
M  V30 3 C 0.770891 -1.414435 2.321341 0
M  V30 4 C 1.159418 -0.173644 1.711337 0
M  V30 5 O 1.261538 -0.103992 0.426981 0
M  V30 6 N 1.522627 1.170292 1.960233 0
M  V30 7 C 1.819917 1.976207 0.824910 0
M  V30 8 C 3.166472 1.941578 0.461385 0
M  V30 9 C 3.621918 2.668158 -0.619034 0
M  V30 10 C 2.760878 3.447216 -1.368197 0
M  V30 11 N 2.825161 4.260765 -2.442758 0
M  V30 12 N 1.632969 4.760223 -2.728879 0
M  V30 13 C 0.710848 4.296814 -1.848208 0
M  V30 14 C 1.422439 3.470453 -0.992363 0
M  V30 15 C 0.946385 2.751344 0.084619 0
M  V30 16 C 0.524102 -2.499523 1.310979 0
M  V30 17 C -0.864538 -2.450318 0.791015 0
M  V30 18 C -0.956549 -2.330730 -0.601862 0
M  V30 19 C -2.177926 -2.266237 -1.283396 0
M  V30 20 C -3.359447 -2.320841 -0.574657 0
M  V30 21 C -4.701995 -2.262639 -1.175866 0
M  V30 22 F -4.687791 -2.430258 -2.541784 0
M  V30 23 F -5.345238 -1.059976 -0.916697 0
M  V30 24 F -5.538010 -3.241859 -0.643510 0
M  V30 25 C -3.268322 -2.438505 0.796230 0
M  V30 26 C -2.061795 -2.501240 1.458461 0
M  V30 27 C 0.878406 -3.812263 1.958947 0
M  V30 28 C 0.037122 -3.994880 3.156643 0
M  V30 29 O -0.805375 -4.898142 3.436933 0
M  V30 30 N 0.233161 -2.975171 4.125188 0
M  V30 31 H 0.558660 -0.998620 5.610379 0
M  V30 32 H 0.127365 0.275830 4.468866 0
M  V30 33 H 1.878492 -0.219669 4.636855 0
M  V30 34 H 1.503892 1.314610 2.978439 0
M  V30 35 H 3.925613 1.374057 0.967122 0
M  V30 36 H 4.670764 2.658421 -0.924536 0
M  V30 37 H 3.729535 4.449612 -2.961979 0
M  V30 38 H -0.339639 4.541283 -1.846631 0
M  V30 39 H -0.068463 2.724873 0.426766 0
M  V30 40 H 1.237959 -2.366846 0.455127 0
M  V30 41 H -0.102034 -2.276879 -1.282638 0
M  V30 42 H -2.246823 -2.174949 -2.346823 0
M  V30 43 H -4.130900 -2.486942 1.414005 0
M  V30 44 H -1.981033 -2.591261 2.523790 0
M  V30 45 H 0.779637 -4.661166 1.244957 0
M  V30 46 H 1.949444 -3.702115 2.285260 0
M  V30 47 H 0.113225 -3.114289 5.169966 0
M  V30 END ATOM
M  V30 BEGIN BOND
M  V30 1 1 1 2
M  V30 2 2 2 3
M  V30 3 1 3 4
M  V30 4 2 4 5
M  V30 5 1 4 6
M  V30 6 1 6 7
M  V30 7 2 7 8
M  V30 8 1 8 9
M  V30 9 2 9 10
M  V30 10 1 10 11
M  V30 11 1 11 12
M  V30 12 2 12 13
M  V30 13 1 13 14
M  V30 14 2 14 15
M  V30 15 1 3 16
M  V30 16 1 16 17
M  V30 17 2 17 18
M  V30 18 1 18 19
M  V30 19 2 19 20
M  V30 20 1 20 21
M  V30 21 1 21 22
M  V30 22 1 21 23
M  V30 23 1 21 24
M  V30 24 1 20 25
M  V30 25 2 25 26
M  V30 26 1 16 27
M  V30 27 1 27 28
M  V30 28 2 28 29
M  V30 29 1 28 30
M  V30 30 1 30 2
M  V30 31 1 15 7
M  V30 32 1 26 17
M  V30 33 1 14 10
M  V30 34 1 1 31
M  V30 35 1 1 32
M  V30 36 1 1 33
M  V30 37 1 6 34
M  V30 38 1 8 35
M  V30 39 1 9 36
M  V30 40 1 11 37
M  V30 41 1 13 38
M  V30 42 1 15 39
M  V30 43 1 16 40
M  V30 44 1 18 41
M  V30 45 1 19 42
M  V30 46 1 25 43
M  V30 47 1 26 44
M  V30 48 1 27 45
M  V30 49 1 27 46
M  V30 50 1 30 47
M  V30 END BOND
M  V30 END CTAB
M  END
>  <Dataset>  (160) 
ChEMBL_Kinases

>  <Ligand_Instance>  (160) 
nan

>  <PDB_ID>  (160) 
nan

>  <Standardized_SMILES>  (160) 
CC1=C(C(=O)Nc2ccc3[nH]ncc3c2)C(c2ccc(C(F)(F)F)cc2)CC(=O)N1

>  <Name>  (160) 
nan

>  <Pocket>  (160) 
nan

>  <ATP_Site>  (160) 
nan

>  <Peripheral>  (160) 
nan

>  <Num_H_Atoms_ProtBoundConf>  (160) 
nan

>  <Num_Resolved_Atoms>  (160) 
nan

>  <Num_Not_Resolved_Atoms>  (160) 
nan

$$$$
CHEMBL2401969
     RDKit          3D

  0  0  0  0  0  0  0  0  0  0999 V3000
M  V30 BEGIN CTAB
M  V30 COUNTS 53 57 0 0 0
M  V30 BEGIN ATOM
M  V30 1 C 0.918559 -4.806308 -1.522659 0
M  V30 2 C 1.623068 -4.514418 -0.225194 0
M  V30 3 C 1.845365 -3.093017 0.095323 0 CFG=2
M  V30 4 C 2.596049 -2.952356 1.412946 0
M  V30 5 O 2.836688 -3.894202 2.227001 0
M  V30 6 N 3.068914 -1.642325 1.756718 0
M  V30 7 C 4.292121 -1.434462 2.540469 0
M  V30 8 C 2.242035 -0.559333 1.280874 0
M  V30 9 C 2.697257 0.697892 1.613494 0
M  V30 10 N 1.923917 1.721341 1.175179 0
M  V30 11 C 0.795162 1.490630 0.466172 0
M  V30 12 N -0.006530 2.573417 0.012865 0
M  V30 13 C 0.592987 3.423858 -0.865647 0
M  V30 14 C -0.308802 4.409820 -1.205405 0
M  V30 15 N -1.456457 4.141882 -0.521089 0
M  V30 16 C -1.254456 3.040501 0.200762 0
M  V30 17 C -2.118319 2.295682 1.114176 0
M  V30 18 C -1.882940 1.940793 2.411985 0
M  V30 19 C -2.834742 1.228396 3.118257 0
M  V30 20 C -4.018480 0.882697 2.498566 0
M  V30 21 F -4.955067 0.183389 3.188842 0
M  V30 22 C -4.280972 1.225399 1.198399 0
M  V30 23 C -3.322826 1.937965 0.500116 0
M  V30 24 N 0.424361 0.245654 0.186113 0
M  V30 25 C 1.081995 -0.860890 0.549272 0
M  V30 26 N 0.690218 -2.233583 0.259826 0
M  V30 27 C -0.693239 -2.515481 0.226662 0
M  V30 28 C -1.620064 -1.327174 0.440007 0
M  V30 29 C -2.695626 -2.289072 -0.159099 0
M  V30 30 F -3.637383 -1.675238 -0.914766 0
M  V30 31 F -3.094613 -3.271292 0.705160 0
M  V30 32 C -1.466829 -2.742965 -1.015688 0
M  V30 33 H -0.018264 -5.345209 -1.270861 0
M  V30 34 H 0.819320 -3.962877 -2.204931 0
M  V30 35 H 1.519349 -5.568614 -2.118475 0
M  V30 36 H 2.660327 -4.959043 -0.337634 0
M  V30 37 H 1.210774 -5.114667 0.619268 0
M  V30 38 H 2.503165 -2.673053 -0.675844 0
M  V30 39 H 4.675462 -2.449945 2.764005 0
M  V30 40 H 4.057560 -0.995263 3.540430 0
M  V30 41 H 5.052265 -0.889005 1.980669 0
M  V30 42 H 3.597413 0.843609 2.177322 0
M  V30 43 H 1.575642 3.511084 -1.347300 0
M  V30 44 H -0.256516 5.279679 -1.865553 0
M  V30 45 H -0.917730 2.266718 2.795141 0
M  V30 46 H -2.596651 0.968814 4.155416 0
M  V30 47 H -5.231972 0.935665 0.733829 0
M  V30 48 H -3.605673 2.172511 -0.527314 0
M  V30 49 H -1.013610 -3.323502 0.977154 0
M  V30 50 H -1.502271 -0.582477 -0.374114 0
M  V30 51 H -1.809635 -1.004550 1.448980 0
M  V30 52 H -1.370604 -1.995548 -1.822220 0
M  V30 53 H -1.743638 -3.755508 -1.329999 0
M  V30 END ATOM
M  V30 BEGIN BOND
M  V30 1 1 1 2
M  V30 2 1 2 3
M  V30 3 1 3 4
M  V30 4 2 4 5
M  V30 5 1 4 6
M  V30 6 1 6 7
M  V30 7 1 6 8
M  V30 8 2 8 9
M  V30 9 1 9 10
M  V30 10 2 10 11
M  V30 11 1 11 12
M  V30 12 1 12 13
M  V30 13 2 13 14
M  V30 14 1 14 15
M  V30 15 2 15 16
M  V30 16 1 16 17
M  V30 17 2 17 18
M  V30 18 1 18 19
M  V30 19 2 19 20
M  V30 20 1 20 21
M  V30 21 1 20 22
M  V30 22 2 22 23
M  V30 23 1 11 24
M  V30 24 2 24 25
M  V30 25 1 25 26
M  V30 26 1 26 27
M  V30 27 1 27 28
M  V30 28 1 28 29
M  V30 29 1 29 30
M  V30 30 1 29 31
M  V30 31 1 29 32
M  V30 32 1 26 3
M  V30 33 1 32 27
M  V30 34 1 25 8
M  V30 35 1 16 12
M  V30 36 1 23 17
M  V30 37 1 1 33
M  V30 38 1 1 34
M  V30 39 1 1 35
M  V30 40 1 2 36
M  V30 41 1 2 37
M  V30 42 1 3 38 CFG=3
M  V30 43 1 7 39
M  V30 44 1 7 40
M  V30 45 1 7 41
M  V30 46 1 9 42
M  V30 47 1 13 43
M  V30 48 1 14 44
M  V30 49 1 18 45
M  V30 50 1 19 46
M  V30 51 1 22 47
M  V30 52 1 23 48
M  V30 53 1 27 49
M  V30 54 1 28 50
M  V30 55 1 28 51
M  V30 56 1 32 52
M  V30 57 1 32 53
M  V30 END BOND
M  V30 END CTAB
M  END
>  <Dataset>  (161) 
ChEMBL_Kinases

>  <Ligand_Instance>  (161) 
nan

>  <PDB_ID>  (161) 
nan

>  <Standardized_SMILES>  (161) 
CC[C@@H]1C(=O)N(C)c2cnc(-n3ccnc3-c3ccc(F)cc3)nc2N1C1CC(F)(F)C1

>  <Name>  (161) 
nan

>  <Pocket>  (161) 
nan

>  <ATP_Site>  (161) 
nan

>  <Peripheral>  (161) 
nan

>  <Num_H_Atoms_ProtBoundConf>  (161) 
nan

>  <Num_Resolved_Atoms>  (161) 
nan

>  <Num_Not_Resolved_Atoms>  (161) 
nan

$$$$
CHEMBL3706678
     RDKit          3D

  0  0  0  0  0  0  0  0  0  0999 V3000
M  V30 BEGIN CTAB
M  V30 COUNTS 73 77 0 0 0
M  V30 BEGIN ATOM
M  V30 1 O 1.136058 3.460082 3.571062 0
M  V30 2 C 1.269551 3.201959 4.795023 0
M  V30 3 N 2.433529 2.466045 5.160696 0
M  V30 4 C 3.172875 2.119747 3.989139 0
M  V30 5 C 4.208472 2.587636 3.218468 0
M  V30 6 C 4.598240 1.906362 2.096453 0
M  V30 7 C 4.051029 0.739016 1.611775 0
M  V30 8 N 4.430259 -0.013370 0.474501 0
M  V30 9 C 3.385734 -0.021447 -0.487856 0
M  V30 10 N 3.271005 1.198983 -1.068572 0
M  V30 11 C 2.335034 1.449696 -2.023125 0
M  V30 12 N 1.524830 0.449632 -2.374026 0
M  V30 13 C 1.556809 -0.784845 -1.865989 0
M  V30 14 C 0.724289 -1.820612 -2.230637 0
M  V30 15 C 0.855700 -3.057069 -1.635346 0
M  V30 16 O 0.101171 -4.172169 -1.894507 0
M  V30 17 C -0.953398 -4.277016 -2.811012 0
M  V30 18 C -1.586771 -5.645175 -2.799316 0
M  V30 19 C -2.739633 -5.796349 -3.753514 0
M  V30 20 N -2.409099 -5.597196 -5.139062 0
M  V30 21 C -3.607417 -5.739313 -5.966798 0
M  V30 22 C -3.372762 -6.515910 -7.225700 0
M  V30 23 O -2.211958 -6.100099 -7.857708 0
M  V30 24 C -1.091396 -6.213865 -7.036647 0
M  V30 25 C -1.497080 -6.621955 -5.635173 0
M  V30 26 C 1.848589 -3.229411 -0.662599 0
M  V30 27 C 2.698969 -2.209402 -0.275383 0
M  V30 28 C 2.517743 -0.996998 -0.904573 0
M  V30 29 C 2.990236 0.250652 2.396038 0
M  V30 30 C 2.590870 0.921873 3.518705 0
M  V30 31 N 0.271913 3.637901 5.739187 0
M  V30 32 C -0.873216 4.383633 5.193208 0
M  V30 33 C -1.710963 3.388443 4.350489 0
M  V30 34 C -3.050913 4.107742 4.178899 0
M  V30 35 C -3.848351 4.021667 5.469130 0
M  V30 36 C -2.895630 4.232066 6.641937 0
M  V30 37 C -1.702089 5.060262 6.216513 0
M  V30 38 H 2.610281 2.272232 6.161087 0
M  V30 39 H 4.585198 3.486874 3.642296 0
M  V30 40 H 5.414596 2.317558 1.539310 0
M  V30 41 H 5.380124 -0.503465 0.507153 0
M  V30 42 H 2.283505 2.457405 -2.462279 0
M  V30 43 H -0.031182 -1.667672 -2.979919 0
M  V30 44 H -0.503689 -4.169624 -3.843275 0
M  V30 45 H -1.666273 -3.465633 -2.673545 0
M  V30 46 H -0.855959 -6.442558 -3.037288 0
M  V30 47 H -1.938444 -5.886242 -1.753142 0
M  V30 48 H -3.511078 -5.012386 -3.502617 0
M  V30 49 H -3.287253 -6.758455 -3.592416 0
M  V30 50 H -4.392421 -6.249192 -5.376132 0
M  V30 51 H -3.983706 -4.734936 -6.236573 0
M  V30 52 H -3.396712 -7.615865 -7.094246 0
M  V30 53 H -4.227049 -6.297021 -7.912095 0
M  V30 54 H -0.300487 -6.848953 -7.462998 0
M  V30 55 H -0.639115 -5.185829 -6.926349 0
M  V30 56 H -1.984045 -7.614694 -5.624081 0
M  V30 57 H -0.567541 -6.688009 -5.044773 0
M  V30 58 H 1.988636 -4.183385 -0.165227 0
M  V30 59 H 3.471428 -2.353852 0.483348 0
M  V30 60 H 2.521368 -0.682877 2.054976 0
M  V30 61 H 1.750868 0.369362 3.990173 0
M  V30 62 H 0.462414 3.380000 6.748906 0
M  V30 63 H -0.519366 5.095133 4.421367 0
M  V30 64 H -1.890309 2.452245 4.867670 0
M  V30 65 H -1.241386 3.323185 3.376462 0
M  V30 66 H -2.896118 5.197964 3.979373 0
M  V30 67 H -3.628891 3.711316 3.339676 0
M  V30 68 H -4.687824 4.718401 5.520476 0
M  V30 69 H -4.256139 2.983410 5.559298 0
M  V30 70 H -3.468995 4.765723 7.409611 0
M  V30 71 H -2.582013 3.244197 7.039987 0
M  V30 72 H -1.092530 5.261502 7.122482 0
M  V30 73 H -2.101388 6.047322 5.912749 0
M  V30 END ATOM
M  V30 BEGIN BOND
M  V30 1 2 1 2
M  V30 2 1 2 3
M  V30 3 1 3 4
M  V30 4 2 4 5
M  V30 5 1 5 6
M  V30 6 2 6 7
M  V30 7 1 7 8
M  V30 8 1 8 9
M  V30 9 2 9 10
M  V30 10 1 10 11
M  V30 11 2 11 12
M  V30 12 1 12 13
M  V30 13 2 13 14
M  V30 14 1 14 15
M  V30 15 1 15 16
M  V30 16 1 16 17
M  V30 17 1 17 18
M  V30 18 1 18 19
M  V30 19 1 19 20
M  V30 20 1 20 21
M  V30 21 1 21 22
M  V30 22 1 22 23
M  V30 23 1 23 24
M  V30 24 1 24 25
M  V30 25 2 15 26
M  V30 26 1 26 27
M  V30 27 2 27 28
M  V30 28 1 7 29
M  V30 29 2 29 30
M  V30 30 1 2 31
M  V30 31 1 31 32
M  V30 32 1 32 33
M  V30 33 1 33 34
M  V30 34 1 34 35
M  V30 35 1 35 36
M  V30 36 1 36 37
M  V30 37 1 30 4
M  V30 38 1 37 32
M  V30 39 1 28 9
M  V30 40 1 28 13
M  V30 41 1 25 20
M  V30 42 1 3 38
M  V30 43 1 5 39
M  V30 44 1 6 40
M  V30 45 1 8 41
M  V30 46 1 11 42
M  V30 47 1 14 43
M  V30 48 1 17 44
M  V30 49 1 17 45
M  V30 50 1 18 46
M  V30 51 1 18 47
M  V30 52 1 19 48
M  V30 53 1 19 49
M  V30 54 1 21 50
M  V30 55 1 21 51
M  V30 56 1 22 52
M  V30 57 1 22 53
M  V30 58 1 24 54
M  V30 59 1 24 55
M  V30 60 1 25 56
M  V30 61 1 25 57
M  V30 62 1 26 58
M  V30 63 1 27 59
M  V30 64 1 29 60
M  V30 65 1 30 61
M  V30 66 1 31 62
M  V30 67 1 32 63
M  V30 68 1 33 64
M  V30 69 1 33 65
M  V30 70 1 34 66
M  V30 71 1 34 67
M  V30 72 1 35 68
M  V30 73 1 35 69
M  V30 74 1 36 70
M  V30 75 1 36 71
M  V30 76 1 37 72
M  V30 77 1 37 73
M  V30 END BOND
M  V30 END CTAB
M  END
>  <Dataset>  (162) 
ChEMBL_Kinases

>  <Ligand_Instance>  (162) 
nan

>  <PDB_ID>  (162) 
nan

>  <Standardized_SMILES>  (162) 
O=C(Nc1ccc(Nc2ncnc3cc(OCCCN4CCOCC4)ccc23)cc1)NC1CCCCC1

>  <Name>  (162) 
nan

>  <Pocket>  (162) 
nan

>  <ATP_Site>  (162) 
nan

>  <Peripheral>  (162) 
nan

>  <Num_H_Atoms_ProtBoundConf>  (162) 
nan

>  <Num_Resolved_Atoms>  (162) 
nan

>  <Num_Not_Resolved_Atoms>  (162) 
nan

$$$$
CHEMBL219683
     RDKit          3D

  0  0  0  0  0  0  0  0  0  0999 V3000
M  V30 BEGIN CTAB
M  V30 COUNTS 45 48 0 0 0
M  V30 BEGIN ATOM
M  V30 1 O -0.732142 -1.834609 -2.899069 0
M  V30 2 C -0.632006 -1.666493 -1.643865 0
M  V30 3 N 0.537690 -2.251460 -1.063361 0
M  V30 4 C 1.573856 -2.983854 -1.731341 0
M  V30 5 C 2.650235 -3.436235 -0.733394 0
M  V30 6 C 3.313208 -2.242413 -0.089581 0
M  V30 7 C 4.788518 -2.395563 -0.471004 0
M  V30 8 C 4.845580 -3.882772 -0.799146 0
M  V30 9 O 3.619357 -4.130510 -1.411046 0
M  V30 10 C -1.606838 -0.944000 -0.829474 0
M  V30 11 C -1.509413 -0.758722 0.534352 0
M  V30 12 C -2.652800 -0.027910 0.838225 0
M  V30 13 C -3.070631 0.451851 2.152956 0
M  V30 14 N -4.210373 0.045076 2.744501 0
M  V30 15 N -4.383573 0.619375 3.946275 0
M  V30 16 C -3.319979 1.444925 4.173558 0
M  V30 17 C -2.517051 1.332371 3.059264 0
M  V30 18 C -1.257009 2.013431 2.809521 0
M  V30 19 C -0.947668 2.912634 1.809685 0
M  V30 20 C 0.318977 3.452318 1.746439 0
M  V30 21 C 1.341965 3.156528 2.633949 0
M  V30 22 C 0.980588 2.246626 3.621679 0
M  V30 23 Cl 2.258241 1.840750 4.777070 0
M  V30 24 C -0.262048 1.677110 3.735074 0
M  V30 25 C -3.365860 0.186911 -0.325389 0
M  V30 26 N -2.711812 -0.384206 -1.358683 0
M  V30 27 H 0.619263 -2.109145 -0.012766 0
M  V30 28 H 2.075459 -2.299212 -2.444282 0
M  V30 29 H 1.235685 -3.920864 -2.223902 0
M  V30 30 H 2.224544 -4.056761 0.063135 0
M  V30 31 H 3.197317 -2.213445 1.008802 0
M  V30 32 H 2.877460 -1.330371 -0.528225 0
M  V30 33 H 5.413728 -2.117724 0.386844 0
M  V30 34 H 4.942689 -1.796287 -1.382097 0
M  V30 35 H 5.671654 -4.031996 -1.543922 0
M  V30 36 H 4.991279 -4.471533 0.130479 0
M  V30 37 H -0.749419 -1.088263 1.209403 0
M  V30 38 H -4.923107 -0.635065 2.370184 0
M  V30 39 H -3.171341 2.044908 5.052623 0
M  V30 40 H -1.749307 3.120043 1.145492 0
M  V30 41 H 0.534339 4.166059 0.937808 0
M  V30 42 H 2.316414 3.599735 2.549535 0
M  V30 43 H -0.393965 0.977603 4.567100 0
M  V30 44 H -4.309123 0.722651 -0.452739 0
M  V30 45 H -3.023745 -0.374496 -2.340523 0
M  V30 END ATOM
M  V30 BEGIN BOND
M  V30 1 2 1 2
M  V30 2 1 2 3
M  V30 3 1 3 4
M  V30 4 1 4 5
M  V30 5 1 5 6
M  V30 6 1 6 7
M  V30 7 1 7 8
M  V30 8 1 8 9
M  V30 9 1 2 10
M  V30 10 2 10 11
M  V30 11 1 11 12
M  V30 12 1 12 13
M  V30 13 1 13 14
M  V30 14 1 14 15
M  V30 15 2 15 16
M  V30 16 1 16 17
M  V30 17 1 17 18
M  V30 18 2 18 19
M  V30 19 1 19 20
M  V30 20 2 20 21
M  V30 21 1 21 22
M  V30 22 1 22 23
M  V30 23 2 22 24
M  V30 24 2 12 25
M  V30 25 1 25 26
M  V30 26 1 9 5
M  V30 27 1 26 10
M  V30 28 2 17 13
M  V30 29 1 24 18
M  V30 30 1 3 27
M  V30 31 1 4 28
M  V30 32 1 4 29
M  V30 33 1 5 30
M  V30 34 1 6 31
M  V30 35 1 6 32
M  V30 36 1 7 33
M  V30 37 1 7 34
M  V30 38 1 8 35
M  V30 39 1 8 36
M  V30 40 1 11 37
M  V30 41 1 14 38
M  V30 42 1 16 39
M  V30 43 1 19 40
M  V30 44 1 20 41
M  V30 45 1 21 42
M  V30 46 1 24 43
M  V30 47 1 25 44
M  V30 48 1 26 45
M  V30 END BOND
M  V30 END CTAB
M  END
>  <Dataset>  (163) 
ChEMBL_Kinases

>  <Ligand_Instance>  (163) 
nan

>  <PDB_ID>  (163) 
nan

>  <Standardized_SMILES>  (163) 
O=C(NCC1CCCO1)c1cc(-c2[nH]ncc2-c2cccc(Cl)c2)c[nH]1

>  <Name>  (163) 
nan

>  <Pocket>  (163) 
nan

>  <ATP_Site>  (163) 
nan

>  <Peripheral>  (163) 
nan

>  <Num_H_Atoms_ProtBoundConf>  (163) 
nan

>  <Num_Resolved_Atoms>  (163) 
nan

>  <Num_Not_Resolved_Atoms>  (163) 
nan

$$$$
CHEMBL4457368
     RDKit          3D

  0  0  0  0  0  0  0  0  0  0999 V3000
M  V30 BEGIN CTAB
M  V30 COUNTS 35 37 0 0 0
M  V30 BEGIN ATOM
M  V30 1 C -0.872937 -5.400528 4.641958 0
M  V30 2 N -0.347483 -4.221918 3.988885 0
M  V30 3 C -0.277645 -4.108876 2.633714 0
M  V30 4 C 0.269067 -2.868913 2.390349 0
M  V30 5 C 0.493517 -2.403218 1.022143 0
M  V30 6 C 0.805136 -3.339098 0.035723 0
M  V30 7 N 1.022561 -2.971089 -1.253107 0
M  V30 8 C 0.936946 -1.656100 -1.603703 0
M  V30 9 C 0.631965 -0.682073 -0.673082 0
M  V30 10 C 0.530729 0.737184 -1.010717 0
M  V30 11 C 1.298434 1.309973 -2.002514 0
M  V30 12 C 1.168309 2.653221 -2.288691 0
M  V30 13 C 0.244666 3.341042 -1.529727 0
M  V30 14 C 0.103165 4.755652 -1.823909 0
M  V30 15 N -0.814550 5.613890 -1.176530 0
M  V30 16 O 0.432186 5.758502 -2.458785 0
M  V30 17 C -0.562764 2.857798 -0.523839 0
M  V30 18 C -0.378364 1.493699 -0.288340 0
M  V30 19 C 0.419956 -1.106878 0.622965 0
M  V30 20 C 0.506442 -2.284657 3.617995 0
M  V30 21 N 0.116607 -3.141824 4.587199 0
M  V30 22 H -0.460473 -5.501201 5.670686 0
M  V30 23 H -0.582181 -6.276031 4.051241 0
M  V30 24 H -1.971459 -5.300571 4.704162 0
M  V30 25 H -0.591452 -4.850205 1.924205 0
M  V30 26 H 0.871094 -4.395324 0.328235 0
M  V30 27 H 1.110213 -1.362009 -2.633666 0
M  V30 28 H 2.007690 0.727505 -2.567843 0
M  V30 29 H 1.707094 3.191796 -3.028537 0
M  V30 30 H -1.339069 5.587240 -0.264131 0
M  V30 31 H -1.487074 6.152635 -0.606747 0
M  V30 32 H -1.246217 3.480143 0.003151 0
M  V30 33 H -0.969344 1.020168 0.486433 0
M  V30 34 H 0.177519 -0.393445 1.402157 0
M  V30 35 H 0.941879 -1.287944 3.651959 0
M  V30 END ATOM
M  V30 BEGIN BOND
M  V30 1 1 1 2
M  V30 2 1 2 3
M  V30 3 2 3 4
M  V30 4 1 4 5
M  V30 5 2 5 6
M  V30 6 1 6 7
M  V30 7 2 7 8
M  V30 8 1 8 9
M  V30 9 1 9 10
M  V30 10 2 10 11
M  V30 11 1 11 12
M  V30 12 2 12 13
M  V30 13 1 13 14
M  V30 14 1 14 15
M  V30 15 2 14 16
M  V30 16 1 13 17
M  V30 17 2 17 18
M  V30 18 2 9 19
M  V30 19 1 4 20
M  V30 20 2 20 21
M  V30 21 1 21 2
M  V30 22 1 19 5
M  V30 23 1 18 10
M  V30 24 1 1 22
M  V30 25 1 1 23
M  V30 26 1 1 24
M  V30 27 1 3 25
M  V30 28 1 6 26
M  V30 29 1 8 27
M  V30 30 1 11 28
M  V30 31 1 12 29
M  V30 32 1 15 30
M  V30 33 1 15 31
M  V30 34 1 17 32
M  V30 35 1 18 33
M  V30 36 1 19 34
M  V30 37 1 20 35
M  V30 END BOND
M  V30 END CTAB
M  END
>  <Dataset>  (164) 
ChEMBL_Kinases

>  <Ligand_Instance>  (164) 
nan

>  <PDB_ID>  (164) 
nan

>  <Standardized_SMILES>  (164) 
Cn1cc(-c2cncc(-c3ccc(C(N)=O)cc3)c2)cn1

>  <Name>  (164) 
nan

>  <Pocket>  (164) 
nan

>  <ATP_Site>  (164) 
nan

>  <Peripheral>  (164) 
nan

>  <Num_H_Atoms_ProtBoundConf>  (164) 
nan

>  <Num_Resolved_Atoms>  (164) 
nan

>  <Num_Not_Resolved_Atoms>  (164) 
nan

$$$$
CHEMBL4457274
     RDKit          3D

  0  0  0  0  0  0  0  0  0  0999 V3000
M  V30 BEGIN CTAB
M  V30 COUNTS 45 47 0 0 0
M  V30 BEGIN ATOM
M  V30 1 C 0.156054 -5.074248 1.799338 0
M  V30 2 C -0.502911 -3.702689 1.753995 0
M  V30 3 C -1.422277 -3.652789 2.971645 0
M  V30 4 O -1.191004 -3.496075 0.564427 0
M  V30 5 C -1.060415 -2.456923 -0.323048 0
M  V30 6 C -0.216432 -1.370246 -0.245911 0
M  V30 7 C -0.159339 -0.372560 -1.195262 0
M  V30 8 C 0.787411 0.740067 -0.998644 0
M  V30 9 C 1.413912 1.440309 -2.007913 0
M  V30 10 N 2.264207 2.443448 -1.716834 0
M  V30 11 C 2.551396 2.819112 -0.455219 0
M  V30 12 C 1.961969 2.164229 0.618360 0
M  V30 13 C 2.225225 2.515861 2.015605 0
M  V30 14 C 2.200785 1.608977 3.058605 0
M  V30 15 N 2.487462 2.303424 4.162970 0
M  V30 16 N 2.692660 3.580390 3.907634 0
M  V30 17 C 3.026989 4.672729 4.817745 0
M  V30 18 C 2.535644 3.739880 2.578548 0
M  V30 19 C 1.089016 1.133712 0.297444 0
M  V30 20 C -0.977147 -0.419835 -2.308755 0
M  V30 21 C -1.830651 -1.496588 -2.409495 0
M  V30 22 C -1.875768 -2.488061 -1.449578 0
M  V30 23 C -2.808714 -3.591623 -1.635648 0
M  V30 24 N -3.656296 -3.661417 -2.769483 0
M  V30 25 O -2.874676 -4.520267 -0.769030 0
M  V30 26 H -0.544515 -5.789587 1.304502 0
M  V30 27 H 1.164888 -5.065415 1.373129 0
M  V30 28 H 0.259776 -5.401488 2.863152 0
M  V30 29 H 0.214996 -2.874405 1.910147 0
M  V30 30 H -1.573041 -2.595046 3.299099 0
M  V30 31 H -2.352380 -4.206478 2.837731 0
M  V30 32 H -0.858485 -4.151384 3.791400 0
M  V30 33 H 0.425316 -1.327880 0.622363 0
M  V30 34 H 1.185981 1.141720 -3.021798 0
M  V30 35 H 3.235714 3.627140 -0.204789 0
M  V30 36 H 1.996839 0.540186 3.043439 0
M  V30 37 H 2.424303 5.557349 4.467397 0
M  V30 38 H 2.654015 4.474986 5.846598 0
M  V30 39 H 4.107256 4.871114 4.827992 0
M  V30 40 H 2.629193 4.646501 2.026929 0
M  V30 41 H 0.636493 0.632471 1.157965 0
M  V30 42 H -0.932138 0.353811 -3.043635 0
M  V30 43 H -2.484933 -1.552349 -3.281664 0
M  V30 44 H -4.361738 -2.894278 -2.730783 0
M  V30 45 H -3.815810 -4.218785 -3.630528 0
M  V30 END ATOM
M  V30 BEGIN BOND
M  V30 1 1 1 2
M  V30 2 1 2 3
M  V30 3 1 2 4
M  V30 4 1 4 5
M  V30 5 2 5 6
M  V30 6 1 6 7
M  V30 7 1 7 8
M  V30 8 2 8 9
M  V30 9 1 9 10
M  V30 10 2 10 11
M  V30 11 1 11 12
M  V30 12 1 12 13
M  V30 13 1 13 14
M  V30 14 2 14 15
M  V30 15 1 15 16
M  V30 16 1 16 17
M  V30 17 1 16 18
M  V30 18 2 12 19
M  V30 19 2 7 20
M  V30 20 1 20 21
M  V30 21 2 21 22
M  V30 22 1 22 23
M  V30 23 1 23 24
M  V30 24 2 23 25
M  V30 25 1 22 5
M  V30 26 1 19 8
M  V30 27 2 18 13
M  V30 28 1 1 26
M  V30 29 1 1 27
M  V30 30 1 1 28
M  V30 31 1 2 29
M  V30 32 1 3 30
M  V30 33 1 3 31
M  V30 34 1 3 32
M  V30 35 1 6 33
M  V30 36 1 9 34
M  V30 37 1 11 35
M  V30 38 1 14 36
M  V30 39 1 17 37
M  V30 40 1 17 38
M  V30 41 1 17 39
M  V30 42 1 18 40
M  V30 43 1 19 41
M  V30 44 1 20 42
M  V30 45 1 21 43
M  V30 46 1 24 44
M  V30 47 1 24 45
M  V30 END BOND
M  V30 END CTAB
M  END
>  <Dataset>  (165) 
ChEMBL_Kinases

>  <Ligand_Instance>  (165) 
nan

>  <PDB_ID>  (165) 
nan

>  <Standardized_SMILES>  (165) 
CC(C)Oc1cc(-c2cncc(-c3cnn(C)c3)c2)ccc1C(N)=O

>  <Name>  (165) 
nan

>  <Pocket>  (165) 
nan

>  <ATP_Site>  (165) 
nan

>  <Peripheral>  (165) 
nan

>  <Num_H_Atoms_ProtBoundConf>  (165) 
nan

>  <Num_Resolved_Atoms>  (165) 
nan

>  <Num_Not_Resolved_Atoms>  (165) 
nan

$$$$
CHEMBL3706679
     RDKit          3D

  0  0  0  0  0  0  0  0  0  0999 V3000
M  V30 BEGIN CTAB
M  V30 COUNTS 77 81 0 0 0
M  V30 BEGIN ATOM
M  V30 1 C 7.580165 -0.354466 4.358050 0
M  V30 2 N 7.268882 -0.968960 3.078036 0
M  V30 3 C 6.847670 -2.339518 3.225501 0
M  V30 4 C 6.215340 -2.795417 1.930503 0
M  V30 5 N 6.695209 -2.032312 0.825565 0
M  V30 6 C 6.488082 -2.618744 -0.469982 0
M  V30 7 C 5.028134 -2.678760 -0.871106 0
M  V30 8 C 4.947974 -3.295957 -2.249127 0
M  V30 9 O 3.677865 -3.402792 -2.783346 0
M  V30 10 C 2.812015 -2.417840 -3.106411 0
M  V30 11 C 1.591275 -2.864714 -3.597490 0
M  V30 12 C 0.565001 -1.996781 -3.987446 0
M  V30 13 C 0.875727 -0.667416 -3.838511 0
M  V30 14 C -0.119621 0.200613 -4.215983 0
M  V30 15 N -1.427503 -0.025134 -4.716335 0
M  V30 16 C -2.364066 0.039936 -3.647542 0
M  V30 17 C -2.333856 -0.540469 -2.403917 0
M  V30 18 C -3.293396 -0.340205 -1.455580 0
M  V30 19 C -4.366510 0.471330 -1.700292 0
M  V30 20 N -5.423659 0.733008 -0.766060 0
M  V30 21 C -5.646955 0.038950 0.481691 0
M  V30 22 O -4.960884 -0.899870 0.857981 0
M  V30 23 N -6.727671 0.489676 1.303370 0
M  V30 24 C -6.880411 -0.311791 2.534328 0
M  V30 25 C -8.268592 -0.271388 3.054017 0
M  V30 26 C -8.626402 1.061198 3.686857 0
M  V30 27 C -7.717622 1.403817 4.834144 0
M  V30 28 C -6.510671 0.483464 4.887336 0
M  V30 29 C -5.893524 0.356044 3.515308 0
M  V30 30 C -4.480272 1.092625 -2.919100 0
M  V30 31 C -3.473442 0.859629 -3.864648 0
M  V30 32 N 0.067528 1.543653 -4.120241 0
M  V30 33 C 1.245830 2.050645 -3.646013 0
M  V30 34 N 2.244947 1.202980 -3.266006 0
M  V30 35 C 2.052479 -0.124354 -3.363700 0
M  V30 36 C 3.008101 -1.050123 -3.004384 0
M  V30 37 C 6.475533 -0.629832 0.873115 0
M  V30 38 C 6.370207 -0.159128 2.299617 0
M  V30 39 H 6.779417 -0.502836 5.116990 0
M  V30 40 H 7.728255 0.726474 4.236637 0
M  V30 41 H 8.528764 -0.786927 4.701807 0
M  V30 42 H 7.769205 -2.957951 3.426875 0
M  V30 43 H 6.148537 -2.470605 4.082345 0
M  V30 44 H 5.102922 -2.832378 2.013206 0
M  V30 45 H 6.581022 -3.854212 1.750089 0
M  V30 46 H 7.087246 -2.075058 -1.219698 0
M  V30 47 H 6.862646 -3.658508 -0.436630 0
M  V30 48 H 4.496906 -3.444908 -0.208887 0
M  V30 49 H 4.467552 -1.770720 -0.731818 0
M  V30 50 H 5.411743 -4.315539 -2.201233 0
M  V30 51 H 5.627785 -2.738191 -2.965282 0
M  V30 52 H 1.362855 -3.933539 -3.704013 0
M  V30 53 H -0.396606 -2.308475 -4.375649 0
M  V30 54 H -1.738524 -0.217719 -5.701921 0
M  V30 55 H -1.491880 -1.177926 -2.195742 0
M  V30 56 H -3.170037 -0.836887 -0.513420 0
M  V30 57 H -6.119796 1.500310 -0.993623 0
M  V30 58 H -7.334067 1.295074 1.046742 0
M  V30 59 H -6.479493 -1.307282 2.370868 0
M  V30 60 H -9.008313 -0.442119 2.256958 0
M  V30 61 H -8.387111 -1.065139 3.820082 0
M  V30 62 H -9.655765 0.965202 4.089298 0
M  V30 63 H -8.633413 1.876084 2.964513 0
M  V30 64 H -7.326289 2.426848 4.677931 0
M  V30 65 H -8.257848 1.411458 5.794560 0
M  V30 66 H -5.718217 0.862892 5.553714 0
M  V30 67 H -6.869357 -0.475861 5.302043 0
M  V30 68 H -5.016807 -0.306349 3.592983 0
M  V30 69 H -5.542051 1.323474 3.178939 0
M  V30 70 H -5.299475 1.747103 -3.189387 0
M  V30 71 H -3.593939 1.368826 -4.828545 0
M  V30 72 H 1.438554 3.124481 -3.556406 0
M  V30 73 H 3.929106 -0.667478 -2.652916 0
M  V30 74 H 5.575073 -0.275714 0.341202 0
M  V30 75 H 7.364473 -0.107197 0.441906 0
M  V30 76 H 5.345956 -0.139180 2.700721 0
M  V30 77 H 6.749804 0.885880 2.368236 0
M  V30 END ATOM
M  V30 BEGIN BOND
M  V30 1 1 1 2
M  V30 2 1 2 3
M  V30 3 1 3 4
M  V30 4 1 4 5
M  V30 5 1 5 6
M  V30 6 1 6 7
M  V30 7 1 7 8
M  V30 8 1 8 9
M  V30 9 1 9 10
M  V30 10 2 10 11
M  V30 11 1 11 12
M  V30 12 2 12 13
M  V30 13 1 13 14
M  V30 14 1 14 15
M  V30 15 1 15 16
M  V30 16 2 16 17
M  V30 17 1 17 18
M  V30 18 2 18 19
M  V30 19 1 19 20
M  V30 20 1 20 21
M  V30 21 2 21 22
M  V30 22 1 21 23
M  V30 23 1 23 24
M  V30 24 1 24 25
M  V30 25 1 25 26
M  V30 26 1 26 27
M  V30 27 1 27 28
M  V30 28 1 28 29
M  V30 29 1 19 30
M  V30 30 2 30 31
M  V30 31 2 14 32
M  V30 32 1 32 33
M  V30 33 2 33 34
M  V30 34 1 34 35
M  V30 35 2 35 36
M  V30 36 1 5 37
M  V30 37 1 37 38
M  V30 38 1 38 2
M  V30 39 1 36 10
M  V30 40 1 35 13
M  V30 41 1 31 16
M  V30 42 1 29 24
M  V30 43 1 1 39
M  V30 44 1 1 40
M  V30 45 1 1 41
M  V30 46 1 3 42
M  V30 47 1 3 43
M  V30 48 1 4 44
M  V30 49 1 4 45
M  V30 50 1 6 46
M  V30 51 1 6 47
M  V30 52 1 7 48
M  V30 53 1 7 49
M  V30 54 1 8 50
M  V30 55 1 8 51
M  V30 56 1 11 52
M  V30 57 1 12 53
M  V30 58 1 15 54
M  V30 59 1 17 55
M  V30 60 1 18 56
M  V30 61 1 20 57
M  V30 62 1 23 58
M  V30 63 1 24 59
M  V30 64 1 25 60
M  V30 65 1 25 61
M  V30 66 1 26 62
M  V30 67 1 26 63
M  V30 68 1 27 64
M  V30 69 1 27 65
M  V30 70 1 28 66
M  V30 71 1 28 67
M  V30 72 1 29 68
M  V30 73 1 29 69
M  V30 74 1 30 70
M  V30 75 1 31 71
M  V30 76 1 33 72
M  V30 77 1 36 73
M  V30 78 1 37 74
M  V30 79 1 37 75
M  V30 80 1 38 76
M  V30 81 1 38 77
M  V30 END BOND
M  V30 END CTAB
M  END
>  <Dataset>  (166) 
ChEMBL_Kinases

>  <Ligand_Instance>  (166) 
nan

>  <PDB_ID>  (166) 
nan

>  <Standardized_SMILES>  (166) 
CN1CCN(CCCOc2ccc3c(Nc4ccc(NC(=O)NC5CCCCC5)cc4)ncnc3c2)CC1

>  <Name>  (166) 
nan

>  <Pocket>  (166) 
nan

>  <ATP_Site>  (166) 
nan

>  <Peripheral>  (166) 
nan

>  <Num_H_Atoms_ProtBoundConf>  (166) 
nan

>  <Num_Resolved_Atoms>  (166) 
nan

>  <Num_Not_Resolved_Atoms>  (166) 
nan

$$$$
CHEMBL3706680
     RDKit          3D

  0  0  0  0  0  0  0  0  0  0999 V3000
M  V30 BEGIN CTAB
M  V30 COUNTS 75 79 0 0 0
M  V30 BEGIN ATOM
M  V30 1 O 3.063247 -1.114641 3.159005 0
M  V30 2 C 3.531717 -1.256866 4.327373 0
M  V30 3 N 3.982536 -0.093369 5.021594 0
M  V30 4 C 3.742682 0.983599 4.078358 0
M  V30 5 C 4.746396 1.388799 3.196000 0
M  V30 6 C 4.444628 2.402903 2.278303 0
M  V30 7 C 3.164232 2.899557 2.348247 0
M  V30 8 N 2.904508 3.911496 1.358334 0
M  V30 9 C 1.555018 4.391409 1.164038 0
M  V30 10 N 1.109136 5.583223 1.599489 0
M  V30 11 C -0.168835 5.930981 1.376257 0
M  V30 12 N -1.008054 5.114026 0.728764 0
M  V30 13 C -0.593732 3.907379 0.276645 0
M  V30 14 C -1.388809 2.983668 -0.396504 0
M  V30 15 C -0.974862 1.757168 -0.845959 0
M  V30 16 O -1.696300 0.933823 -1.446393 0
M  V30 17 C -2.635424 0.223114 -2.059120 0
M  V30 18 C -2.224593 -1.122372 -2.577613 0
M  V30 19 C -3.264118 -1.943755 -3.199884 0
M  V30 20 N -3.976920 -1.513478 -4.345040 0
M  V30 21 C -4.898812 -0.490791 -4.115589 0
M  V30 22 C -6.273025 -0.757815 -4.743116 0
M  V30 23 C -5.965330 -1.062932 -6.208740 0
M  V30 24 C -5.354598 -2.451032 -6.184715 0
M  V30 25 C -4.480449 -2.692241 -5.010248 0
M  V30 26 C 0.342778 1.443194 -0.596050 0
M  V30 27 C 1.227246 2.285282 0.065112 0
M  V30 28 C 0.726182 3.506021 0.486829 0
M  V30 29 C 2.147974 2.534669 3.196240 0
M  V30 30 C 2.473034 1.518265 4.106534 0
M  V30 31 N 3.528641 -2.637688 4.777314 0
M  V30 32 C 3.034279 -3.714589 3.976353 0
M  V30 33 C 1.876732 -4.470881 4.561866 0
M  V30 34 C 1.184213 -5.157734 3.406816 0
M  V30 35 C 2.075137 -5.904860 2.486013 0
M  V30 36 C 3.478088 -5.437902 2.351504 0
M  V30 37 C 4.050882 -4.733203 3.559293 0
M  V30 38 H 4.348812 -0.323630 5.984154 0
M  V30 39 H 5.706934 0.904236 3.259758 0
M  V30 40 H 5.201896 2.733767 1.586905 0
M  V30 41 H 3.591692 4.371999 0.728293 0
M  V30 42 H -0.539313 6.882592 1.718354 0
M  V30 43 H -2.403480 3.275393 -0.567184 0
M  V30 44 H -3.059516 0.798438 -2.939144 0
M  V30 45 H -3.533848 0.030229 -1.384857 0
M  V30 46 H -1.804943 -1.659102 -1.664331 0
M  V30 47 H -1.350212 -1.044575 -3.279089 0
M  V30 48 H -2.777818 -2.964766 -3.410859 0
M  V30 49 H -3.975084 -2.246919 -2.355933 0
M  V30 50 H -4.563364 0.453830 -4.627420 0
M  V30 51 H -5.137942 -0.233906 -3.067893 0
M  V30 52 H -6.814622 -1.571592 -4.247233 0
M  V30 53 H -6.803799 0.211580 -4.715355 0
M  V30 54 H -5.280942 -0.305280 -6.586864 0
M  V30 55 H -6.934415 -1.109347 -6.716709 0
M  V30 56 H -6.231968 -3.157981 -6.094306 0
M  V30 57 H -4.909661 -2.698840 -7.161094 0
M  V30 58 H -4.957941 -3.309710 -4.209269 0
M  V30 59 H -3.604537 -3.275303 -5.368414 0
M  V30 60 H 0.781468 0.484773 -0.912894 0
M  V30 61 H 2.254999 1.992569 0.237291 0
M  V30 62 H 1.171410 2.986147 3.176937 0
M  V30 63 H 1.708087 1.192560 4.798014 0
M  V30 64 H 3.922680 -2.748328 5.736884 0
M  V30 65 H 2.641574 -3.275140 3.006127 0
M  V30 66 H 2.206884 -5.148034 5.348287 0
M  V30 67 H 1.151630 -3.730830 4.983656 0
M  V30 68 H 0.443358 -5.863181 3.839667 0
M  V30 69 H 0.561470 -4.382833 2.894136 0
M  V30 70 H 2.023910 -7.010659 2.663918 0
M  V30 71 H 1.613507 -5.798733 1.453221 0
M  V30 72 H 4.136176 -6.339377 2.187505 0
M  V30 73 H 3.601798 -4.716222 1.498639 0
M  V30 74 H 4.951144 -4.172127 3.227300 0
M  V30 75 H 4.334667 -5.455237 4.323335 0
M  V30 END ATOM
M  V30 BEGIN BOND
M  V30 1 2 1 2
M  V30 2 1 2 3
M  V30 3 1 3 4
M  V30 4 2 4 5
M  V30 5 1 5 6
M  V30 6 2 6 7
M  V30 7 1 7 8
M  V30 8 1 8 9
M  V30 9 2 9 10
M  V30 10 1 10 11
M  V30 11 2 11 12
M  V30 12 1 12 13
M  V30 13 2 13 14
M  V30 14 1 14 15
M  V30 15 1 15 16
M  V30 16 1 16 17
M  V30 17 1 17 18
M  V30 18 1 18 19
M  V30 19 1 19 20
M  V30 20 1 20 21
M  V30 21 1 21 22
M  V30 22 1 22 23
M  V30 23 1 23 24
M  V30 24 1 24 25
M  V30 25 2 15 26
M  V30 26 1 26 27
M  V30 27 2 27 28
M  V30 28 1 7 29
M  V30 29 2 29 30
M  V30 30 1 2 31
M  V30 31 1 31 32
M  V30 32 1 32 33
M  V30 33 1 33 34
M  V30 34 1 34 35
M  V30 35 1 35 36
M  V30 36 1 36 37
M  V30 37 1 30 4
M  V30 38 1 37 32
M  V30 39 1 28 9
M  V30 40 1 28 13
M  V30 41 1 25 20
M  V30 42 1 3 38
M  V30 43 1 5 39
M  V30 44 1 6 40
M  V30 45 1 8 41
M  V30 46 1 11 42
M  V30 47 1 14 43
M  V30 48 1 17 44
M  V30 49 1 17 45
M  V30 50 1 18 46
M  V30 51 1 18 47
M  V30 52 1 19 48
M  V30 53 1 19 49
M  V30 54 1 21 50
M  V30 55 1 21 51
M  V30 56 1 22 52
M  V30 57 1 22 53
M  V30 58 1 23 54
M  V30 59 1 23 55
M  V30 60 1 24 56
M  V30 61 1 24 57
M  V30 62 1 25 58
M  V30 63 1 25 59
M  V30 64 1 26 60
M  V30 65 1 27 61
M  V30 66 1 29 62
M  V30 67 1 30 63
M  V30 68 1 31 64
M  V30 69 1 32 65
M  V30 70 1 33 66
M  V30 71 1 33 67
M  V30 72 1 34 68
M  V30 73 1 34 69
M  V30 74 1 35 70
M  V30 75 1 35 71
M  V30 76 1 36 72
M  V30 77 1 36 73
M  V30 78 1 37 74
M  V30 79 1 37 75
M  V30 END BOND
M  V30 END CTAB
M  END
>  <Dataset>  (167) 
ChEMBL_Kinases

>  <Ligand_Instance>  (167) 
nan

>  <PDB_ID>  (167) 
nan

>  <Standardized_SMILES>  (167) 
O=C(Nc1ccc(Nc2ncnc3cc(OCCCN4CCCCC4)ccc23)cc1)NC1CCCCC1

>  <Name>  (167) 
nan

>  <Pocket>  (167) 
nan

>  <ATP_Site>  (167) 
nan

>  <Peripheral>  (167) 
nan

>  <Num_H_Atoms_ProtBoundConf>  (167) 
nan

>  <Num_Resolved_Atoms>  (167) 
nan

>  <Num_Not_Resolved_Atoms>  (167) 
nan

$$$$
CHEMBL2398657
     RDKit          3D

  0  0  0  0  0  0  0  0  0  0999 V3000
M  V30 BEGIN CTAB
M  V30 COUNTS 72 76 0 0 0
M  V30 BEGIN ATOM
M  V30 1 C 3.522160 -5.976027 4.522122 0
M  V30 2 N 3.684747 -6.462213 3.190005 0
M  V30 3 C 2.547783 -6.110081 2.395137 0
M  V30 4 C 4.903560 -6.066269 2.560646 0
M  V30 5 C 4.997781 -4.585947 2.257424 0
M  V30 6 O 3.974428 -4.157526 1.397712 0
M  V30 7 C 3.805811 -2.856205 0.944147 0
M  V30 8 C 2.697938 -2.747274 0.106054 0
M  V30 9 C 2.372103 -1.525478 -0.442758 0
M  V30 10 C 3.140311 -0.396238 -0.167615 0
M  V30 11 C 2.818658 0.915025 -0.733919 0
M  V30 12 C 1.729106 1.126194 -1.572456 0
M  V30 13 C 1.741553 2.462285 -1.904256 0
M  V30 14 C 0.868303 3.165565 -2.712141 0
M  V30 15 N -0.239304 2.493774 -3.335491 0
M  V30 16 C -1.132121 3.233596 -4.167069 0
M  V30 17 C -2.257367 2.472072 -4.775587 0
M  V30 18 C -3.166088 1.832855 -3.809840 0
M  V30 19 C -2.995580 0.524010 -3.337482 0
M  V30 20 C -3.841531 -0.074521 -2.429112 0
M  V30 21 C -4.936118 0.635825 -1.934371 0
M  V30 22 N -5.692768 -0.145878 -1.010113 0
M  V30 23 C -5.259741 -0.037098 0.358014 0
M  V30 24 O -4.278185 0.730356 0.542952 0
M  V30 25 N -5.820590 -0.696057 1.483996 0
M  V30 26 C -5.252615 -0.468646 2.774786 0
M  V30 27 C -5.541326 0.476887 3.735107 0
M  V30 28 C -4.836169 0.479050 4.912512 0
M  V30 29 C -3.831369 -0.458967 5.156091 0
M  V30 30 C -3.537863 -1.402425 4.207471 0
M  V30 31 C -4.248348 -1.411681 3.009711 0
M  V30 32 C -5.131127 1.919533 -2.376784 0
M  V30 33 C -4.249500 2.457706 -3.284312 0
M  V30 34 N 1.080989 4.467712 -2.890986 0
M  V30 35 C 2.143722 5.025749 -2.268152 0
M  V30 36 N 2.994923 4.330534 -1.478129 0
M  V30 37 C 2.827395 3.021053 -1.264901 0
M  V30 38 O 3.441007 2.078546 -0.582542 0
M  V30 39 C 4.246421 -0.524548 0.673984 0
M  V30 40 C 4.559436 -1.736017 1.210616 0
M  V30 41 H 2.630837 -6.512884 4.954917 0
M  V30 42 H 3.243372 -4.906542 4.563191 0
M  V30 43 H 4.353632 -6.246267 5.201471 0
M  V30 44 H 2.180177 -5.095740 2.582340 0
M  V30 45 H 2.830811 -6.199738 1.325213 0
M  V30 46 H 1.747284 -6.872395 2.605323 0
M  V30 47 H 5.758239 -6.391820 3.193852 0
M  V30 48 H 5.043385 -6.601280 1.598330 0
M  V30 49 H 5.080127 -3.946183 3.141086 0
M  V30 50 H 5.957495 -4.452371 1.701126 0
M  V30 51 H 2.031965 -3.565923 -0.172770 0
M  V30 52 H 1.502991 -1.417296 -1.106223 0
M  V30 53 H 1.005683 0.390377 -1.906276 0
M  V30 54 H -0.362093 1.471396 -3.160540 0
M  V30 55 H -0.511804 3.615847 -5.027115 0
M  V30 56 H -1.543089 4.145685 -3.699025 0
M  V30 57 H -1.903881 1.739886 -5.559866 0
M  V30 58 H -2.865518 3.200686 -5.351816 0
M  V30 59 H -2.131303 -0.035644 -3.730028 0
M  V30 60 H -3.583169 -1.098643 -2.153638 0
M  V30 61 H -6.509592 -0.784798 -1.162327 0
M  V30 62 H -6.626620 -1.309869 1.262625 0
M  V30 63 H -6.328682 1.130333 3.418496 0
M  V30 64 H -5.107220 1.241837 5.622378 0
M  V30 65 H -3.290639 -0.430828 6.097969 0
M  V30 66 H -2.748986 -2.102865 4.453265 0
M  V30 67 H -3.915283 -2.209964 2.349626 0
M  V30 68 H -5.999615 2.382080 -1.937670 0
M  V30 69 H -4.488362 3.474272 -3.571322 0
M  V30 70 H 2.295825 6.091328 -2.429544 0
M  V30 71 H 4.883895 0.311677 0.927850 0
M  V30 72 H 5.401984 -1.941718 1.879262 0
M  V30 END ATOM
M  V30 BEGIN BOND
M  V30 1 1 1 2
M  V30 2 1 2 3
M  V30 3 1 2 4
M  V30 4 1 4 5
M  V30 5 1 5 6
M  V30 6 1 6 7
M  V30 7 2 7 8
M  V30 8 1 8 9
M  V30 9 2 9 10
M  V30 10 1 10 11
M  V30 11 2 11 12
M  V30 12 1 12 13
M  V30 13 2 13 14
M  V30 14 1 14 15
M  V30 15 1 15 16
M  V30 16 1 16 17
M  V30 17 1 17 18
M  V30 18 2 18 19
M  V30 19 1 19 20
M  V30 20 2 20 21
M  V30 21 1 21 22
M  V30 22 1 22 23
M  V30 23 2 23 24
M  V30 24 1 23 25
M  V30 25 1 25 26
M  V30 26 2 26 27
M  V30 27 1 27 28
M  V30 28 2 28 29
M  V30 29 1 29 30
M  V30 30 2 30 31
M  V30 31 1 21 32
M  V30 32 2 32 33
M  V30 33 1 14 34
M  V30 34 2 34 35
M  V30 35 1 35 36
M  V30 36 2 36 37
M  V30 37 1 37 38
M  V30 38 1 10 39
M  V30 39 2 39 40
M  V30 40 1 40 7
M  V30 41 1 38 11
M  V30 42 1 37 13
M  V30 43 1 33 18
M  V30 44 1 31 26
M  V30 45 1 1 41
M  V30 46 1 1 42
M  V30 47 1 1 43
M  V30 48 1 3 44
M  V30 49 1 3 45
M  V30 50 1 3 46
M  V30 51 1 4 47
M  V30 52 1 4 48
M  V30 53 1 5 49
M  V30 54 1 5 50
M  V30 55 1 8 51
M  V30 56 1 9 52
M  V30 57 1 12 53
M  V30 58 1 15 54
M  V30 59 1 16 55
M  V30 60 1 16 56
M  V30 61 1 17 57
M  V30 62 1 17 58
M  V30 63 1 19 59
M  V30 64 1 20 60
M  V30 65 1 22 61
M  V30 66 1 25 62
M  V30 67 1 27 63
M  V30 68 1 28 64
M  V30 69 1 29 65
M  V30 70 1 30 66
M  V30 71 1 31 67
M  V30 72 1 32 68
M  V30 73 1 33 69
M  V30 74 1 35 70
M  V30 75 1 39 71
M  V30 76 1 40 72
M  V30 END BOND
M  V30 END CTAB
M  END
>  <Dataset>  (168) 
ChEMBL_Kinases

>  <Ligand_Instance>  (168) 
nan

>  <PDB_ID>  (168) 
nan

>  <Standardized_SMILES>  (168) 
CN(C)CCOc1ccc(-c2cc3c(NCCc4ccc(NC(=O)Nc5ccccc5)cc4)ncnc3o2)cc1

>  <Name>  (168) 
nan

>  <Pocket>  (168) 
nan

>  <ATP_Site>  (168) 
nan

>  <Peripheral>  (168) 
nan

>  <Num_H_Atoms_ProtBoundConf>  (168) 
nan

>  <Num_Resolved_Atoms>  (168) 
nan

>  <Num_Not_Resolved_Atoms>  (168) 
nan

$$$$
CHEMBL3706681
     RDKit          3D

  0  0  0  0  0  0  0  0  0  0999 V3000
M  V30 BEGIN CTAB
M  V30 COUNTS 78 82 0 0 0
M  V30 BEGIN ATOM
M  V30 1 C 5.550989 -4.507762 1.672073 0
M  V30 2 C 4.936803 -4.476628 0.283272 0
M  V30 3 C 4.206803 -5.782025 0.088302 0
M  V30 4 C 2.804570 -5.591341 -0.409942 0
M  V30 5 C 2.071753 -4.638288 0.506275 0
M  V30 6 C 2.853293 -3.375551 0.772139 0
M  V30 7 N 4.115719 -3.324500 0.136870 0
M  V30 8 C 4.206181 -2.619785 -1.092604 0
M  V30 9 C 4.006542 -1.121568 -0.815029 0
M  V30 10 C 5.039086 -0.570572 0.115002 0
M  V30 11 O 4.912847 0.787729 0.426630 0
M  V30 12 C 3.879481 1.398439 1.079226 0
M  V30 13 C 2.707477 0.961734 1.639407 0
M  V30 14 C 1.774427 1.751955 2.260960 0
M  V30 15 C 2.019482 3.113175 2.340079 0
M  V30 16 C 1.033338 3.874436 2.979075 0
M  V30 17 N -0.116920 3.221904 3.501917 0
M  V30 18 C -1.254135 2.935073 2.692739 0
M  V30 19 C -2.309194 2.268745 3.296431 0
M  V30 20 C -3.407161 1.979487 2.514422 0
M  V30 21 C -3.391992 2.364472 1.197033 0
M  V30 22 N -4.521980 2.068520 0.346842 0
M  V30 23 C -4.354189 0.789545 -0.299131 0
M  V30 24 O -3.288571 0.166542 -0.025194 0
M  V30 25 N -5.275181 0.185445 -1.203053 0
M  V30 26 C -4.998267 -1.103842 -1.794584 0
M  V30 27 C -5.986196 -2.174435 -1.482045 0
M  V30 28 C -7.360763 -1.957811 -2.030272 0
M  V30 29 C -7.293994 -1.280810 -3.372391 0
M  V30 30 C -5.985813 -1.716489 -4.031709 0
M  V30 31 C -4.888577 -0.960675 -3.290396 0
M  V30 32 C -2.351770 3.033119 0.562871 0
M  V30 33 C -1.259671 3.313038 1.367366 0
M  V30 34 N 1.322518 5.187338 3.020956 0
M  V30 35 C 2.443279 5.706136 2.501207 0
M  V30 36 N 3.375055 4.955218 1.892927 0
M  V30 37 C 3.177141 3.628795 1.800422 0
M  V30 38 C 4.097346 2.781712 1.177224 0
M  V30 39 H 5.667313 -5.555068 1.996068 0
M  V30 40 H 6.499896 -3.933215 1.705899 0
M  V30 41 H 4.800118 -4.029764 2.355567 0
M  V30 42 H 5.740853 -4.426205 -0.484339 0
M  V30 43 H 4.136018 -6.359700 1.032652 0
M  V30 44 H 4.737894 -6.440334 -0.640564 0
M  V30 45 H 2.752363 -5.297701 -1.462413 0
M  V30 46 H 2.282631 -6.575114 -0.338910 0
M  V30 47 H 1.840777 -5.172245 1.450428 0
M  V30 48 H 1.086612 -4.458994 0.027880 0
M  V30 49 H 2.981415 -3.247975 1.878095 0
M  V30 50 H 2.217668 -2.543645 0.407924 0
M  V30 51 H 5.205907 -2.767971 -1.521062 0
M  V30 52 H 3.383503 -2.893606 -1.802254 0
M  V30 53 H 2.965482 -0.919010 -0.535883 0
M  V30 54 H 4.119723 -0.607199 -1.823334 0
M  V30 55 H 5.114142 -1.204539 1.032600 0
M  V30 56 H 6.026228 -0.664721 -0.430136 0
M  V30 57 H 2.557094 -0.097078 1.573250 0
M  V30 58 H 0.898738 1.262302 2.653964 0
M  V30 59 H -0.059034 2.979140 4.494478 0
M  V30 60 H -2.311906 1.974029 4.319743 0
M  V30 61 H -4.279106 1.458558 2.906770 0
M  V30 62 H -5.398747 2.584665 0.121263 0
M  V30 63 H -6.132484 0.753221 -1.380307 0
M  V30 64 H -4.011866 -1.442264 -1.413537 0
M  V30 65 H -6.002900 -2.448894 -0.393262 0
M  V30 66 H -5.580557 -3.106304 -1.967861 0
M  V30 67 H -8.043452 -1.465329 -1.306615 0
M  V30 68 H -7.837966 -2.962570 -2.224848 0
M  V30 69 H -8.162470 -1.521181 -4.021374 0
M  V30 70 H -7.259352 -0.196539 -3.271998 0
M  V30 71 H -5.931120 -1.355720 -5.093563 0
M  V30 72 H -5.829026 -2.807231 -3.974277 0
M  V30 73 H -3.884033 -1.300473 -3.668420 0
M  V30 74 H -5.045171 0.112718 -3.575463 0
M  V30 75 H -2.379715 3.317983 -0.473038 0
M  V30 76 H -0.387372 3.835117 0.970194 0
M  V30 77 H 2.603627 6.786122 2.576550 0
M  V30 78 H 4.963370 3.315793 0.796733 0
M  V30 END ATOM
M  V30 BEGIN BOND
M  V30 1 1 1 2
M  V30 2 1 2 3
M  V30 3 1 3 4
M  V30 4 1 4 5
M  V30 5 1 5 6
M  V30 6 1 6 7
M  V30 7 1 7 8
M  V30 8 1 8 9
M  V30 9 1 9 10
M  V30 10 1 10 11
M  V30 11 1 11 12
M  V30 12 2 12 13
M  V30 13 1 13 14
M  V30 14 2 14 15
M  V30 15 1 15 16
M  V30 16 1 16 17
M  V30 17 1 17 18
M  V30 18 2 18 19
M  V30 19 1 19 20
M  V30 20 2 20 21
M  V30 21 1 21 22
M  V30 22 1 22 23
M  V30 23 2 23 24
M  V30 24 1 23 25
M  V30 25 1 25 26
M  V30 26 1 26 27
M  V30 27 1 27 28
M  V30 28 1 28 29
M  V30 29 1 29 30
M  V30 30 1 30 31
M  V30 31 1 21 32
M  V30 32 2 32 33
M  V30 33 2 16 34
M  V30 34 1 34 35
M  V30 35 2 35 36
M  V30 36 1 36 37
M  V30 37 2 37 38
M  V30 38 1 7 2
M  V30 39 1 38 12
M  V30 40 1 37 15
M  V30 41 1 33 18
M  V30 42 1 31 26
M  V30 43 1 1 39
M  V30 44 1 1 40
M  V30 45 1 1 41
M  V30 46 1 2 42
M  V30 47 1 3 43
M  V30 48 1 3 44
M  V30 49 1 4 45
M  V30 50 1 4 46
M  V30 51 1 5 47
M  V30 52 1 5 48
M  V30 53 1 6 49
M  V30 54 1 6 50
M  V30 55 1 8 51
M  V30 56 1 8 52
M  V30 57 1 9 53
M  V30 58 1 9 54
M  V30 59 1 10 55
M  V30 60 1 10 56
M  V30 61 1 13 57
M  V30 62 1 14 58
M  V30 63 1 17 59
M  V30 64 1 19 60
M  V30 65 1 20 61
M  V30 66 1 22 62
M  V30 67 1 25 63
M  V30 68 1 26 64
M  V30 69 1 27 65
M  V30 70 1 27 66
M  V30 71 1 28 67
M  V30 72 1 28 68
M  V30 73 1 29 69
M  V30 74 1 29 70
M  V30 75 1 30 71
M  V30 76 1 30 72
M  V30 77 1 31 73
M  V30 78 1 31 74
M  V30 79 1 32 75
M  V30 80 1 33 76
M  V30 81 1 35 77
M  V30 82 1 38 78
M  V30 END BOND
M  V30 END CTAB
M  END
>  <Dataset>  (169) 
ChEMBL_Kinases

>  <Ligand_Instance>  (169) 
nan

>  <PDB_ID>  (169) 
nan

>  <Standardized_SMILES>  (169) 
CC1CCCCN1CCCOc1ccc2c(Nc3ccc(NC(=O)NC4CCCCC4)cc3)ncnc2c1

>  <Name>  (169) 
nan

>  <Pocket>  (169) 
nan

>  <ATP_Site>  (169) 
nan

>  <Peripheral>  (169) 
nan

>  <Num_H_Atoms_ProtBoundConf>  (169) 
nan

>  <Num_Resolved_Atoms>  (169) 
nan

>  <Num_Not_Resolved_Atoms>  (169) 
nan

$$$$
CHEMBL4457201
     RDKit          3D

  0  0  0  0  0  0  0  0  0  0999 V3000
M  V30 BEGIN CTAB
M  V30 COUNTS 57 60 0 0 0
M  V30 BEGIN ATOM
M  V30 1 C 5.741729 -3.213980 4.507730 0
M  V30 2 N 6.040157 -2.558969 3.240949 0
M  V30 3 C 7.264777 -2.844294 2.507945 0
M  V30 4 C 5.112906 -1.620338 2.709381 0
M  V30 5 C 5.380098 -0.977802 1.497121 0
M  V30 6 C 4.465651 -0.056004 0.976893 0
M  V30 7 C 3.289473 0.238218 1.641026 0
M  V30 8 C 2.397412 1.215746 1.016375 0
M  V30 9 O 2.757999 1.725507 -0.055229 0
M  V30 10 N 1.158406 1.587526 1.590843 0
M  V30 11 C 0.242811 2.526618 1.043041 0
M  V30 12 C 0.330219 3.859200 1.388767 0
M  V30 13 C -0.580398 4.734464 0.830784 0
M  V30 14 F -0.533446 6.051072 1.142361 0
M  V30 15 C -1.536920 4.287146 -0.037092 0
M  V30 16 C -1.665680 2.969616 -0.413446 0
M  V30 17 N -2.693844 2.616590 -1.321098 0
M  V30 18 C -3.008371 1.346136 -1.854034 0
M  V30 19 O -2.322826 0.361082 -1.517280 0
M  V30 20 C -4.124041 1.121880 -2.804167 0
M  V30 21 O -4.246446 -0.206302 -3.192124 0
M  V30 22 C -4.497474 -1.307528 -2.432157 0
M  V30 23 C -4.712241 -1.444157 -1.070028 0
M  V30 24 C -4.951723 -2.669875 -0.485583 0
M  V30 25 C -4.986756 -3.829590 -1.257226 0
M  V30 26 C -5.231595 -5.028290 -0.612207 0
M  V30 27 O -5.421942 -5.139409 0.608456 0
M  V30 28 C -5.266025 -6.183271 -1.386573 0
M  V30 29 C -5.046317 -6.006025 -2.752622 0
M  V30 30 O -4.817462 -4.838171 -3.312373 0
M  V30 31 C -4.775624 -3.726510 -2.627619 0
M  V30 32 C -4.540155 -2.492335 -3.174784 0
M  V30 33 C -0.743112 2.136934 0.162929 0
M  V30 34 C 3.048140 -0.407730 2.833951 0
M  V30 35 C 3.945080 -1.322114 3.359755 0
M  V30 36 H 4.764506 -3.692744 4.549498 0
M  V30 37 H 5.760052 -2.461794 5.345929 0
M  V30 38 H 6.543094 -3.943476 4.765988 0
M  V30 39 H 7.924774 -1.961894 2.560445 0
M  V30 40 H 7.029074 -3.033071 1.439846 0
M  V30 41 H 7.759483 -3.720489 2.984922 0
M  V30 42 H 6.304311 -1.182250 0.935008 0
M  V30 43 H 4.747024 0.403882 0.024789 0
M  V30 44 H 0.835649 1.165355 2.500626 0
M  V30 45 H 1.104514 4.165392 2.079642 0
M  V30 46 H -2.235141 5.033589 -0.449518 0
M  V30 47 H -3.329951 3.360866 -1.671147 0
M  V30 48 H -3.922457 1.709246 -3.741582 0
M  V30 49 H -5.096352 1.498654 -2.419613 0
M  V30 50 H -4.682342 -0.533055 -0.527041 0
M  V30 51 H -5.109041 -2.685378 0.588009 0
M  V30 52 H -5.449866 -7.196888 -0.999265 0
M  V30 53 H -5.073665 -6.915467 -3.360639 0
M  V30 54 H -4.390219 -2.537215 -4.246898 0
M  V30 55 H -0.759535 1.099916 -0.064533 0
M  V30 56 H 2.118025 -0.169689 3.350996 0
M  V30 57 H 3.747616 -1.822279 4.292964 0
M  V30 END ATOM
M  V30 BEGIN BOND
M  V30 1 1 1 2
M  V30 2 1 2 3
M  V30 3 1 2 4
M  V30 4 2 4 5
M  V30 5 1 5 6
M  V30 6 2 6 7
M  V30 7 1 7 8
M  V30 8 2 8 9
M  V30 9 1 8 10
M  V30 10 1 10 11
M  V30 11 2 11 12
M  V30 12 1 12 13
M  V30 13 1 13 14
M  V30 14 2 13 15
M  V30 15 1 15 16
M  V30 16 1 16 17
M  V30 17 1 17 18
M  V30 18 2 18 19
M  V30 19 1 18 20
M  V30 20 1 20 21
M  V30 21 1 21 22
M  V30 22 2 22 23
M  V30 23 1 23 24
M  V30 24 2 24 25
M  V30 25 1 25 26
M  V30 26 2 26 27
M  V30 27 1 26 28
M  V30 28 2 28 29
M  V30 29 1 29 30
M  V30 30 1 30 31
M  V30 31 2 31 32
M  V30 32 2 16 33
M  V30 33 1 7 34
M  V30 34 2 34 35
M  V30 35 1 35 4
M  V30 36 1 33 11
M  V30 37 1 32 22
M  V30 38 1 31 25
M  V30 39 1 1 36
M  V30 40 1 1 37
M  V30 41 1 1 38
M  V30 42 1 3 39
M  V30 43 1 3 40
M  V30 44 1 3 41
M  V30 45 1 5 42
M  V30 46 1 6 43
M  V30 47 1 10 44
M  V30 48 1 12 45
M  V30 49 1 15 46
M  V30 50 1 17 47
M  V30 51 1 20 48
M  V30 52 1 20 49
M  V30 53 1 23 50
M  V30 54 1 24 51
M  V30 55 1 28 52
M  V30 56 1 29 53
M  V30 57 1 32 54
M  V30 58 1 33 55
M  V30 59 1 34 56
M  V30 60 1 35 57
M  V30 END BOND
M  V30 END CTAB
M  END
>  <Dataset>  (170) 
ChEMBL_Kinases

>  <Ligand_Instance>  (170) 
nan

>  <PDB_ID>  (170) 
nan

>  <Standardized_SMILES>  (170) 
CN(C)c1ccc(C(=O)Nc2cc(F)cc(NC(=O)COc3ccc4c(=O)ccoc4c3)c2)cc1

>  <Name>  (170) 
nan

>  <Pocket>  (170) 
nan

>  <ATP_Site>  (170) 
nan

>  <Peripheral>  (170) 
nan

>  <Num_H_Atoms_ProtBoundConf>  (170) 
nan

>  <Num_Resolved_Atoms>  (170) 
nan

>  <Num_Not_Resolved_Atoms>  (170) 
nan

$$$$
CHEMBL2401964
     RDKit          3D

  0  0  0  0  0  0  0  0  0  0999 V3000
M  V30 BEGIN CTAB
M  V30 COUNTS 48 51 0 0 0
M  V30 BEGIN ATOM
M  V30 1 C 1.311222 -3.245381 1.893140 0
M  V30 2 C 0.106557 -3.736755 1.181730 0
M  V30 3 C -0.150044 -3.243565 -0.180835 0 CFG=2
M  V30 4 C 0.914901 -3.533390 -1.187416 0
M  V30 5 O 1.129568 -4.368500 -2.108717 0
M  V30 6 N 1.979808 -2.567837 -1.032804 0
M  V30 7 C 3.380910 -2.785560 -1.407696 0
M  V30 8 C 1.759039 -1.276417 -0.486760 0
M  V30 9 C 2.736125 -0.323869 -0.309033 0
M  V30 10 N 2.447482 0.872688 0.220993 0
M  V30 11 C 1.214467 1.222971 0.609839 0
M  V30 12 C 1.153842 2.578760 1.111044 0
M  V30 13 C 2.079302 3.573687 0.883191 0
M  V30 14 N 1.720220 4.701428 1.517165 0
M  V30 15 N 0.586115 4.498094 2.164177 0
M  V30 16 C 0.259336 3.227599 1.915693 0
M  V30 17 C -0.966111 2.715204 2.561227 0
M  V30 18 N -1.749744 3.173067 3.251905 0
M  V30 19 C -2.808269 2.632885 3.827071 0
M  V30 20 C -3.020161 1.293120 3.561888 0
M  V30 21 S -1.587921 0.946010 2.450764 0
M  V30 22 N 0.257382 0.308067 0.441256 0
M  V30 23 C 0.495736 -0.900342 -0.085874 0
M  V30 24 N -0.546610 -1.844225 -0.252733 0
M  V30 25 C -1.916215 -1.518739 -0.504811 0
M  V30 26 C -2.267111 -0.117131 -0.807916 0
M  V30 27 C -2.841294 -1.992572 0.600648 0
M  V30 28 H 2.276453 -3.399753 1.381090 0
M  V30 29 H 1.266161 -2.180278 2.200743 0
M  V30 30 H 1.443142 -3.791864 2.878510 0
M  V30 31 H -0.774840 -3.452304 1.829334 0
M  V30 32 H 0.118932 -4.859177 1.245549 0
M  V30 33 H -1.035947 -3.831068 -0.574280 0
M  V30 34 H 3.695883 -1.980638 -2.088260 0
M  V30 35 H 3.963617 -2.708210 -0.466031 0
M  V30 36 H 3.484228 -3.795141 -1.861838 0
M  V30 37 H 3.737627 -0.574955 -0.609666 0
M  V30 38 H 3.005115 3.543990 0.285839 0
M  V30 39 H 0.117129 5.237704 2.727407 0
M  V30 40 H -3.448919 3.259717 4.469664 0
M  V30 41 H -3.905223 0.757517 4.016935 0
M  V30 42 H -2.240968 -2.155577 -1.399290 0
M  V30 43 H -2.941383 0.364312 -0.067875 0
M  V30 44 H -1.408818 0.500972 -1.121596 0
M  V30 45 H -2.921868 -0.109599 -1.751505 0
M  V30 46 H -3.106009 -3.062199 0.486997 0
M  V30 47 H -2.461852 -1.772739 1.609226 0
M  V30 48 H -3.796968 -1.447221 0.476640 0
M  V30 END ATOM
M  V30 BEGIN BOND
M  V30 1 1 1 2
M  V30 2 1 2 3
M  V30 3 1 3 4
M  V30 4 2 4 5
M  V30 5 1 4 6
M  V30 6 1 6 7
M  V30 7 1 6 8
M  V30 8 2 8 9
M  V30 9 1 9 10
M  V30 10 2 10 11
M  V30 11 1 11 12
M  V30 12 1 12 13
M  V30 13 2 13 14
M  V30 14 1 14 15
M  V30 15 1 15 16
M  V30 16 1 16 17
M  V30 17 2 17 18
M  V30 18 1 18 19
M  V30 19 2 19 20
M  V30 20 1 20 21
M  V30 21 1 11 22
M  V30 22 2 22 23
M  V30 23 1 23 24
M  V30 24 1 24 25
M  V30 25 1 25 26
M  V30 26 1 25 27
M  V30 27 1 24 3
M  V30 28 1 23 8
M  V30 29 2 16 12
M  V30 30 1 21 17
M  V30 31 1 1 28
M  V30 32 1 1 29
M  V30 33 1 1 30
M  V30 34 1 2 31
M  V30 35 1 2 32
M  V30 36 1 3 33 CFG=3
M  V30 37 1 7 34
M  V30 38 1 7 35
M  V30 39 1 7 36
M  V30 40 1 9 37
M  V30 41 1 13 38
M  V30 42 1 15 39
M  V30 43 1 19 40
M  V30 44 1 20 41
M  V30 45 1 25 42
M  V30 46 1 26 43
M  V30 47 1 26 44
M  V30 48 1 26 45
M  V30 49 1 27 46
M  V30 50 1 27 47
M  V30 51 1 27 48
M  V30 END BOND
M  V30 END CTAB
M  END
>  <Dataset>  (171) 
ChEMBL_Kinases

>  <Ligand_Instance>  (171) 
nan

>  <PDB_ID>  (171) 
nan

>  <Standardized_SMILES>  (171) 
CC[C@@H]1C(=O)N(C)c2cnc(-c3cn[nH]c3-c3nccs3)nc2N1C(C)C

>  <Name>  (171) 
nan

>  <Pocket>  (171) 
nan

>  <ATP_Site>  (171) 
nan

>  <Peripheral>  (171) 
nan

>  <Num_H_Atoms_ProtBoundConf>  (171) 
nan

>  <Num_Resolved_Atoms>  (171) 
nan

>  <Num_Not_Resolved_Atoms>  (171) 
nan

$$$$
CHEMBL3706682
     RDKit          3D

  0  0  0  0  0  0  0  0  0  0999 V3000
M  V30 BEGIN CTAB
M  V30 COUNTS 78 82 0 0 0
M  V30 BEGIN ATOM
M  V30 1 C 4.704305 -0.322055 5.105528 0
M  V30 2 C 4.679911 -0.895594 3.726442 0
M  V30 3 C 3.291283 -1.369704 3.352856 0
M  V30 4 C 3.164870 -1.649399 1.903240 0
M  V30 5 N 4.376708 -1.696294 1.170590 0
M  V30 6 C 4.216632 -2.078038 -0.217270 0
M  V30 7 C 5.533052 -2.102429 -0.927849 0
M  V30 8 C 5.471954 -2.533619 -2.354677 0
M  V30 9 O 4.730968 -1.880967 -3.257643 0
M  V30 10 C 3.460978 -1.593216 -3.556061 0
M  V30 11 C 2.191253 -1.838657 -3.091661 0
M  V30 12 C 1.013469 -1.385599 -3.628827 0
M  V30 13 C 1.130695 -0.602549 -4.754019 0
M  V30 14 C -0.066806 -0.152820 -5.283864 0
M  V30 15 N -1.303821 -0.481463 -4.708363 0
M  V30 16 C -2.245815 -0.049881 -3.735147 0
M  V30 17 C -3.395511 -0.801359 -3.582923 0
M  V30 18 C -4.250526 -0.314700 -2.616059 0
M  V30 19 C -3.984629 0.827258 -1.860720 0
M  V30 20 N -5.012276 1.162571 -0.900138 0
M  V30 21 C -4.706945 0.489206 0.338038 0
M  V30 22 O -3.707759 -0.247504 0.496093 0
M  V30 23 N -5.540859 0.614704 1.504667 0
M  V30 24 C -5.242736 -0.058258 2.750212 0
M  V30 25 C -6.384356 -1.053009 2.981023 0
M  V30 26 C -6.221666 -1.746894 4.313112 0
M  V30 27 C -6.319409 -0.696639 5.390932 0
M  V30 28 C -5.168841 0.257267 5.230888 0
M  V30 29 C -5.141271 0.915861 3.876595 0
M  V30 30 C -2.813975 1.530568 -2.066454 0
M  V30 31 C -1.921461 1.087990 -3.022347 0
M  V30 32 N -0.008065 0.619891 -6.387550 0
M  V30 33 C 1.171381 0.946612 -6.960021 0
M  V30 34 N 2.305482 0.490670 -6.415716 0
M  V30 35 C 2.344384 -0.282858 -5.319776 0
M  V30 36 C 3.505360 -0.785323 -4.710344 0
M  V30 37 C 5.305805 -0.647839 1.393461 0
M  V30 38 C 5.069571 0.123038 2.668723 0
M  V30 39 H 3.723571 -0.122417 5.550184 0
M  V30 40 H 5.381634 0.577182 5.092313 0
M  V30 41 H 5.255325 -1.050233 5.764073 0
M  V30 42 H 5.384789 -1.749186 3.613151 0
M  V30 43 H 2.537678 -0.655135 3.744144 0
M  V30 44 H 3.142785 -2.330334 3.907864 0
M  V30 45 H 2.609953 -2.591934 1.723040 0
M  V30 46 H 2.540249 -0.833178 1.465378 0
M  V30 47 H 3.550379 -1.292068 -0.683791 0
M  V30 48 H 3.780316 -3.087979 -0.242133 0
M  V30 49 H 6.201201 -2.838026 -0.372889 0
M  V30 50 H 6.076140 -1.127445 -0.847010 0
M  V30 51 H 5.280577 -3.675959 -2.350451 0
M  V30 52 H 6.555569 -2.545835 -2.753594 0
M  V30 53 H 2.226847 -2.467311 -2.226431 0
M  V30 54 H 0.120820 -1.695153 -3.106332 0
M  V30 55 H -1.462349 -1.359632 -5.289055 0
M  V30 56 H -3.599239 -1.674611 -4.160074 0
M  V30 57 H -5.174867 -0.886336 -2.466784 0
M  V30 58 H -5.856317 1.755811 -0.954413 0
M  V30 59 H -6.395531 1.211029 1.462566 0
M  V30 60 H -4.318719 -0.660289 2.695237 0
M  V30 61 H -6.346775 -1.773366 2.133992 0
M  V30 62 H -7.350389 -0.508882 2.982412 0
M  V30 63 H -7.036458 -2.498702 4.381527 0
M  V30 64 H -5.252773 -2.269630 4.353725 0
M  V30 65 H -7.296143 -0.172407 5.298587 0
M  V30 66 H -6.183930 -1.189882 6.378569 0
M  V30 67 H -4.255157 -0.271054 5.500335 0
M  V30 68 H -5.318200 1.075114 5.982262 0
M  V30 69 H -4.171979 1.450130 3.802658 0
M  V30 70 H -5.924186 1.685656 3.872438 0
M  V30 71 H -2.665300 2.400199 -1.455565 0
M  V30 72 H -1.005430 1.627936 -3.191746 0
M  V30 73 H 1.356768 1.541014 -7.822247 0
M  V30 74 H 4.371531 -0.428271 -5.297601 0
M  V30 75 H 6.329193 -1.072020 1.447731 0
M  V30 76 H 5.285176 0.090671 0.579837 0
M  V30 77 H 6.000407 0.650793 2.927017 0
M  V30 78 H 4.206354 0.812304 2.538021 0
M  V30 END ATOM
M  V30 BEGIN BOND
M  V30 1 1 1 2
M  V30 2 1 2 3
M  V30 3 1 3 4
M  V30 4 1 4 5
M  V30 5 1 5 6
M  V30 6 1 6 7
M  V30 7 1 7 8
M  V30 8 1 8 9
M  V30 9 1 9 10
M  V30 10 2 10 11
M  V30 11 1 11 12
M  V30 12 2 12 13
M  V30 13 1 13 14
M  V30 14 1 14 15
M  V30 15 1 15 16
M  V30 16 2 16 17
M  V30 17 1 17 18
M  V30 18 2 18 19
M  V30 19 1 19 20
M  V30 20 1 20 21
M  V30 21 2 21 22
M  V30 22 1 21 23
M  V30 23 1 23 24
M  V30 24 1 24 25
M  V30 25 1 25 26
M  V30 26 1 26 27
M  V30 27 1 27 28
M  V30 28 1 28 29
M  V30 29 1 19 30
M  V30 30 2 30 31
M  V30 31 2 14 32
M  V30 32 1 32 33
M  V30 33 2 33 34
M  V30 34 1 34 35
M  V30 35 2 35 36
M  V30 36 1 5 37
M  V30 37 1 37 38
M  V30 38 1 38 2
M  V30 39 1 36 10
M  V30 40 1 35 13
M  V30 41 1 31 16
M  V30 42 1 29 24
M  V30 43 1 1 39
M  V30 44 1 1 40
M  V30 45 1 1 41
M  V30 46 1 2 42
M  V30 47 1 3 43
M  V30 48 1 3 44
M  V30 49 1 4 45
M  V30 50 1 4 46
M  V30 51 1 6 47
M  V30 52 1 6 48
M  V30 53 1 7 49
M  V30 54 1 7 50
M  V30 55 1 8 51
M  V30 56 1 8 52
M  V30 57 1 11 53
M  V30 58 1 12 54
M  V30 59 1 15 55
M  V30 60 1 17 56
M  V30 61 1 18 57
M  V30 62 1 20 58
M  V30 63 1 23 59
M  V30 64 1 24 60
M  V30 65 1 25 61
M  V30 66 1 25 62
M  V30 67 1 26 63
M  V30 68 1 26 64
M  V30 69 1 27 65
M  V30 70 1 27 66
M  V30 71 1 28 67
M  V30 72 1 28 68
M  V30 73 1 29 69
M  V30 74 1 29 70
M  V30 75 1 30 71
M  V30 76 1 31 72
M  V30 77 1 33 73
M  V30 78 1 36 74
M  V30 79 1 37 75
M  V30 80 1 37 76
M  V30 81 1 38 77
M  V30 82 1 38 78
M  V30 END BOND
M  V30 END CTAB
M  END
>  <Dataset>  (172) 
ChEMBL_Kinases

>  <Ligand_Instance>  (172) 
nan

>  <PDB_ID>  (172) 
nan

>  <Standardized_SMILES>  (172) 
CC1CCN(CCCOc2ccc3c(Nc4ccc(NC(=O)NC5CCCCC5)cc4)ncnc3c2)CC1

>  <Name>  (172) 
nan

>  <Pocket>  (172) 
nan

>  <ATP_Site>  (172) 
nan

>  <Peripheral>  (172) 
nan

>  <Num_H_Atoms_ProtBoundConf>  (172) 
nan

>  <Num_Resolved_Atoms>  (172) 
nan

>  <Num_Not_Resolved_Atoms>  (172) 
nan

$$$$
CHEMBL2401956
     RDKit          3D

  0  0  0  0  0  0  0  0  0  0999 V3000
M  V30 BEGIN CTAB
M  V30 COUNTS 53 57 0 0 0
M  V30 BEGIN ATOM
M  V30 1 C 1.671343 -1.986580 3.380498 0
M  V30 2 C 1.523396 -3.259607 2.597937 0
M  V30 3 C 1.869385 -3.127396 1.137734 0 CFG=2
M  V30 4 C 3.277923 -2.692042 0.956433 0
M  V30 5 O 4.210245 -3.543616 0.759967 0
M  V30 6 N 3.603447 -1.318839 0.999942 0
M  V30 7 C 4.982681 -0.898851 1.234063 0
M  V30 8 C 2.566644 -0.365362 0.812176 0
M  V30 9 C 2.946901 0.947341 0.873436 0
M  V30 10 N 1.962345 1.855354 0.701664 0
M  V30 11 C 0.663383 1.494062 0.480077 0
M  V30 12 C -0.187848 2.642681 0.330238 0
M  V30 13 C 0.131932 3.980860 0.295855 0
M  V30 14 N -0.976891 4.735868 0.156727 0
M  V30 15 N -2.011936 3.919396 0.099985 0
M  V30 16 C -1.555799 2.662696 0.202783 0
M  V30 17 C -2.510295 1.568020 0.178108 0
M  V30 18 C -2.468625 0.843185 1.376530 0
M  V30 19 C -3.305151 -0.241021 1.584008 0
M  V30 20 C -4.184077 -0.596446 0.585530 0
M  V30 21 F -5.003453 -1.647632 0.774819 0
M  V30 22 C -4.227708 0.122148 -0.607146 0
M  V30 23 C -3.396037 1.199520 -0.812917 0
M  V30 24 F -3.334737 1.980289 -1.917729 0
M  V30 25 N 0.262111 0.213708 0.414269 0
M  V30 26 C 1.232771 -0.726576 0.583107 0
M  V30 27 N 0.985319 -2.125728 0.546996 0
M  V30 28 C -0.184828 -2.589458 -0.128305 0
M  V30 29 C -0.642585 -3.916698 -0.139536 0
M  V30 30 N -1.756065 -4.030236 -0.878284 0
M  V30 31 N -2.034723 -2.837426 -1.342058 0
M  V30 32 C -3.199686 -2.677342 -2.187093 0
M  V30 33 C -1.098660 -1.956368 -0.899882 0
M  V30 34 H 0.981633 -1.197845 3.070697 0
M  V30 35 H 1.450245 -2.212640 4.468454 0
M  V30 36 H 2.715255 -1.604142 3.407197 0
M  V30 37 H 2.093590 -4.094000 3.083493 0
M  V30 38 H 0.448215 -3.575425 2.731327 0
M  V30 39 H 1.692109 -4.094196 0.597955 0
M  V30 40 H 5.304219 -0.222906 0.414752 0
M  V30 41 H 5.620895 -1.796093 1.326656 0
M  V30 42 H 5.083196 -0.324923 2.178539 0
M  V30 43 H 3.962110 1.239919 1.046920 0
M  V30 44 H 1.130350 4.406227 0.368131 0
M  V30 45 H -2.980844 4.298437 -0.008276 0
M  V30 46 H -1.812030 1.041403 2.227233 0
M  V30 47 H -3.301511 -0.824351 2.495937 0
M  V30 48 H -4.900715 -0.122907 -1.414187 0
M  V30 49 H -0.201254 -4.791550 0.363905 0
M  V30 50 H -3.060712 -1.726248 -2.772873 0
M  V30 51 H -4.092355 -2.635555 -1.562153 0
M  V30 52 H -3.244764 -3.483117 -2.960725 0
M  V30 53 H -1.112288 -0.921974 -1.145313 0
M  V30 END ATOM
M  V30 BEGIN BOND
M  V30 1 1 1 2
M  V30 2 1 2 3
M  V30 3 1 3 4
M  V30 4 2 4 5
M  V30 5 1 4 6
M  V30 6 1 6 7
M  V30 7 1 6 8
M  V30 8 2 8 9
M  V30 9 1 9 10
M  V30 10 2 10 11
M  V30 11 1 11 12
M  V30 12 1 12 13
M  V30 13 2 13 14
M  V30 14 1 14 15
M  V30 15 1 15 16
M  V30 16 1 16 17
M  V30 17 2 17 18
M  V30 18 1 18 19
M  V30 19 2 19 20
M  V30 20 1 20 21
M  V30 21 1 20 22
M  V30 22 2 22 23
M  V30 23 1 23 24
M  V30 24 1 11 25
M  V30 25 2 25 26
M  V30 26 1 26 27
M  V30 27 1 27 28
M  V30 28 1 28 29
M  V30 29 2 29 30
M  V30 30 1 30 31
M  V30 31 1 31 32
M  V30 32 1 31 33
M  V30 33 1 27 3
M  V30 34 2 33 28
M  V30 35 1 26 8
M  V30 36 2 16 12
M  V30 37 1 23 17
M  V30 38 1 1 34
M  V30 39 1 1 35
M  V30 40 1 1 36
M  V30 41 1 2 37
M  V30 42 1 2 38
M  V30 43 1 3 39 CFG=3
M  V30 44 1 7 40
M  V30 45 1 7 41
M  V30 46 1 7 42
M  V30 47 1 9 43
M  V30 48 1 13 44
M  V30 49 1 15 45
M  V30 50 1 18 46
M  V30 51 1 19 47
M  V30 52 1 22 48
M  V30 53 1 29 49
M  V30 54 1 32 50
M  V30 55 1 32 51
M  V30 56 1 32 52
M  V30 57 1 33 53
M  V30 END BOND
M  V30 END CTAB
M  END
>  <Dataset>  (173) 
ChEMBL_Kinases

>  <Ligand_Instance>  (173) 
nan

>  <PDB_ID>  (173) 
nan

>  <Standardized_SMILES>  (173) 
CC[C@@H]1C(=O)N(C)c2cnc(-c3cn[nH]c3-c3ccc(F)cc3F)nc2N1c1cnn(C)c1

>  <Name>  (173) 
nan

>  <Pocket>  (173) 
nan

>  <ATP_Site>  (173) 
nan

>  <Peripheral>  (173) 
nan

>  <Num_H_Atoms_ProtBoundConf>  (173) 
nan

>  <Num_Resolved_Atoms>  (173) 
nan

>  <Num_Not_Resolved_Atoms>  (173) 
nan

$$$$
CHEMBL219112
     RDKit          3D

  0  0  0  0  0  0  0  0  0  0999 V3000
M  V30 BEGIN CTAB
M  V30 COUNTS 44 46 0 0 0
M  V30 BEGIN ATOM
M  V30 1 C 3.541102 -3.060784 5.012565 0
M  V30 2 S 4.850104 -2.473774 3.978057 0
M  V30 3 O 5.624457 -3.674507 3.473139 0
M  V30 4 O 5.776986 -1.681516 4.881949 0
M  V30 5 C 4.271314 -1.511058 2.659425 0
M  V30 6 C 3.936741 -2.168912 1.475234 0
M  V30 7 C 3.475062 -1.387311 0.417886 0
M  V30 8 C 3.335355 0.001449 0.491223 0
M  V30 9 C 2.827507 0.597647 -0.772045 0
M  V30 10 N 1.380183 0.603908 -0.686471 0
M  V30 11 C 0.574976 1.499370 0.044245 0
M  V30 12 O 1.085715 2.423917 0.722636 0
M  V30 13 C -0.881212 1.304917 -0.022452 0
M  V30 14 C -1.744846 2.135557 0.658947 0
M  V30 15 C -3.124817 1.921500 0.573562 0
M  V30 16 N -4.033140 2.775023 1.274189 0
M  V30 17 C -3.651840 0.892374 -0.180897 0
M  V30 18 C -5.058388 0.632007 -0.298357 0
M  V30 19 N -6.188934 0.410027 -0.406524 0
M  V30 20 C -2.753189 0.088660 -0.844002 0
M  V30 21 C -3.149148 -1.041722 -1.680425 0
M  V30 22 C -2.544508 -2.274582 -1.628085 0
M  V30 23 C -2.964517 -3.252825 -2.425583 0
M  V30 24 S -4.325352 -2.547370 -3.401992 0
M  V30 25 C -4.170990 -0.883863 -2.567909 0
M  V30 26 N -1.438322 0.316890 -0.744015 0
M  V30 27 C 3.674610 0.618033 1.675117 0
M  V30 28 C 4.134536 -0.147190 2.733228 0
M  V30 29 H 3.267977 -2.277680 5.760797 0
M  V30 30 H 2.680913 -3.407348 4.402699 0
M  V30 31 H 3.952969 -3.911670 5.600902 0
M  V30 32 H 4.038215 -3.230231 1.402487 0
M  V30 33 H 3.232741 -1.975733 -0.477260 0
M  V30 34 H 3.131827 1.662456 -0.872312 0
M  V30 35 H 3.200279 0.067015 -1.650473 0
M  V30 36 H 0.911523 -0.167740 -1.250117 0
M  V30 37 H -1.353730 2.951017 1.257633 0
M  V30 38 H -4.555375 3.664786 1.031661 0
M  V30 39 H -4.332434 2.582423 2.271840 0
M  V30 40 H -1.715545 -2.513012 -0.953978 0
M  V30 41 H -2.665415 -4.273410 -2.570491 0
M  V30 42 H -4.787830 -0.024452 -2.787382 0
M  V30 43 H 3.545002 1.687892 1.660980 0
M  V30 44 H 4.387324 0.379004 3.637955 0
M  V30 END ATOM
M  V30 BEGIN BOND
M  V30 1 1 1 2
M  V30 2 2 2 3
M  V30 3 2 2 4
M  V30 4 1 2 5
M  V30 5 2 5 6
M  V30 6 1 6 7
M  V30 7 2 7 8
M  V30 8 1 8 9
M  V30 9 1 9 10
M  V30 10 1 10 11
M  V30 11 2 11 12
M  V30 12 1 11 13
M  V30 13 2 13 14
M  V30 14 1 14 15
M  V30 15 1 15 16
M  V30 16 2 15 17
M  V30 17 1 17 18
M  V30 18 3 18 19
M  V30 19 1 17 20
M  V30 20 1 20 21
M  V30 21 1 21 22
M  V30 22 2 22 23
M  V30 23 1 23 24
M  V30 24 1 24 25
M  V30 25 2 20 26
M  V30 26 1 8 27
M  V30 27 2 27 28
M  V30 28 1 28 5
M  V30 29 1 26 13
M  V30 30 2 25 21
M  V30 31 1 1 29
M  V30 32 1 1 30
M  V30 33 1 1 31
M  V30 34 1 6 32
M  V30 35 1 7 33
M  V30 36 1 9 34
M  V30 37 1 9 35
M  V30 38 1 10 36
M  V30 39 1 14 37
M  V30 40 1 16 38
M  V30 41 1 16 39
M  V30 42 1 22 40
M  V30 43 1 23 41
M  V30 44 1 25 42
M  V30 45 1 27 43
M  V30 46 1 28 44
M  V30 END BOND
M  V30 END CTAB
M  END
>  <Dataset>  (174) 
ChEMBL_Kinases

>  <Ligand_Instance>  (174) 
nan

>  <PDB_ID>  (174) 
nan

>  <Standardized_SMILES>  (174) 
CS(=O)(=O)c1ccc(CNC(=O)c2cc(N)c(C#N)c(-c3ccsc3)n2)cc1

>  <Name>  (174) 
nan

>  <Pocket>  (174) 
nan

>  <ATP_Site>  (174) 
nan

>  <Peripheral>  (174) 
nan

>  <Num_H_Atoms_ProtBoundConf>  (174) 
nan

>  <Num_Resolved_Atoms>  (174) 
nan

>  <Num_Not_Resolved_Atoms>  (174) 
nan

$$$$
CHEMBL2401957
     RDKit          3D

  0  0  0  0  0  0  0  0  0  0999 V3000
M  V30 BEGIN CTAB
M  V30 COUNTS 52 56 0 0 0
M  V30 BEGIN ATOM
M  V30 1 C 0.649740 -2.397064 3.696154 0
M  V30 2 C 0.771043 -3.555437 2.754156 0
M  V30 3 C 1.629592 -3.181942 1.584214 0
M  V30 4 C 2.966521 -2.802738 2.040244 0
M  V30 5 O 3.835740 -3.708648 2.224609 0
M  V30 6 N 3.265974 -1.445445 2.266155 0
M  V30 7 C 4.467075 -1.074856 2.995166 0
M  V30 8 C 2.373973 -0.455323 1.768888 0
M  V30 9 C 2.716130 0.852418 2.028325 0
M  V30 10 N 1.877862 1.789637 1.569019 0
M  V30 11 C 0.745326 1.520658 0.883512 0
M  V30 12 C 0.029739 2.722942 0.506658 0
M  V30 13 C 0.395683 4.029891 0.662174 0
M  V30 14 N -0.572664 4.841315 0.190716 0
M  V30 15 N -1.579662 4.091005 -0.276961 0
M  V30 16 C -1.208234 2.808647 -0.082128 0
M  V30 17 C -2.132914 1.789429 -0.491860 0
M  V30 18 C -2.571531 1.643970 -1.790911 0
M  V30 19 C -3.467807 0.617947 -1.960962 0
M  V30 20 C -3.873565 -0.176197 -0.915937 0
M  V30 21 C -3.411243 0.001968 0.366032 0
M  V30 22 N -2.524506 1.015544 0.540333 0
M  V30 23 N 0.390199 0.253416 0.616961 0
M  V30 24 C 1.219421 -0.734197 1.067853 0
M  V30 25 N 0.946064 -2.107924 0.848069 0
M  V30 26 C 0.011580 -2.518381 -0.129109 0
M  V30 27 C -0.429518 -3.829597 -0.356610 0
M  V30 28 N -1.300647 -3.834559 -1.381163 0
M  V30 29 N -1.459242 -2.603199 -1.841864 0
M  V30 30 C -2.359295 -2.414383 -2.954845 0
M  V30 31 C -0.675297 -1.816620 -1.093176 0
M  V30 32 H 1.630005 -2.026025 4.053258 0
M  V30 33 H 0.099068 -2.698717 4.630096 0
M  V30 34 H 0.137479 -1.537318 3.206209 0
M  V30 35 H 1.290826 -4.385605 3.313636 0
M  V30 36 H -0.214771 -3.950460 2.434218 0
M  V30 37 H 1.760854 -4.068392 0.906609 0
M  V30 38 H 4.852802 -1.988687 3.531011 0
M  V30 39 H 4.245225 -0.364089 3.838129 0
M  V30 40 H 5.287757 -0.732611 2.345500 0
M  V30 41 H 3.605258 1.098130 2.568383 0
M  V30 42 H 1.329823 4.398358 1.100831 0
M  V30 43 H -2.426786 4.541029 -0.685864 0
M  V30 44 H -2.206026 2.308378 -2.560239 0
M  V30 45 H -3.856920 0.449507 -2.977279 0
M  V30 46 H -4.587898 -0.958686 -1.170633 0
M  V30 47 H -3.778868 -0.665056 1.132666 0
M  V30 48 H -0.147738 -4.739863 0.176452 0
M  V30 49 H -2.186655 -3.201405 -3.736065 0
M  V30 50 H -3.423863 -2.487493 -2.690773 0
M  V30 51 H -2.146030 -1.454464 -3.496592 0
M  V30 52 H -0.624738 -0.755351 -1.269577 0
M  V30 END ATOM
M  V30 BEGIN BOND
M  V30 1 1 1 2
M  V30 2 1 2 3
M  V30 3 1 3 4
M  V30 4 2 4 5
M  V30 5 1 4 6
M  V30 6 1 6 7
M  V30 7 1 6 8
M  V30 8 2 8 9
M  V30 9 1 9 10
M  V30 10 2 10 11
M  V30 11 1 11 12
M  V30 12 1 12 13
M  V30 13 2 13 14
M  V30 14 1 14 15
M  V30 15 1 15 16
M  V30 16 1 16 17
M  V30 17 2 17 18
M  V30 18 1 18 19
M  V30 19 2 19 20
M  V30 20 1 20 21
M  V30 21 2 21 22
M  V30 22 1 11 23
M  V30 23 2 23 24
M  V30 24 1 24 25
M  V30 25 1 25 26
M  V30 26 1 26 27
M  V30 27 2 27 28
M  V30 28 1 28 29
M  V30 29 1 29 30
M  V30 30 1 29 31
M  V30 31 1 25 3
M  V30 32 2 31 26
M  V30 33 1 24 8
M  V30 34 2 16 12
M  V30 35 1 22 17
M  V30 36 1 1 32
M  V30 37 1 1 33
M  V30 38 1 1 34
M  V30 39 1 2 35
M  V30 40 1 2 36
M  V30 41 1 3 37
M  V30 42 1 7 38
M  V30 43 1 7 39
M  V30 44 1 7 40
M  V30 45 1 9 41
M  V30 46 1 13 42
M  V30 47 1 15 43
M  V30 48 1 18 44
M  V30 49 1 19 45
M  V30 50 1 20 46
M  V30 51 1 21 47
M  V30 52 1 27 48
M  V30 53 1 30 49
M  V30 54 1 30 50
M  V30 55 1 30 51
M  V30 56 1 31 52
M  V30 END BOND
M  V30 END CTAB
M  END
>  <Dataset>  (175) 
ChEMBL_Kinases

>  <Ligand_Instance>  (175) 
nan

>  <PDB_ID>  (175) 
nan

>  <Standardized_SMILES>  (175) 
CCC1C(=O)N(C)c2cnc(-c3cn[nH]c3-c3ccccn3)nc2N1c1cnn(C)c1

>  <Name>  (175) 
nan

>  <Pocket>  (175) 
nan

>  <ATP_Site>  (175) 
nan

>  <Peripheral>  (175) 
nan

>  <Num_H_Atoms_ProtBoundConf>  (175) 
nan

>  <Num_Resolved_Atoms>  (175) 
nan

>  <Num_Not_Resolved_Atoms>  (175) 
nan

$$$$
CHEMBL2401958
     RDKit          3D

  0  0  0  0  0  0  0  0  0  0999 V3000
M  V30 BEGIN CTAB
M  V30 COUNTS 52 55 0 0 0
M  V30 BEGIN ATOM
M  V30 1 C 2.848042 -3.352970 2.361820 0
M  V30 2 N 2.528785 -1.940196 2.147199 0
M  V30 3 C 3.499741 -0.886243 2.357179 0
M  V30 4 O 4.409245 -1.241823 3.145598 0
M  V30 5 C 3.128240 0.321069 1.569938 0
M  V30 6 C 3.499957 0.019340 0.138636 0
M  V30 7 C 3.188015 1.118537 -0.812163 0
M  V30 8 F 1.847951 1.437484 -0.865068 0
M  V30 9 F 3.830108 2.296145 -0.473951 0
M  V30 10 F 3.591703 0.825747 -2.097601 0
M  V30 11 N 1.726055 0.672198 1.705578 0
M  V30 12 C 1.392481 2.032572 2.064187 0
M  V30 13 C -0.051954 2.386848 1.998983 0
M  V30 14 C -0.153601 3.848949 2.426411 0
M  V30 15 F 0.341196 3.900579 3.736466 0
M  V30 16 F 0.777013 4.527823 1.641669 0
M  V30 17 F -1.421426 4.352421 2.327534 0
M  V30 18 C 0.780322 -0.361502 1.499304 0
M  V30 19 N -0.469848 -0.041548 1.110672 0
M  V30 20 C -1.393984 -1.034517 0.921273 0
M  V30 21 N -2.748852 -0.895258 0.539144 0
M  V30 22 C -3.462224 0.007691 1.271850 0
M  V30 23 C -4.741963 0.051401 0.823299 0
M  V30 24 N -4.842541 -0.833101 -0.207818 0
M  V30 25 C -3.604675 -1.381574 -0.339144 0
M  V30 26 C -3.174534 -2.389380 -1.294845 0
M  V30 27 C -3.031819 -3.686354 -0.809634 0
M  V30 28 C -2.632623 -4.659078 -1.692504 0
M  V30 29 C -2.376438 -4.364559 -3.032771 0
M  V30 30 F -1.981246 -5.296961 -3.927155 0
M  V30 31 C -2.521250 -3.074978 -3.501181 0
M  V30 32 C -2.924009 -2.066015 -2.635271 0
M  V30 33 N -1.039866 -2.314790 1.125308 0
M  V30 34 C 0.233114 -2.616592 1.519953 0
M  V30 35 C 1.191030 -1.659911 1.722720 0
M  V30 36 H 3.871494 -3.423305 2.759207 0
M  V30 37 H 2.687362 -3.952323 1.463278 0
M  V30 38 H 2.146471 -3.654198 3.194151 0
M  V30 39 H 3.812635 1.120350 1.940927 0
M  V30 40 H 2.968349 -0.886189 -0.233329 0
M  V30 41 H 4.582087 -0.208607 0.069051 0
M  V30 42 H 1.750040 2.275951 3.103533 0
M  V30 43 H 1.940011 2.777151 1.435354 0
M  V30 44 H -0.748459 1.786774 2.572250 0
M  V30 45 H -0.392755 2.367945 0.920815 0
M  V30 46 H -3.234359 0.663435 2.094423 0
M  V30 47 H -5.644049 0.584577 1.073937 0
M  V30 48 H -3.223062 -3.929452 0.215552 0
M  V30 49 H -2.494569 -5.710188 -1.393117 0
M  V30 50 H -2.350377 -2.750996 -4.519003 0
M  V30 51 H -3.077173 -1.013249 -2.867426 0
M  V30 52 H 0.530551 -3.645672 1.688472 0
M  V30 END ATOM
M  V30 BEGIN BOND
M  V30 1 1 1 2
M  V30 2 1 2 3
M  V30 3 2 3 4
M  V30 4 1 3 5
M  V30 5 1 5 6
M  V30 6 1 6 7
M  V30 7 1 7 8
M  V30 8 1 7 9
M  V30 9 1 7 10
M  V30 10 1 5 11
M  V30 11 1 11 12
M  V30 12 1 12 13
M  V30 13 1 13 14
M  V30 14 1 14 15
M  V30 15 1 14 16
M  V30 16 1 14 17
M  V30 17 1 11 18
M  V30 18 2 18 19
M  V30 19 1 19 20
M  V30 20 1 20 21
M  V30 21 1 21 22
M  V30 22 2 22 23
M  V30 23 1 23 24
M  V30 24 2 24 25
M  V30 25 1 25 26
M  V30 26 2 26 27
M  V30 27 1 27 28
M  V30 28 2 28 29
M  V30 29 1 29 30
M  V30 30 1 29 31
M  V30 31 2 31 32
M  V30 32 2 20 33
M  V30 33 1 33 34
M  V30 34 2 34 35
M  V30 35 1 35 2
M  V30 36 1 35 18
M  V30 37 1 25 21
M  V30 38 1 32 26
M  V30 39 1 1 36
M  V30 40 1 1 37
M  V30 41 1 1 38
M  V30 42 1 5 39
M  V30 43 1 6 40
M  V30 44 1 6 41
M  V30 45 1 12 42
M  V30 46 1 12 43
M  V30 47 1 13 44
M  V30 48 1 13 45
M  V30 49 1 22 46
M  V30 50 1 23 47
M  V30 51 1 27 48
M  V30 52 1 28 49
M  V30 53 1 31 50
M  V30 54 1 32 51
M  V30 55 1 34 52
M  V30 END BOND
M  V30 END CTAB
M  END
>  <Dataset>  (176) 
ChEMBL_Kinases

>  <Ligand_Instance>  (176) 
nan

>  <PDB_ID>  (176) 
nan

>  <Standardized_SMILES>  (176) 
CN1C(=O)C(CC(F)(F)F)N(CCC(F)(F)F)c2nc(-n3ccnc3-c3ccc(F)cc3)ncc21

>  <Name>  (176) 
nan

>  <Pocket>  (176) 
nan

>  <ATP_Site>  (176) 
nan

>  <Peripheral>  (176) 
nan

>  <Num_H_Atoms_ProtBoundConf>  (176) 
nan

>  <Num_Resolved_Atoms>  (176) 
nan

>  <Num_Not_Resolved_Atoms>  (176) 
nan

$$$$
CHEMBL2401959
     RDKit          3D

  0  0  0  0  0  0  0  0  0  0999 V3000
M  V30 BEGIN CTAB
M  V30 COUNTS 55 58 0 0 0
M  V30 BEGIN ATOM
M  V30 1 C 4.062705 -1.434142 2.068295 0
M  V30 2 C 2.623183 -1.427382 1.704415 0
M  V30 3 C 2.370983 -1.250658 0.228417 0
M  V30 4 C 2.992669 -2.369342 -0.528270 0
M  V30 5 C 3.038049 0.056199 -0.145862 0
M  V30 6 O 3.998904 0.154807 -0.959180 0
M  V30 7 N 2.554446 1.266090 0.457154 0
M  V30 8 C 3.418596 2.424261 0.662417 0
M  V30 9 C 1.176937 1.295236 0.850004 0
M  V30 10 C 0.681075 2.425436 1.420487 0
M  V30 11 N -0.623472 2.363806 1.751399 0
M  V30 12 C -1.411270 1.300443 1.555805 0
M  V30 13 N -2.784991 1.363301 1.944989 0
M  V30 14 C -3.407271 2.449942 2.431235 0
M  V30 15 C -4.725335 2.132673 2.688569 0
M  V30 16 N -4.886105 0.850682 2.353448 0
M  V30 17 C -3.705734 0.375889 1.899626 0
M  V30 18 C -3.500834 -0.990000 1.443186 0
M  V30 19 C -4.301271 -1.299260 0.336294 0
M  V30 20 C -4.242130 -2.562904 -0.242295 0
M  V30 21 C -3.404037 -3.502715 0.268344 0
M  V30 22 F -3.347462 -4.729505 -0.293804 0
M  V30 23 C -2.603227 -3.208101 1.368006 0
M  V30 24 C -2.656870 -1.957286 1.946339 0
M  V30 25 N -0.887192 0.201189 0.990108 0
M  V30 26 C 0.424010 0.144471 0.611614 0
M  V30 27 N 0.971329 -1.044745 -0.002506 0
M  V30 28 C 0.014256 -1.812871 -0.754324 0
M  V30 29 C 0.304647 -1.700685 -2.224127 0
M  V30 30 C -0.682895 -2.499660 -3.078236 0
M  V30 31 F -0.365106 -2.357160 -4.411467 0
M  V30 32 F -0.654345 -3.836409 -2.699817 0
M  V30 33 F -1.974593 -2.064368 -2.890320 0
M  V30 34 H 4.585602 -0.622630 1.490767 0
M  V30 35 H 4.143051 -1.215775 3.167893 0
M  V30 36 H 4.527581 -2.394595 1.863003 0
M  V30 37 H 2.203839 -2.421119 2.039495 0
M  V30 38 H 2.106269 -0.661883 2.316913 0
M  V30 39 H 3.745122 -2.867893 0.102266 0
M  V30 40 H 2.193599 -3.148703 -0.669034 0
M  V30 41 H 3.482217 -2.073400 -1.480137 0
M  V30 42 H 3.546915 2.596827 1.753518 0
M  V30 43 H 4.367759 2.213842 0.129548 0
M  V30 44 H 2.994487 3.319077 0.168181 0
M  V30 45 H 1.306075 3.287257 1.583635 0
M  V30 46 H -2.997653 3.439833 2.614115 0
M  V30 47 H -5.483122 2.797645 3.084684 0
M  V30 48 H -5.005191 -0.613964 -0.147552 0
M  V30 49 H -4.849135 -2.822801 -1.096869 0
M  V30 50 H -1.915200 -3.931486 1.811379 0
M  V30 51 H -2.084375 -1.617175 2.800350 0
M  V30 52 H 0.145288 -2.896414 -0.495345 0
M  V30 53 H -1.029007 -1.491399 -0.589201 0
M  V30 54 H 1.339789 -1.937046 -2.517847 0
M  V30 55 H 0.153520 -0.636368 -2.572460 0
M  V30 END ATOM
M  V30 BEGIN BOND
M  V30 1 1 1 2
M  V30 2 1 2 3
M  V30 3 1 3 4
M  V30 4 1 3 5
M  V30 5 2 5 6
M  V30 6 1 5 7
M  V30 7 1 7 8
M  V30 8 1 7 9
M  V30 9 2 9 10
M  V30 10 1 10 11
M  V30 11 2 11 12
M  V30 12 1 12 13
M  V30 13 1 13 14
M  V30 14 2 14 15
M  V30 15 1 15 16
M  V30 16 2 16 17
M  V30 17 1 17 18
M  V30 18 2 18 19
M  V30 19 1 19 20
M  V30 20 2 20 21
M  V30 21 1 21 22
M  V30 22 1 21 23
M  V30 23 2 23 24
M  V30 24 1 12 25
M  V30 25 2 25 26
M  V30 26 1 26 27
M  V30 27 1 27 28
M  V30 28 1 28 29
M  V30 29 1 29 30
M  V30 30 1 30 31
M  V30 31 1 30 32
M  V30 32 1 30 33
M  V30 33 1 27 3
M  V30 34 1 26 9
M  V30 35 1 17 13
M  V30 36 1 24 18
M  V30 37 1 1 34
M  V30 38 1 1 35
M  V30 39 1 1 36
M  V30 40 1 2 37
M  V30 41 1 2 38
M  V30 42 1 4 39
M  V30 43 1 4 40
M  V30 44 1 4 41
M  V30 45 1 8 42
M  V30 46 1 8 43
M  V30 47 1 8 44
M  V30 48 1 10 45
M  V30 49 1 14 46
M  V30 50 1 15 47
M  V30 51 1 19 48
M  V30 52 1 20 49
M  V30 53 1 23 50
M  V30 54 1 24 51
M  V30 55 1 28 52
M  V30 56 1 28 53
M  V30 57 1 29 54
M  V30 58 1 29 55
M  V30 END BOND
M  V30 END CTAB
M  END
>  <Dataset>  (177) 
ChEMBL_Kinases

>  <Ligand_Instance>  (177) 
nan

>  <PDB_ID>  (177) 
nan

>  <Standardized_SMILES>  (177) 
CCC1(C)C(=O)N(C)c2cnc(-n3ccnc3-c3ccc(F)cc3)nc2N1CCC(F)(F)F

>  <Name>  (177) 
nan

>  <Pocket>  (177) 
nan

>  <ATP_Site>  (177) 
nan

>  <Peripheral>  (177) 
nan

>  <Num_H_Atoms_ProtBoundConf>  (177) 
nan

>  <Num_Resolved_Atoms>  (177) 
nan

>  <Num_Not_Resolved_Atoms>  (177) 
nan

$$$$
CHEMBL4457174
     RDKit          3D

  0  0  0  0  0  0  0  0  0  0999 V3000
M  V30 BEGIN CTAB
M  V30 COUNTS 45 48 0 0 0
M  V30 BEGIN ATOM
M  V30 1 C 0.347696 -5.129735 -1.234060 0
M  V30 2 C 0.390167 -3.653156 -1.024982 0
M  V30 3 N 0.055095 -2.795791 -1.983643 0
M  V30 4 C 0.172506 -1.523649 -1.559678 0
M  V30 5 C -0.093751 -0.289411 -2.287817 0
M  V30 6 C 0.728578 -0.155017 -3.402697 0
M  V30 7 C 0.594761 0.977322 -4.205498 0
M  V30 8 C -0.350881 1.944917 -3.880565 0
M  V30 9 F -0.492240 3.052209 -4.653454 0
M  V30 10 C -1.157081 1.780591 -2.759700 0
M  V30 11 C -2.189927 2.809293 -2.381326 0
M  V30 12 C -1.035639 0.664792 -1.955605 0
M  V30 13 C 0.602709 -1.647103 -0.274118 0
M  V30 14 C 0.898793 -0.576169 0.677204 0
M  V30 15 C 1.919619 0.325855 0.382186 0
M  V30 16 C 2.228782 1.350282 1.256698 0
M  V30 17 N 1.543944 1.486468 2.405735 0
M  V30 18 C 0.542051 0.609494 2.706155 0
M  V30 19 N -0.257131 0.649361 3.894368 0
M  V30 20 C 0.424324 -0.150134 4.859053 0
M  V30 21 O 1.515641 -0.681947 4.470821 0
M  V30 22 C 0.005626 -0.437904 6.278798 0
M  V30 23 C 0.289111 -1.888582 6.667216 0
M  V30 24 C 1.074789 -0.719191 7.255594 0
M  V30 25 C 0.208525 -0.434784 1.840873 0
M  V30 26 N 0.737110 -2.963418 0.055889 0
M  V30 27 H 0.462004 -5.407683 -2.289296 0
M  V30 28 H 1.166539 -5.628375 -0.665962 0
M  V30 29 H -0.595475 -5.558455 -0.803586 0
M  V30 30 H 1.480848 -0.860597 -3.716743 0
M  V30 31 H 1.239942 1.093468 -5.089014 0
M  V30 32 H -2.216459 3.616733 -3.116635 0
M  V30 33 H -3.172099 2.282817 -2.283145 0
M  V30 34 H -1.957934 3.228837 -1.392368 0
M  V30 35 H -1.630074 0.466130 -1.062836 0
M  V30 36 H 2.495555 0.241344 -0.545549 0
M  V30 37 H 3.030984 2.071661 1.040167 0
M  V30 38 H -1.148532 1.066006 4.257066 0
M  V30 39 H -0.927635 0.003791 6.641877 0
M  V30 40 H -0.449133 -2.411605 7.290359 0
M  V30 41 H 0.896281 -2.525865 5.994844 0
M  V30 42 H 0.835757 -0.545631 8.324735 0
M  V30 43 H 2.137495 -0.585709 6.962296 0
M  V30 44 H -0.573630 -1.139393 2.049553 0
M  V30 45 H 1.051223 -3.385071 0.976936 0
M  V30 END ATOM
M  V30 BEGIN BOND
M  V30 1 1 1 2
M  V30 2 2 2 3
M  V30 3 1 3 4
M  V30 4 1 4 5
M  V30 5 2 5 6
M  V30 6 1 6 7
M  V30 7 2 7 8
M  V30 8 1 8 9
M  V30 9 1 8 10
M  V30 10 1 10 11
M  V30 11 2 10 12
M  V30 12 2 4 13
M  V30 13 1 13 14
M  V30 14 2 14 15
M  V30 15 1 15 16
M  V30 16 2 16 17
M  V30 17 1 17 18
M  V30 18 1 18 19
M  V30 19 1 19 20
M  V30 20 2 20 21
M  V30 21 1 20 22
M  V30 22 1 22 23
M  V30 23 1 23 24
M  V30 24 2 18 25
M  V30 25 1 13 26
M  V30 26 1 26 2
M  V30 27 1 12 5
M  V30 28 1 25 14
M  V30 29 1 24 22
M  V30 30 1 1 27
M  V30 31 1 1 28
M  V30 32 1 1 29
M  V30 33 1 6 30
M  V30 34 1 7 31
M  V30 35 1 11 32
M  V30 36 1 11 33
M  V30 37 1 11 34
M  V30 38 1 12 35
M  V30 39 1 15 36
M  V30 40 1 16 37
M  V30 41 1 19 38
M  V30 42 1 22 39
M  V30 43 1 23 40
M  V30 44 1 23 41
M  V30 45 1 24 42
M  V30 46 1 24 43
M  V30 47 1 25 44
M  V30 48 1 26 45
M  V30 END BOND
M  V30 END CTAB
M  END
>  <Dataset>  (178) 
ChEMBL_Kinases

>  <Ligand_Instance>  (178) 
nan

>  <PDB_ID>  (178) 
nan

>  <Standardized_SMILES>  (178) 
Cc1nc(-c2ccc(F)c(C)c2)c(-c2ccnc(NC(=O)C3CC3)c2)[nH]1

>  <Name>  (178) 
nan

>  <Pocket>  (178) 
nan

>  <ATP_Site>  (178) 
nan

>  <Peripheral>  (178) 
nan

>  <Num_H_Atoms_ProtBoundConf>  (178) 
nan

>  <Num_Resolved_Atoms>  (178) 
nan

>  <Num_Not_Resolved_Atoms>  (178) 
nan

$$$$
CHEMBL3706683
     RDKit          3D

  0  0  0  0  0  0  0  0  0  0999 V3000
M  V30 BEGIN CTAB
M  V30 COUNTS 72 76 0 0 0
M  V30 BEGIN ATOM
M  V30 1 O -1.164045 1.701894 3.726217 0
M  V30 2 C -1.277804 1.677183 4.985393 0
M  V30 3 N -0.179331 1.070154 5.663230 0
M  V30 4 C 0.793287 0.610817 4.699439 0
M  V30 5 C 1.814105 1.293444 4.109199 0
M  V30 6 C 2.644521 0.631549 3.203680 0
M  V30 7 C 2.363461 -0.689350 2.971878 0
M  V30 8 N 3.195675 -1.390668 2.023948 0
M  V30 9 C 3.994836 -1.030826 0.908578 0
M  V30 10 N 5.217617 -0.461235 0.869300 0
M  V30 11 C 5.853876 -0.190965 -0.279173 0
M  V30 12 N 5.257532 -0.497208 -1.446913 0
M  V30 13 C 4.043051 -1.065800 -1.493783 0
M  V30 14 C 3.522042 -1.348523 -2.729091 0
M  V30 15 C 2.288605 -1.938300 -2.863606 0
M  V30 16 O 1.533889 -2.326173 -3.944833 0
M  V30 17 C 2.050521 -2.113385 -5.243935 0
M  V30 18 C 1.123158 -2.588505 -6.318342 0
M  V30 19 C 0.836520 -4.064752 -6.238223 0
M  V30 20 N 0.229758 -4.376110 -4.969964 0
M  V30 21 C -1.084080 -3.844523 -4.843879 0
M  V30 22 C -1.976196 -4.983938 -4.330258 0
M  V30 23 C -1.215289 -6.245108 -4.687151 0
M  V30 24 C 0.204977 -5.793091 -4.785354 0
M  V30 25 C 1.625729 -2.218010 -1.665899 0
M  V30 26 C 2.135760 -1.939292 -0.410014 0
M  V30 27 C 3.395325 -1.339892 -0.322674 0
M  V30 28 C 1.355239 -1.436936 3.530733 0
M  V30 29 C 0.542281 -0.742609 4.432320 0
M  V30 30 N -2.464777 2.249742 5.525760 0
M  V30 31 C -3.485911 2.853684 4.725372 0
M  V30 32 C -4.821634 2.123430 4.779281 0
M  V30 33 C -5.822138 2.814045 3.874860 0
M  V30 34 C -5.253660 4.111744 3.335455 0
M  V30 35 C -4.674631 4.973029 4.406778 0
M  V30 36 C -3.723821 4.236878 5.274452 0
M  V30 37 H -0.277941 1.070118 6.715375 0
M  V30 38 H 1.878331 2.318598 4.414648 0
M  V30 39 H 3.437149 1.206720 2.760828 0
M  V30 40 H 3.300302 -2.448498 2.103583 0
M  V30 41 H 6.836464 0.267373 -0.235271 0
M  V30 42 H 3.978797 -1.154774 -3.699015 0
M  V30 43 H 2.268024 -1.046119 -5.359917 0
M  V30 44 H 3.034387 -2.639834 -5.294545 0
M  V30 45 H 1.660868 -2.418869 -7.296464 0
M  V30 46 H 0.182249 -1.979137 -6.336803 0
M  V30 47 H 1.811097 -4.577588 -6.379391 0
M  V30 48 H 0.117831 -4.342067 -7.034414 0
M  V30 49 H -1.458474 -3.446697 -5.806428 0
M  V30 50 H -1.126446 -2.992426 -4.105168 0
M  V30 51 H -2.938319 -4.986744 -4.869307 0
M  V30 52 H -2.101897 -4.870611 -3.237876 0
M  V30 53 H -1.562801 -6.713407 -5.611211 0
M  V30 54 H -1.355699 -6.934527 -3.825738 0
M  V30 55 H 0.725353 -6.309069 -5.624174 0
M  V30 56 H 0.740114 -6.126090 -3.872043 0
M  V30 57 H 0.642576 -2.679078 -1.580147 0
M  V30 58 H 1.619638 -2.156910 0.509770 0
M  V30 59 H 1.193351 -2.482851 3.297487 0
M  V30 60 H -0.256525 -1.370140 4.862924 0
M  V30 61 H -2.502877 2.177542 6.583700 0
M  V30 62 H -3.107055 2.906608 3.689990 0
M  V30 63 H -4.649077 1.107565 4.387774 0
M  V30 64 H -5.244690 2.119166 5.797744 0
M  V30 65 H -6.759058 2.971528 4.400428 0
M  V30 66 H -6.008029 2.165049 3.001749 0
M  V30 67 H -6.097590 4.657523 2.865027 0
M  V30 68 H -4.510361 3.958931 2.524101 0
M  V30 69 H -5.470668 5.442649 5.059494 0
M  V30 70 H -4.109382 5.847223 3.967960 0
M  V30 71 H -4.161458 4.091887 6.296879 0
M  V30 72 H -2.724363 4.726427 5.326304 0
M  V30 END ATOM
M  V30 BEGIN BOND
M  V30 1 2 1 2
M  V30 2 1 2 3
M  V30 3 1 3 4
M  V30 4 2 4 5
M  V30 5 1 5 6
M  V30 6 2 6 7
M  V30 7 1 7 8
M  V30 8 1 8 9
M  V30 9 2 9 10
M  V30 10 1 10 11
M  V30 11 2 11 12
M  V30 12 1 12 13
M  V30 13 2 13 14
M  V30 14 1 14 15
M  V30 15 1 15 16
M  V30 16 1 16 17
M  V30 17 1 17 18
M  V30 18 1 18 19
M  V30 19 1 19 20
M  V30 20 1 20 21
M  V30 21 1 21 22
M  V30 22 1 22 23
M  V30 23 1 23 24
M  V30 24 2 15 25
M  V30 25 1 25 26
M  V30 26 2 26 27
M  V30 27 1 7 28
M  V30 28 2 28 29
M  V30 29 1 2 30
M  V30 30 1 30 31
M  V30 31 1 31 32
M  V30 32 1 32 33
M  V30 33 1 33 34
M  V30 34 1 34 35
M  V30 35 1 35 36
M  V30 36 1 29 4
M  V30 37 1 36 31
M  V30 38 1 27 9
M  V30 39 1 27 13
M  V30 40 1 24 20
M  V30 41 1 3 37
M  V30 42 1 5 38
M  V30 43 1 6 39
M  V30 44 1 8 40
M  V30 45 1 11 41
M  V30 46 1 14 42
M  V30 47 1 17 43
M  V30 48 1 17 44
M  V30 49 1 18 45
M  V30 50 1 18 46
M  V30 51 1 19 47
M  V30 52 1 19 48
M  V30 53 1 21 49
M  V30 54 1 21 50
M  V30 55 1 22 51
M  V30 56 1 22 52
M  V30 57 1 23 53
M  V30 58 1 23 54
M  V30 59 1 24 55
M  V30 60 1 24 56
M  V30 61 1 25 57
M  V30 62 1 26 58
M  V30 63 1 28 59
M  V30 64 1 29 60
M  V30 65 1 30 61
M  V30 66 1 31 62
M  V30 67 1 32 63
M  V30 68 1 32 64
M  V30 69 1 33 65
M  V30 70 1 33 66
M  V30 71 1 34 67
M  V30 72 1 34 68
M  V30 73 1 35 69
M  V30 74 1 35 70
M  V30 75 1 36 71
M  V30 76 1 36 72
M  V30 END BOND
M  V30 END CTAB
M  END
>  <Dataset>  (179) 
ChEMBL_Kinases

>  <Ligand_Instance>  (179) 
nan

>  <PDB_ID>  (179) 
nan

>  <Standardized_SMILES>  (179) 
O=C(Nc1ccc(Nc2ncnc3cc(OCCCN4CCCC4)ccc23)cc1)NC1CCCCC1

>  <Name>  (179) 
nan

>  <Pocket>  (179) 
nan

>  <ATP_Site>  (179) 
nan

>  <Peripheral>  (179) 
nan

>  <Num_H_Atoms_ProtBoundConf>  (179) 
nan

>  <Num_Resolved_Atoms>  (179) 
nan

>  <Num_Not_Resolved_Atoms>  (179) 
nan

$$$$
CHEMBL2401963
     RDKit          3D

  0  0  0  0  0  0  0  0  0  0999 V3000
M  V30 BEGIN CTAB
M  V30 COUNTS 56 60 0 0 0
M  V30 BEGIN ATOM
M  V30 1 C 0.875621 -2.135439 3.381826 0
M  V30 2 C 0.483718 -3.344251 2.570988 0
M  V30 3 C 1.043889 -3.297616 1.168125 0 CFG=2
M  V30 4 C 2.538523 -3.243586 1.213309 0
M  V30 5 O 3.227804 -4.291073 1.175973 0
M  V30 6 N 3.188654 -1.967920 1.300895 0
M  V30 7 C 4.563469 -1.850042 1.750022 0
M  V30 8 C 2.393943 -0.850895 0.920040 0
M  V30 9 C 3.000605 0.385399 0.997080 0
M  V30 10 N 2.271159 1.456834 0.642788 0
M  V30 11 C 0.976466 1.372281 0.217131 0
M  V30 12 N 0.344225 2.601120 -0.120701 0
M  V30 13 C 0.950099 3.699640 -0.603805 0
M  V30 14 C 0.007450 4.685967 -0.807674 0
M  V30 15 N -1.190164 4.190806 -0.446949 0
M  V30 16 C -0.954093 2.931180 -0.036932 0
M  V30 17 C -2.034092 2.071786 0.434679 0
M  V30 18 C -3.102579 1.930455 -0.460382 0
M  V30 19 C -4.222949 1.165093 -0.213394 0
M  V30 20 C -4.288942 0.501894 0.988484 0
M  V30 21 C -3.251673 0.622725 1.888831 0
M  V30 22 C -2.136027 1.391184 1.630737 0
M  V30 23 N 0.399533 0.158920 0.147717 0
M  V30 24 C 1.085781 -0.946730 0.491022 0
M  V30 25 N 0.467726 -2.211641 0.413089 0
M  V30 26 C -0.695582 -2.454388 -0.377751 0
M  V30 27 C -0.437982 -3.521749 -1.446252 0
M  V30 28 C -1.734734 -3.425034 -2.255669 0
M  V30 29 C -2.151123 -1.983844 -2.150944 0
M  V30 30 C -1.131398 -1.311346 -1.222324 0
M  V30 31 H 0.470368 -2.300055 4.409353 0
M  V30 32 H 0.443901 -1.191768 3.039219 0
M  V30 33 H 1.985641 -2.090948 3.509464 0
M  V30 34 H -0.607208 -3.372146 2.529645 0
M  V30 35 H 0.887053 -4.226925 3.096392 0
M  V30 36 H 0.779108 -4.250349 0.681007 0
M  V30 37 H 4.681398 -0.986289 2.433537 0
M  V30 38 H 5.231438 -1.734676 0.873386 0
M  V30 39 H 4.815328 -2.758222 2.346617 0
M  V30 40 H 4.013488 0.585703 1.316376 0
M  V30 41 H 2.017628 3.736797 -0.782056 0
M  V30 42 H 0.258489 5.658329 -1.191170 0
M  V30 43 H -3.100226 2.440001 -1.436566 0
M  V30 44 H -5.019784 1.088325 -0.935882 0
M  V30 45 H -5.158496 -0.096818 1.189229 0
M  V30 46 H -3.289364 0.107604 2.837153 0
M  V30 47 H -1.286223 1.534191 2.283827 0
M  V30 48 H -1.559931 -2.822558 0.192975 0
M  V30 49 H 0.350177 -3.148396 -2.113835 0
M  V30 50 H -0.288083 -4.519346 -1.036336 0
M  V30 51 H -2.463900 -4.098975 -1.718143 0
M  V30 52 H -1.631666 -3.795632 -3.277181 0
M  V30 53 H -2.150074 -1.459664 -3.128856 0
M  V30 54 H -3.168828 -1.946981 -1.710831 0
M  V30 55 H -1.718256 -0.613015 -0.615454 0
M  V30 56 H -0.355801 -0.873783 -1.858985 0
M  V30 END ATOM
M  V30 BEGIN BOND
M  V30 1 1 1 2
M  V30 2 1 2 3
M  V30 3 1 3 4
M  V30 4 2 4 5
M  V30 5 1 4 6
M  V30 6 1 6 7
M  V30 7 1 6 8
M  V30 8 2 8 9
M  V30 9 1 9 10
M  V30 10 2 10 11
M  V30 11 1 11 12
M  V30 12 1 12 13
M  V30 13 2 13 14
M  V30 14 1 14 15
M  V30 15 2 15 16
M  V30 16 1 16 17
M  V30 17 2 17 18
M  V30 18 1 18 19
M  V30 19 2 19 20
M  V30 20 1 20 21
M  V30 21 2 21 22
M  V30 22 1 11 23
M  V30 23 2 23 24
M  V30 24 1 24 25
M  V30 25 1 25 26
M  V30 26 1 26 27
M  V30 27 1 27 28
M  V30 28 1 28 29
M  V30 29 1 29 30
M  V30 30 1 25 3
M  V30 31 1 30 26
M  V30 32 1 24 8
M  V30 33 1 16 12
M  V30 34 1 22 17
M  V30 35 1 1 31
M  V30 36 1 1 32
M  V30 37 1 1 33
M  V30 38 1 2 34
M  V30 39 1 2 35
M  V30 40 1 3 36 CFG=3
M  V30 41 1 7 37
M  V30 42 1 7 38
M  V30 43 1 7 39
M  V30 44 1 9 40
M  V30 45 1 13 41
M  V30 46 1 14 42
M  V30 47 1 18 43
M  V30 48 1 19 44
M  V30 49 1 20 45
M  V30 50 1 21 46
M  V30 51 1 22 47
M  V30 52 1 26 48
M  V30 53 1 27 49
M  V30 54 1 27 50
M  V30 55 1 28 51
M  V30 56 1 28 52
M  V30 57 1 29 53
M  V30 58 1 29 54
M  V30 59 1 30 55
M  V30 60 1 30 56
M  V30 END BOND
M  V30 END CTAB
M  END
>  <Dataset>  (180) 
ChEMBL_Kinases

>  <Ligand_Instance>  (180) 
nan

>  <PDB_ID>  (180) 
nan

>  <Standardized_SMILES>  (180) 
CC[C@@H]1C(=O)N(C)c2cnc(-n3ccnc3-c3ccccc3)nc2N1C1CCCC1

>  <Name>  (180) 
nan

>  <Pocket>  (180) 
nan

>  <ATP_Site>  (180) 
nan

>  <Peripheral>  (180) 
nan

>  <Num_H_Atoms_ProtBoundConf>  (180) 
nan

>  <Num_Resolved_Atoms>  (180) 
nan

>  <Num_Not_Resolved_Atoms>  (180) 
nan

$$$$
CHEMBL4572532
     RDKit          3D

  0  0  0  0  0  0  0  0  0  0999 V3000
M  V30 BEGIN CTAB
M  V30 COUNTS 32 34 0 0 0
M  V30 BEGIN ATOM
M  V30 1 N 0.650683 -6.274815 3.476960 0
M  V30 2 C 1.028934 -5.307836 2.679696 0
M  V30 3 N 1.109011 -3.911631 3.003405 0
M  V30 4 C 1.421789 -3.066613 1.916710 0
M  V30 5 O 1.528935 -1.821218 2.060605 0
M  V30 6 C 1.617143 -3.710835 0.627873 0
M  V30 7 C 1.807408 -3.186570 -0.575923 0
M  V30 8 C 1.849439 -1.721550 -0.802878 0
M  V30 9 C 2.667790 -0.781442 -1.441127 0
M  V30 10 C 2.010250 0.406903 -1.204070 0
M  V30 11 C 0.868526 0.186053 -0.469363 0
M  V30 12 C 0.018167 1.312927 -0.108744 0
M  V30 13 C 0.285299 2.638489 -0.382064 0
M  V30 14 C -0.621014 3.599038 -0.004334 0
M  V30 15 C -1.811942 3.354539 0.644173 0
M  V30 16 C -2.054315 2.028851 0.904063 0
M  V30 17 C -3.311661 1.744933 1.581268 0
M  V30 18 O -4.099867 2.682416 1.897833 0
M  V30 19 O -4.045159 0.679852 2.062712 0
M  V30 20 C -1.186826 1.038808 0.549883 0
M  V30 21 O 0.822717 -1.093580 -0.259638 0
M  V30 22 S 1.546727 -5.472854 0.951321 0
M  V30 23 H 0.646289 -7.262900 3.082839 0
M  V30 24 H 0.941866 -3.607307 3.985910 0
M  V30 25 H 1.930527 -3.891033 -1.415537 0
M  V30 26 H 3.529069 -1.232730 -1.908107 0
M  V30 27 H 2.525467 1.277103 -1.645439 0
M  V30 28 H 1.221426 2.866602 -0.892883 0
M  V30 29 H -0.368535 4.642498 -0.240222 0
M  V30 30 H -2.459255 4.182292 0.900794 0
M  V30 31 H -4.860447 0.325598 1.610886 0
M  V30 32 H -1.510556 0.031712 0.820771 0
M  V30 END ATOM
M  V30 BEGIN BOND
M  V30 1 2 1 2 CFG=2
M  V30 2 1 2 3
M  V30 3 1 3 4
M  V30 4 2 4 5
M  V30 5 1 4 6
M  V30 6 2 6 7
M  V30 7 1 7 8
M  V30 8 2 8 9
M  V30 9 1 9 10
M  V30 10 2 10 11
M  V30 11 1 11 12
M  V30 12 2 12 13
M  V30 13 1 13 14
M  V30 14 2 14 15
M  V30 15 1 15 16
M  V30 16 1 16 17
M  V30 17 2 17 18
M  V30 18 1 17 19
M  V30 19 2 16 20
M  V30 20 1 11 21
M  V30 21 1 6 22
M  V30 22 1 22 2
M  V30 23 1 21 8
M  V30 24 1 20 12
M  V30 25 1 1 23
M  V30 26 1 3 24
M  V30 27 1 7 25
M  V30 28 1 9 26
M  V30 29 1 10 27
M  V30 30 1 13 28
M  V30 31 1 14 29
M  V30 32 1 15 30
M  V30 33 1 19 31
M  V30 34 1 20 32
M  V30 END BOND
M  V30 END CTAB
M  END
>  <Dataset>  (181) 
ChEMBL_Kinases

>  <Ligand_Instance>  (181) 
nan

>  <PDB_ID>  (181) 
nan

>  <Standardized_SMILES>  (181) 
N=C1NC(=O)/C(=C\c2ccc(-c3cccc(C(=O)O)c3)o2)S1

>  <Name>  (181) 
nan

>  <Pocket>  (181) 
nan

>  <ATP_Site>  (181) 
nan

>  <Peripheral>  (181) 
nan

>  <Num_H_Atoms_ProtBoundConf>  (181) 
nan

>  <Num_Resolved_Atoms>  (181) 
nan

>  <Num_Not_Resolved_Atoms>  (181) 
nan

$$$$
CHEMBL2376919
     RDKit          3D

  0  0  0  0  0  0  0  0  0  0999 V3000
M  V30 BEGIN CTAB
M  V30 COUNTS 63 67 0 0 0
M  V30 BEGIN ATOM
M  V30 1 O 1.705484 2.350347 3.855866 0
M  V30 2 C 1.311908 1.504767 3.028611 0
M  V30 3 N 2.029035 0.281656 2.958497 0
M  V30 4 C 3.140009 0.031170 3.788517 0
M  V30 5 C 4.322988 0.928271 3.703459 0
M  V30 6 C 5.093171 1.037314 2.467825 0
M  V30 7 N 4.624084 1.501601 1.245247 0
M  V30 8 C 3.709664 0.802389 0.438956 0
M  V30 9 C 4.099542 -0.667813 0.322214 0
M  V30 10 O 5.453850 -0.708180 0.101058 0
M  V30 11 C 5.996772 0.437567 -0.473229 0
M  V30 12 C 5.834660 1.672956 0.388721 0
M  V30 13 C 0.155161 1.835751 2.204992 0
M  V30 14 C -0.421450 3.073943 2.393836 0
M  V30 15 C -1.529946 3.495009 1.663567 0
M  V30 16 C -2.094399 2.670956 0.712335 0
M  V30 17 C -1.519761 1.437107 0.524333 0
M  V30 18 N -1.958946 0.431520 -0.417060 0
M  V30 19 N -1.446836 0.258059 -1.633536 0
M  V30 20 C -2.067914 -0.761218 -2.265457 0
M  V30 21 C -3.032763 -1.259321 -1.387425 0
M  V30 22 C -3.998198 -2.276994 -1.397332 0
M  V30 23 C -4.807535 -2.481233 -0.293895 0
M  V30 24 N -5.775063 -3.535256 -0.348653 0
M  V30 25 C -5.749750 -4.434398 -1.460313 0
M  V30 26 C -6.748996 -4.633981 -2.371437 0
M  V30 27 C -6.576292 -5.559815 -3.406278 0
M  V30 28 C -5.370286 -6.229702 -3.437190 0
M  V30 29 C -4.347690 -6.047679 -2.531847 0
M  V30 30 C -4.535927 -5.123565 -1.509463 0
M  V30 31 Cl -3.191140 -4.959739 -0.398249 0
M  V30 32 C -4.685536 -1.696777 0.830029 0
M  V30 33 C -3.739901 -0.675104 0.882525 0
M  V30 34 C -2.944629 -0.493907 -0.234252 0
M  V30 35 C -0.403908 1.006214 1.255414 0
M  V30 36 H 1.691680 -0.434104 2.253972 0
M  V30 37 H 2.745887 -0.024840 4.845217 0
M  V30 38 H 3.524908 -1.002827 3.592473 0
M  V30 39 H 5.040617 0.503108 4.495407 0
M  V30 40 H 4.085111 1.935326 4.167132 0
M  V30 41 H 6.056876 1.650911 2.673096 0
M  V30 42 H 5.602363 -0.000660 2.327494 0
M  V30 43 H 3.916191 1.178675 -0.641086 0
M  V30 44 H 2.647699 0.991156 0.532153 0
M  V30 45 H 3.506685 -1.168271 -0.482501 0
M  V30 46 H 3.870532 -1.221987 1.248306 0
M  V30 47 H 5.646774 0.594475 -1.526280 0
M  V30 48 H 7.085255 0.254723 -0.571630 0
M  V30 49 H 6.738039 1.783552 1.008661 0
M  V30 50 H 5.642451 2.523727 -0.268627 0
M  V30 51 H -0.083435 3.832615 3.110823 0
M  V30 52 H -1.996298 4.456433 1.794218 0
M  V30 53 H -2.950043 2.873921 0.080584 0
M  V30 54 H -1.921587 -1.183397 -3.252662 0
M  V30 55 H -4.032137 -2.841431 -2.315453 0
M  V30 56 H -6.466603 -3.618815 0.415184 0
M  V30 57 H -7.637585 -4.055804 -2.243317 0
M  V30 58 H -7.371162 -5.704172 -4.114089 0
M  V30 59 H -5.214039 -6.959617 -4.239559 0
M  V30 60 H -3.417771 -6.628523 -2.635328 0
M  V30 61 H -5.318766 -1.870511 1.669837 0
M  V30 62 H -3.644380 -0.061228 1.761970 0
M  V30 63 H 0.067807 0.053080 1.133914 0
M  V30 END ATOM
M  V30 BEGIN BOND
M  V30 1 2 1 2
M  V30 2 1 2 3
M  V30 3 1 3 4
M  V30 4 1 4 5
M  V30 5 1 5 6
M  V30 6 1 6 7
M  V30 7 1 7 8
M  V30 8 1 8 9
M  V30 9 1 9 10
M  V30 10 1 10 11
M  V30 11 1 11 12
M  V30 12 1 2 13
M  V30 13 2 13 14
M  V30 14 1 14 15
M  V30 15 2 15 16
M  V30 16 1 16 17
M  V30 17 1 17 18
M  V30 18 1 18 19
M  V30 19 2 19 20
M  V30 20 1 20 21
M  V30 21 2 21 22
M  V30 22 1 22 23
M  V30 23 1 23 24
M  V30 24 1 24 25
M  V30 25 2 25 26
M  V30 26 1 26 27
M  V30 27 2 27 28
M  V30 28 1 28 29
M  V30 29 2 29 30
M  V30 30 1 30 31
M  V30 31 2 23 32
M  V30 32 1 32 33
M  V30 33 2 33 34
M  V30 34 2 17 35
M  V30 35 1 12 7
M  V30 36 1 35 13
M  V30 37 1 34 18
M  V30 38 1 34 21
M  V30 39 1 30 25
M  V30 40 1 3 36
M  V30 41 1 4 37
M  V30 42 1 4 38
M  V30 43 1 5 39
M  V30 44 1 5 40
M  V30 45 1 6 41
M  V30 46 1 6 42
M  V30 47 1 8 43
M  V30 48 1 8 44
M  V30 49 1 9 45
M  V30 50 1 9 46
M  V30 51 1 11 47
M  V30 52 1 11 48
M  V30 53 1 12 49
M  V30 54 1 12 50
M  V30 55 1 14 51
M  V30 56 1 15 52
M  V30 57 1 16 53
M  V30 58 1 20 54
M  V30 59 1 22 55
M  V30 60 1 24 56
M  V30 61 1 26 57
M  V30 62 1 27 58
M  V30 63 1 28 59
M  V30 64 1 29 60
M  V30 65 1 32 61
M  V30 66 1 33 62
M  V30 67 1 35 63
M  V30 END BOND
M  V30 END CTAB
M  END
>  <Dataset>  (182) 
ChEMBL_Kinases

>  <Ligand_Instance>  (182) 
nan

>  <PDB_ID>  (182) 
nan

>  <Standardized_SMILES>  (182) 
O=C(NCCCN1CCOCC1)c1cccc(-n2ncc3cc(Nc4ccccc4Cl)ccc32)c1

>  <Name>  (182) 
nan

>  <Pocket>  (182) 
nan

>  <ATP_Site>  (182) 
nan

>  <Peripheral>  (182) 
nan

>  <Num_H_Atoms_ProtBoundConf>  (182) 
nan

>  <Num_Resolved_Atoms>  (182) 
nan

>  <Num_Not_Resolved_Atoms>  (182) 
nan

$$$$
CHEMBL2376920
     RDKit          3D

  0  0  0  0  0  0  0  0  0  0999 V3000
M  V30 BEGIN CTAB
M  V30 COUNTS 54 58 0 0 0
M  V30 BEGIN ATOM
M  V30 1 C 8.090217 -1.041180 1.438198 0
M  V30 2 C 6.983207 -0.637691 2.370791 0
M  V30 3 C 6.844408 -1.226473 3.621141 0
M  V30 4 C 5.837101 -0.870568 4.489635 0
M  V30 5 C 4.925444 0.101631 4.123233 0
M  V30 6 C 5.055567 0.693155 2.880942 0
M  V30 7 N 4.201650 1.719307 2.332979 0
M  V30 8 C 3.146472 1.048104 1.631452 0
M  V30 9 O 3.278459 -0.214424 1.702245 0
M  V30 10 C 2.054097 1.752355 0.922812 0
M  V30 11 C 1.884514 3.118864 0.828760 0
M  V30 12 C 0.800367 3.604636 0.122725 0
M  V30 13 C -0.107353 2.756510 -0.484349 0
M  V30 14 C 0.066463 1.385483 -0.387576 0
M  V30 15 N -0.864444 0.497774 -1.010408 0
M  V30 16 N -0.743640 0.148537 -2.271570 0
M  V30 17 C -1.726885 -0.691802 -2.648303 0
M  V30 18 C -2.528640 -0.879960 -1.519226 0
M  V30 19 C -3.668930 -1.620206 -1.279095 0
M  V30 20 C -4.190197 -1.555678 -0.005012 0
M  V30 21 N -5.360159 -2.296721 0.297436 0
M  V30 22 C -6.120774 -3.152154 -0.521278 0
M  V30 23 C -7.452196 -2.933350 -0.806552 0
M  V30 24 C -8.126813 -3.838585 -1.629420 0
M  V30 25 C -7.466039 -4.941225 -2.151444 0
M  V30 26 C -6.119864 -5.169834 -1.867915 0
M  V30 27 C -5.464462 -4.251675 -1.042625 0
M  V30 28 F -4.162648 -4.591556 -0.846663 0
M  V30 29 C -3.655108 -0.812833 1.024996 0
M  V30 30 C -2.500507 -0.070981 0.759603 0
M  V30 31 C -1.955347 -0.120275 -0.520228 0
M  V30 32 C 1.146828 0.907553 0.316076 0
M  V30 33 C 6.070484 0.340267 1.995774 0
M  V30 34 H 8.678476 -0.169903 1.090259 0
M  V30 35 H 8.747414 -1.736384 1.969060 0
M  V30 36 H 7.674933 -1.530846 0.528585 0
M  V30 37 H 7.539751 -1.993030 3.944999 0
M  V30 38 H 5.702457 -1.312531 5.473554 0
M  V30 39 H 4.089895 0.469559 4.714735 0
M  V30 40 H 4.185359 2.782652 2.335661 0
M  V30 41 H 2.639321 3.712720 1.332150 0
M  V30 42 H 0.722851 4.684262 0.085517 0
M  V30 43 H -0.938949 3.186897 -1.025182 0
M  V30 44 H -1.921745 -1.165534 -3.610570 0
M  V30 45 H -4.083382 -2.198875 -2.088232 0
M  V30 46 H -5.833649 -2.300535 1.224332 0
M  V30 47 H -7.948274 -2.067205 -0.389048 0
M  V30 48 H -9.178785 -3.690416 -1.871315 0
M  V30 49 H -8.008604 -5.634860 -2.790287 0
M  V30 50 H -5.664171 -6.045086 -2.304578 0
M  V30 51 H -4.083171 -0.779320 2.014918 0
M  V30 52 H -2.050968 0.520976 1.532140 0
M  V30 53 H 1.228331 -0.176537 0.355851 0
M  V30 54 H 6.222598 0.763541 1.019012 0
M  V30 END ATOM
M  V30 BEGIN BOND
M  V30 1 1 1 2
M  V30 2 2 2 3
M  V30 3 1 3 4
M  V30 4 2 4 5
M  V30 5 1 5 6
M  V30 6 1 6 7
M  V30 7 1 7 8
M  V30 8 2 8 9
M  V30 9 1 8 10
M  V30 10 2 10 11
M  V30 11 1 11 12
M  V30 12 2 12 13
M  V30 13 1 13 14
M  V30 14 1 14 15
M  V30 15 1 15 16
M  V30 16 2 16 17
M  V30 17 1 17 18
M  V30 18 2 18 19
M  V30 19 1 19 20
M  V30 20 1 20 21
M  V30 21 1 21 22
M  V30 22 2 22 23
M  V30 23 1 23 24
M  V30 24 2 24 25
M  V30 25 1 25 26
M  V30 26 2 26 27
M  V30 27 1 27 28
M  V30 28 2 20 29
M  V30 29 1 29 30
M  V30 30 2 30 31
M  V30 31 2 14 32
M  V30 32 2 6 33
M  V30 33 1 33 2
M  V30 34 1 32 10
M  V30 35 1 31 15
M  V30 36 1 31 18
M  V30 37 1 27 22
M  V30 38 1 1 34
M  V30 39 1 1 35
M  V30 40 1 1 36
M  V30 41 1 3 37
M  V30 42 1 4 38
M  V30 43 1 5 39
M  V30 44 1 7 40
M  V30 45 1 11 41
M  V30 46 1 12 42
M  V30 47 1 13 43
M  V30 48 1 17 44
M  V30 49 1 19 45
M  V30 50 1 21 46
M  V30 51 1 23 47
M  V30 52 1 24 48
M  V30 53 1 25 49
M  V30 54 1 26 50
M  V30 55 1 29 51
M  V30 56 1 30 52
M  V30 57 1 32 53
M  V30 58 1 33 54
M  V30 END BOND
M  V30 END CTAB
M  END
>  <Dataset>  (183) 
ChEMBL_Kinases

>  <Ligand_Instance>  (183) 
nan

>  <PDB_ID>  (183) 
nan

>  <Standardized_SMILES>  (183) 
Cc1cccc(NC(=O)c2cccc(-n3ncc4cc(Nc5ccccc5F)ccc43)c2)c1

>  <Name>  (183) 
nan

>  <Pocket>  (183) 
nan

>  <ATP_Site>  (183) 
nan

>  <Peripheral>  (183) 
nan

>  <Num_H_Atoms_ProtBoundConf>  (183) 
nan

>  <Num_Resolved_Atoms>  (183) 
nan

>  <Num_Not_Resolved_Atoms>  (183) 
nan

$$$$
CHEMBL2376922
     RDKit          3D

  0  0  0  0  0  0  0  0  0  0999 V3000
M  V30 BEGIN CTAB
M  V30 COUNTS 48 51 0 0 0
M  V30 BEGIN ATOM
M  V30 1 O 5.287565 -1.361243 -0.873628 0
M  V30 2 C 4.230845 -1.164091 -0.263291 0
M  V30 3 N 3.683752 -2.212401 0.514202 0
M  V30 4 C 4.152822 -3.555911 0.752265 0
M  V30 5 C 5.505629 -3.586028 1.427666 0
M  V30 6 O 6.498402 -2.980503 0.712484 0
M  V30 7 C 3.640831 0.159600 -0.409384 0
M  V30 8 C 4.292643 1.079459 -1.203855 0
M  V30 9 C 3.792904 2.370839 -1.395864 0
M  V30 10 C 2.619948 2.774408 -0.792293 0
M  V30 11 C 1.960728 1.862285 0.003909 0
M  V30 12 N 0.727583 2.213611 0.667728 0
M  V30 13 N 0.572605 3.303922 1.403150 0
M  V30 14 C -0.681370 3.361363 1.891333 0
M  V30 15 C -1.289931 2.221128 1.400260 0
M  V30 16 C -2.566400 1.735707 1.558659 0
M  V30 17 C -3.047361 0.547343 0.991929 0
M  V30 18 N -4.370699 0.108612 1.174440 0
M  V30 19 C -4.980430 -1.136177 1.308140 0
M  V30 20 C -4.369281 -2.367122 1.338930 0
M  V30 21 C -4.989148 -3.591528 1.457484 0
M  V30 22 C -6.363822 -3.594326 1.556645 0
M  V30 23 C -7.033738 -2.390298 1.532217 0
M  V30 24 C -6.344463 -1.206212 1.410867 0
M  V30 25 Cl -7.334080 0.263335 1.393487 0
M  V30 26 C -2.089432 -0.101444 0.240901 0
M  V30 27 C -0.797176 0.338361 0.048754 0
M  V30 28 C -0.402508 1.500815 0.631178 0
M  V30 29 C 2.478336 0.599065 0.172960 0
M  V30 30 H 2.775007 -1.897750 0.975876 0
M  V30 31 H 3.454287 -4.042528 1.458621 0
M  V30 32 H 4.185523 -4.102139 -0.221709 0
M  V30 33 H 5.796415 -4.636063 1.693077 0
M  V30 34 H 5.461543 -3.064616 2.423678 0
M  V30 35 H 7.199132 -2.554035 1.242567 0
M  V30 36 H 5.213118 0.869730 -1.720428 0
M  V30 37 H 4.314710 3.085207 -2.023039 0
M  V30 38 H 2.165086 3.750449 -0.887063 0
M  V30 39 H -1.156791 4.103657 2.525459 0
M  V30 40 H -3.255524 2.317078 2.169636 0
M  V30 41 H -5.004205 0.963553 1.206663 0
M  V30 42 H -3.296643 -2.419389 1.277154 0
M  V30 43 H -4.442798 -4.519322 1.474150 0
M  V30 44 H -6.889197 -4.528598 1.650868 0
M  V30 45 H -8.117001 -2.409037 1.611551 0
M  V30 46 H -2.308437 -1.008901 -0.263242 0
M  V30 47 H -0.070201 -0.195830 -0.546723 0
M  V30 48 H 1.935248 -0.071251 0.796356 0
M  V30 END ATOM
M  V30 BEGIN BOND
M  V30 1 2 1 2
M  V30 2 1 2 3
M  V30 3 1 3 4
M  V30 4 1 4 5
M  V30 5 1 5 6
M  V30 6 1 2 7
M  V30 7 2 7 8
M  V30 8 1 8 9
M  V30 9 2 9 10
M  V30 10 1 10 11
M  V30 11 1 11 12
M  V30 12 1 12 13
M  V30 13 2 13 14
M  V30 14 1 14 15
M  V30 15 2 15 16
M  V30 16 1 16 17
M  V30 17 1 17 18
M  V30 18 1 18 19
M  V30 19 2 19 20
M  V30 20 1 20 21
M  V30 21 2 21 22
M  V30 22 1 22 23
M  V30 23 2 23 24
M  V30 24 1 24 25
M  V30 25 2 17 26
M  V30 26 1 26 27
M  V30 27 2 27 28
M  V30 28 2 11 29
M  V30 29 1 29 7
M  V30 30 1 28 12
M  V30 31 1 28 15
M  V30 32 1 24 19
M  V30 33 1 3 30
M  V30 34 1 4 31
M  V30 35 1 4 32
M  V30 36 1 5 33
M  V30 37 1 5 34
M  V30 38 1 6 35
M  V30 39 1 8 36
M  V30 40 1 9 37
M  V30 41 1 10 38
M  V30 42 1 14 39
M  V30 43 1 16 40
M  V30 44 1 18 41
M  V30 45 1 20 42
M  V30 46 1 21 43
M  V30 47 1 22 44
M  V30 48 1 23 45
M  V30 49 1 26 46
M  V30 50 1 27 47
M  V30 51 1 29 48
M  V30 END BOND
M  V30 END CTAB
M  END
>  <Dataset>  (184) 
ChEMBL_Kinases

>  <Ligand_Instance>  (184) 
nan

>  <PDB_ID>  (184) 
nan

>  <Standardized_SMILES>  (184) 
O=C(NCCO)c1cccc(-n2ncc3cc(Nc4ccccc4Cl)ccc32)c1

>  <Name>  (184) 
nan

>  <Pocket>  (184) 
nan

>  <ATP_Site>  (184) 
nan

>  <Peripheral>  (184) 
nan

>  <Num_H_Atoms_ProtBoundConf>  (184) 
nan

>  <Num_Resolved_Atoms>  (184) 
nan

>  <Num_Not_Resolved_Atoms>  (184) 
nan

$$$$
CHEMBL2376923
     RDKit          3D

  0  0  0  0  0  0  0  0  0  0999 V3000
M  V30 BEGIN CTAB
M  V30 COUNTS 59 63 0 0 0
M  V30 BEGIN ATOM
M  V30 1 O 1.549046 1.866773 4.573773 0
M  V30 2 C 1.114163 1.650350 3.394262 0
M  V30 3 N 2.126573 1.196224 2.468033 0
M  V30 4 C 3.335216 1.135893 3.217425 0
M  V30 5 C 4.497282 0.651245 2.394836 0
M  V30 6 N 4.445475 -0.649677 1.892503 0
M  V30 7 C 5.595145 -0.987595 1.067995 0
M  V30 8 C 5.248657 -0.533550 -0.335930 0
M  V30 9 O 4.183811 -1.279622 -0.820968 0
M  V30 10 C 3.044845 -0.904336 -0.088212 0
M  V30 11 C 3.276383 -1.231029 1.384031 0
M  V30 12 C -0.315321 1.885536 3.147266 0
M  V30 13 C -1.027438 2.327365 4.238564 0
M  V30 14 C -2.396294 2.559275 4.041564 0
M  V30 15 C -3.001936 2.356572 2.818993 0
M  V30 16 C -2.254013 1.912591 1.747205 0
M  V30 17 N -2.894207 1.700939 0.475681 0
M  V30 18 N -3.560896 2.542818 -0.300076 0
M  V30 19 C -3.985240 1.881108 -1.409224 0
M  V30 20 C -3.527323 0.569295 -1.253379 0
M  V30 21 C -3.670752 -0.522128 -2.073413 0
M  V30 22 C -3.159006 -1.760900 -1.781977 0
M  V30 23 N -3.328373 -2.863394 -2.655896 0
M  V30 24 C -2.881776 -4.197705 -2.488554 0
M  V30 25 C -3.145176 -5.133693 -3.464828 0
M  V30 26 C -2.749213 -6.445950 -3.379852 0
M  V30 27 C -2.051161 -6.880170 -2.274620 0
M  V30 28 C -1.785743 -5.948409 -1.296687 0
M  V30 29 N -2.203892 -4.686427 -1.449345 0
M  V30 30 C -2.484764 -1.804392 -0.582628 0
M  V30 31 C -2.304572 -0.750152 0.285127 0
M  V30 32 C -2.842207 0.471114 -0.062244 0
M  V30 33 C -0.885585 1.672241 1.912240 0
M  V30 34 H 1.614598 1.074003 1.551238 0
M  V30 35 H 3.551618 2.145959 3.650165 0
M  V30 36 H 3.243025 0.435448 4.102171 0
M  V30 37 H 5.444819 0.778587 3.013983 0
M  V30 38 H 4.686077 1.363401 1.536465 0
M  V30 39 H 6.444373 -0.372001 1.419266 0
M  V30 40 H 5.841667 -2.052851 1.109203 0
M  V30 41 H 4.954218 0.522988 -0.293810 0
M  V30 42 H 6.089906 -0.704066 -1.040376 0
M  V30 43 H 2.874978 0.164152 -0.242467 0
M  V30 44 H 2.210771 -1.541904 -0.429211 0
M  V30 45 H 2.360546 -1.070582 1.935240 0
M  V30 46 H 3.470404 -2.363284 1.362011 0
M  V30 47 H -0.650974 2.516101 5.231800 0
M  V30 48 H -2.993268 2.906449 4.870941 0
M  V30 49 H -4.061076 2.553440 2.730589 0
M  V30 50 H -4.556747 2.285870 -2.236908 0
M  V30 51 H -4.226939 -0.386564 -3.011563 0
M  V30 52 H -3.854126 -2.651165 -3.537503 0
M  V30 53 H -3.686889 -4.880262 -4.363865 0
M  V30 54 H -2.962370 -7.165307 -4.150377 0
M  V30 55 H -1.727492 -7.906786 -2.181571 0
M  V30 56 H -1.240744 -6.240629 -0.409720 0
M  V30 57 H -2.033351 -2.719628 -0.235652 0
M  V30 58 H -1.765765 -0.834296 1.217983 0
M  V30 59 H -0.320098 1.327779 1.069847 0
M  V30 END ATOM
M  V30 BEGIN BOND
M  V30 1 2 1 2
M  V30 2 1 2 3
M  V30 3 1 3 4
M  V30 4 1 4 5
M  V30 5 1 5 6
M  V30 6 1 6 7
M  V30 7 1 7 8
M  V30 8 1 8 9
M  V30 9 1 9 10
M  V30 10 1 10 11
M  V30 11 1 2 12
M  V30 12 2 12 13
M  V30 13 1 13 14
M  V30 14 2 14 15
M  V30 15 1 15 16
M  V30 16 1 16 17
M  V30 17 1 17 18
M  V30 18 2 18 19
M  V30 19 1 19 20
M  V30 20 2 20 21
M  V30 21 1 21 22
M  V30 22 1 22 23
M  V30 23 1 23 24
M  V30 24 2 24 25
M  V30 25 1 25 26
M  V30 26 2 26 27
M  V30 27 1 27 28
M  V30 28 2 28 29
M  V30 29 2 22 30
M  V30 30 1 30 31
M  V30 31 2 31 32
M  V30 32 2 16 33
M  V30 33 1 11 6
M  V30 34 1 33 12
M  V30 35 1 32 17
M  V30 36 1 32 20
M  V30 37 1 29 24
M  V30 38 1 3 34
M  V30 39 1 4 35
M  V30 40 1 4 36
M  V30 41 1 5 37
M  V30 42 1 5 38
M  V30 43 1 7 39
M  V30 44 1 7 40
M  V30 45 1 8 41
M  V30 46 1 8 42
M  V30 47 1 10 43
M  V30 48 1 10 44
M  V30 49 1 11 45
M  V30 50 1 11 46
M  V30 51 1 13 47
M  V30 52 1 14 48
M  V30 53 1 15 49
M  V30 54 1 19 50
M  V30 55 1 21 51
M  V30 56 1 23 52
M  V30 57 1 25 53
M  V30 58 1 26 54
M  V30 59 1 27 55
M  V30 60 1 28 56
M  V30 61 1 30 57
M  V30 62 1 31 58
M  V30 63 1 33 59
M  V30 END BOND
M  V30 END CTAB
M  END
>  <Dataset>  (185) 
ChEMBL_Kinases

>  <Ligand_Instance>  (185) 
nan

>  <PDB_ID>  (185) 
nan

>  <Standardized_SMILES>  (185) 
O=C(NCCN1CCOCC1)c1cccc(-n2ncc3cc(Nc4ccccn4)ccc32)c1

>  <Name>  (185) 
nan

>  <Pocket>  (185) 
nan

>  <ATP_Site>  (185) 
nan

>  <Peripheral>  (185) 
nan

>  <Num_H_Atoms_ProtBoundConf>  (185) 
nan

>  <Num_Resolved_Atoms>  (185) 
nan

>  <Num_Not_Resolved_Atoms>  (185) 
nan

$$$$
CHEMBL2376924
     RDKit          3D

  0  0  0  0  0  0  0  0  0  0999 V3000
M  V30 BEGIN CTAB
M  V30 COUNTS 41 44 0 0 0
M  V30 BEGIN ATOM
M  V30 1 N 4.857987 -6.202433 0.497435 0
M  V30 2 C 4.385695 -4.969054 -0.001806 0
M  V30 3 O 5.297117 -4.189535 -0.408436 0
M  V30 4 C 2.961265 -4.660214 -0.028465 0
M  V30 5 C 1.957576 -5.524657 0.421903 0
M  V30 6 C 0.646954 -5.127593 0.348424 0
M  V30 7 C 0.237329 -3.905989 -0.150391 0
M  V30 8 C 1.229893 -3.030577 -0.604677 0
M  V30 9 N 0.942954 -1.732233 -1.145998 0
M  V30 10 N 1.151030 -1.345699 -2.395063 0
M  V30 11 C 0.769697 -0.061344 -2.569240 0
M  V30 12 C 0.283212 0.404267 -1.341576 0
M  V30 13 C -0.229130 1.628028 -0.955283 0
M  V30 14 C -0.616959 1.720950 0.367369 0
M  V30 15 N -1.147908 2.973649 0.786799 0
M  V30 16 C -1.640382 3.436768 2.039437 0
M  V30 17 C -1.094753 4.504898 2.721417 0
M  V30 18 C -1.593394 4.941548 3.947458 0
M  V30 19 C -2.664255 4.237322 4.431203 0
M  V30 20 C -3.248658 3.154625 3.781050 0
M  V30 21 C -2.721357 2.750383 2.559810 0
M  V30 22 F -3.355123 1.686554 1.999170 0
M  V30 23 C -0.528888 0.703882 1.298163 0
M  V30 24 C -0.002130 -0.478244 0.806957 0
M  V30 25 C 0.415709 -0.679910 -0.492505 0
M  V30 26 C 2.527146 -3.447796 -0.521453 0
M  V30 27 H 5.669257 -6.213564 1.184306 0
M  V30 28 H 4.523888 -7.171634 0.293431 0
M  V30 29 H 2.276712 -6.484866 0.814201 0
M  V30 30 H -0.127407 -5.815577 0.705023 0
M  V30 31 H -0.791285 -3.589118 -0.210331 0
M  V30 32 H 0.824259 0.511911 -3.480112 0
M  V30 33 H -0.312705 2.436312 -1.644646 0
M  V30 34 H -1.256050 3.793514 0.174295 0
M  V30 35 H -0.249470 5.030897 2.300466 0
M  V30 36 H -1.164559 5.775465 4.476149 0
M  V30 37 H -3.123204 4.511069 5.391921 0
M  V30 38 H -4.108863 2.641929 4.239005 0
M  V30 39 H -0.829796 0.784563 2.313811 0
M  V30 40 H 0.100129 -1.331303 1.482399 0
M  V30 41 H 3.301303 -2.763244 -0.876536 0
M  V30 END ATOM
M  V30 BEGIN BOND
M  V30 1 1 1 2
M  V30 2 2 2 3
M  V30 3 1 2 4
M  V30 4 2 4 5
M  V30 5 1 5 6
M  V30 6 2 6 7
M  V30 7 1 7 8
M  V30 8 1 8 9
M  V30 9 1 9 10
M  V30 10 2 10 11
M  V30 11 1 11 12
M  V30 12 2 12 13
M  V30 13 1 13 14
M  V30 14 1 14 15
M  V30 15 1 15 16
M  V30 16 2 16 17
M  V30 17 1 17 18
M  V30 18 2 18 19
M  V30 19 1 19 20
M  V30 20 2 20 21
M  V30 21 1 21 22
M  V30 22 2 14 23
M  V30 23 1 23 24
M  V30 24 2 24 25
M  V30 25 2 8 26
M  V30 26 1 26 4
M  V30 27 1 25 9
M  V30 28 1 25 12
M  V30 29 1 21 16
M  V30 30 1 1 27
M  V30 31 1 1 28
M  V30 32 1 5 29
M  V30 33 1 6 30
M  V30 34 1 7 31
M  V30 35 1 11 32
M  V30 36 1 13 33
M  V30 37 1 15 34
M  V30 38 1 17 35
M  V30 39 1 18 36
M  V30 40 1 19 37
M  V30 41 1 20 38
M  V30 42 1 23 39
M  V30 43 1 24 40
M  V30 44 1 26 41
M  V30 END BOND
M  V30 END CTAB
M  END
>  <Dataset>  (186) 
ChEMBL_Kinases

>  <Ligand_Instance>  (186) 
nan

>  <PDB_ID>  (186) 
nan

>  <Standardized_SMILES>  (186) 
NC(=O)c1cccc(-n2ncc3cc(Nc4ccccc4F)ccc32)c1

>  <Name>  (186) 
nan

>  <Pocket>  (186) 
nan

>  <ATP_Site>  (186) 
nan

>  <Peripheral>  (186) 
nan

>  <Num_H_Atoms_ProtBoundConf>  (186) 
nan

>  <Num_Resolved_Atoms>  (186) 
nan

>  <Num_Not_Resolved_Atoms>  (186) 
nan

$$$$
CHEMBL2376925
     RDKit          3D

  0  0  0  0  0  0  0  0  0  0999 V3000
M  V30 BEGIN CTAB
M  V30 COUNTS 64 68 0 0 0
M  V30 BEGIN ATOM
M  V30 1 C 2.974233 -1.574608 3.772487 0
M  V30 2 N 3.859243 -0.725338 2.994295 0
M  V30 3 C 4.914628 -1.508594 2.404497 0
M  V30 4 C 5.310411 -0.966300 1.060571 0
M  V30 5 N 4.189802 -1.031943 0.118644 0
M  V30 6 C 4.459044 -0.252761 -1.006884 0
M  V30 7 C 3.506313 -0.138945 -2.111513 0
M  V30 8 N 2.219220 0.411108 -1.870881 0
M  V30 9 C 2.078470 1.762863 -1.381972 0
M  V30 10 O 3.119046 2.399993 -1.189684 0
M  V30 11 C 0.784737 2.385481 -1.114459 0
M  V30 12 C 0.833576 3.684067 -0.658464 0
M  V30 13 C -0.335162 4.392820 -0.364374 0
M  V30 14 C -1.582645 3.804548 -0.524573 0
M  V30 15 C -1.581460 2.492643 -0.987131 0
M  V30 16 N -2.877860 1.919893 -1.139324 0
M  V30 17 N -3.872482 2.535035 -1.794046 0
M  V30 18 C -4.974143 1.763045 -1.777169 0
M  V30 19 C -4.657728 0.599524 -1.074804 0
M  V30 20 C -5.332146 -0.555432 -0.716018 0
M  V30 21 C -4.681190 -1.542948 0.011194 0
M  V30 22 N -5.341719 -2.730326 0.391630 0
M  V30 23 C -4.690734 -3.760886 1.135832 0
M  V30 24 C -4.078048 -4.709301 0.323892 0
M  V30 25 Cl -4.086608 -4.671088 -1.417741 0
M  V30 26 C -3.400303 -5.779238 0.887414 0
M  V30 27 C -3.328833 -5.911065 2.270539 0
M  V30 28 C -3.948767 -4.951179 3.074435 0
M  V30 29 C -4.622575 -3.887426 2.521864 0
M  V30 30 Cl -5.434398 -2.627661 3.406289 0
M  V30 31 C -3.352613 -1.372366 0.379151 0
M  V30 32 C -2.665106 -0.224697 0.028541 0
M  V30 33 C -3.341866 0.737965 -0.694849 0
M  V30 34 C -0.426795 1.798717 -1.275488 0
M  V30 35 C 2.937254 -1.019325 0.753072 0
M  V30 36 C 3.066295 -0.076262 1.963608 0
M  V30 37 H 3.487921 -2.489958 4.152075 0
M  V30 38 H 2.104984 -1.952197 3.202839 0
M  V30 39 H 2.584100 -0.964813 4.608274 0
M  V30 40 H 5.847104 -1.460215 3.036079 0
M  V30 41 H 4.672424 -2.590101 2.310715 0
M  V30 42 H 5.651802 0.087311 1.196356 0
M  V30 43 H 6.153090 -1.552071 0.651044 0
M  V30 44 H 4.764486 0.808906 -0.738693 0
M  V30 45 H 5.428212 -0.646188 -1.454057 0
M  V30 46 H 3.987300 0.536685 -2.883897 0
M  V30 47 H 3.344698 -1.079211 -2.694796 0
M  V30 48 H 1.320323 -0.105335 -2.025318 0
M  V30 49 H 1.754135 4.238883 -0.497690 0
M  V30 50 H -0.284507 5.420139 -0.003920 0
M  V30 51 H -2.455769 4.373521 -0.290836 0
M  V30 52 H -5.961922 1.927863 -2.199597 0
M  V30 53 H -6.377804 -0.663583 -1.018895 0
M  V30 54 H -6.340238 -2.891127 0.135675 0
M  V30 55 H -2.905830 -6.544834 0.293272 0
M  V30 56 H -2.815115 -6.723650 2.792740 0
M  V30 57 H -3.930571 -4.995283 4.160947 0
M  V30 58 H -2.817358 -2.112334 0.940457 0
M  V30 59 H -1.639710 -0.115477 0.324193 0
M  V30 60 H -0.464641 0.793563 -1.628347 0
M  V30 61 H 2.070246 -0.641753 0.199938 0
M  V30 62 H 2.644169 -1.983607 1.227221 0
M  V30 63 H 3.652279 0.802197 1.606912 0
M  V30 64 H 2.097568 0.267276 2.332443 0
M  V30 END ATOM
M  V30 BEGIN BOND
M  V30 1 1 1 2
M  V30 2 1 2 3
M  V30 3 1 3 4
M  V30 4 1 4 5
M  V30 5 1 5 6
M  V30 6 1 6 7
M  V30 7 1 7 8
M  V30 8 1 8 9
M  V30 9 2 9 10
M  V30 10 1 9 11
M  V30 11 2 11 12
M  V30 12 1 12 13
M  V30 13 2 13 14
M  V30 14 1 14 15
M  V30 15 1 15 16
M  V30 16 1 16 17
M  V30 17 2 17 18
M  V30 18 1 18 19
M  V30 19 2 19 20
M  V30 20 1 20 21
M  V30 21 1 21 22
M  V30 22 1 22 23
M  V30 23 2 23 24
M  V30 24 1 24 25
M  V30 25 1 24 26
M  V30 26 2 26 27
M  V30 27 1 27 28
M  V30 28 2 28 29
M  V30 29 1 29 30
M  V30 30 2 21 31
M  V30 31 1 31 32
M  V30 32 2 32 33
M  V30 33 2 15 34
M  V30 34 1 5 35
M  V30 35 1 35 36
M  V30 36 1 36 2
M  V30 37 1 34 11
M  V30 38 1 33 16
M  V30 39 1 33 19
M  V30 40 1 29 23
M  V30 41 1 1 37
M  V30 42 1 1 38
M  V30 43 1 1 39
M  V30 44 1 3 40
M  V30 45 1 3 41
M  V30 46 1 4 42
M  V30 47 1 4 43
M  V30 48 1 6 44
M  V30 49 1 6 45
M  V30 50 1 7 46
M  V30 51 1 7 47
M  V30 52 1 8 48
M  V30 53 1 12 49
M  V30 54 1 13 50
M  V30 55 1 14 51
M  V30 56 1 18 52
M  V30 57 1 20 53
M  V30 58 1 22 54
M  V30 59 1 26 55
M  V30 60 1 27 56
M  V30 61 1 28 57
M  V30 62 1 31 58
M  V30 63 1 32 59
M  V30 64 1 34 60
M  V30 65 1 35 61
M  V30 66 1 35 62
M  V30 67 1 36 63
M  V30 68 1 36 64
M  V30 END BOND
M  V30 END CTAB
M  END
>  <Dataset>  (187) 
ChEMBL_Kinases

>  <Ligand_Instance>  (187) 
nan

>  <PDB_ID>  (187) 
nan

>  <Standardized_SMILES>  (187) 
CN1CCN(CCNC(=O)c2cccc(-n3ncc4cc(Nc5c(Cl)cccc5Cl)ccc43)c2)CC1

>  <Name>  (187) 
nan

>  <Pocket>  (187) 
nan

>  <ATP_Site>  (187) 
nan

>  <Peripheral>  (187) 
nan

>  <Num_H_Atoms_ProtBoundConf>  (187) 
nan

>  <Num_Resolved_Atoms>  (187) 
nan

>  <Num_Not_Resolved_Atoms>  (187) 
nan

$$$$
CHEMBL2376926
     RDKit          3D

  0  0  0  0  0  0  0  0  0  0999 V3000
M  V30 BEGIN CTAB
M  V30 COUNTS 74 79 0 0 0
M  V30 BEGIN ATOM
M  V30 1 C 2.436521 1.237310 7.693529 0
M  V30 2 C 2.127350 2.498806 6.974225 0
M  V30 3 C 1.103490 3.231509 7.562958 0
M  V30 4 C 0.725987 4.425931 6.984360 0
M  V30 5 C 1.349317 4.884860 5.846691 0
M  V30 6 C 2.369504 4.168672 5.247346 0
M  V30 7 N 3.106882 4.514600 4.082037 0
M  V30 8 C 3.097129 3.693423 2.921079 0
M  V30 9 C 2.267699 2.594405 2.828012 0
M  V30 10 C 2.290535 1.819193 1.686915 0
M  V30 11 C 3.108712 2.079133 0.607745 0
M  V30 12 C 3.951475 3.195191 0.701075 0
M  V30 13 C 4.636553 3.202778 -0.501721 0
M  V30 14 N 4.211895 2.154902 -1.238975 0
M  V30 15 N 3.292339 1.472557 -0.579585 0
M  V30 16 C 2.581700 0.303152 -0.980944 0
M  V30 17 C 2.691666 -0.730700 -0.070863 0
M  V30 18 C 2.049025 -1.927678 -0.336999 0
M  V30 19 C 1.331912 -2.028049 -1.496519 0
M  V30 20 C 1.207234 -1.004196 -2.425146 0
M  V30 21 C 0.444925 -1.103554 -3.662953 0
M  V30 22 O 0.361936 -0.138377 -4.468567 0
M  V30 23 N -0.255176 -2.255993 -4.069990 0
M  V30 24 C -0.994668 -2.246390 -5.341410 0
M  V30 25 C -1.619477 -3.643801 -5.453820 0
M  V30 26 N -2.473540 -3.804172 -4.317008 0
M  V30 27 C -3.152373 -5.080077 -4.249115 0
M  V30 28 C -3.472863 -5.309928 -2.786352 0
M  V30 29 N -3.743496 -4.049738 -2.105517 0
M  V30 30 C -4.523116 -4.333305 -0.943466 0
M  V30 31 C -4.912253 -3.136664 -0.106082 0
M  V30 32 C -4.465824 -3.903389 1.120326 0
M  V30 33 C -3.672911 -4.813640 0.228774 0
M  V30 34 C -4.316891 -3.070366 -2.981350 0
M  V30 35 C -3.350455 -2.679878 -4.073873 0
M  V30 36 C 1.851972 0.179691 -2.145941 0
M  V30 37 C 3.927068 3.980890 1.860222 0
M  V30 38 C 2.746746 2.958239 5.840242 0
M  V30 39 Cl 4.015153 1.866933 5.283066 0
M  V30 40 H 2.427830 1.415143 8.795100 0
M  V30 41 H 1.641014 0.480533 7.487614 0
M  V30 42 H 3.391825 0.814073 7.383070 0
M  V30 43 H 0.568337 2.922310 8.466602 0
M  V30 44 H -0.062462 5.040360 7.394694 0
M  V30 45 H 1.115719 5.810960 5.326738 0
M  V30 46 H 3.662060 5.388703 4.087708 0
M  V30 47 H 1.596141 2.306965 3.598404 0
M  V30 48 H 1.640357 0.955859 1.611373 0
M  V30 49 H 5.375088 3.945853 -0.754579 0
M  V30 50 H 3.260258 -0.673739 0.864207 0
M  V30 51 H 2.110570 -2.755033 0.347219 0
M  V30 52 H 0.843578 -2.952183 -1.690076 0
M  V30 53 H -0.215243 -3.099726 -3.423481 0
M  V30 54 H -1.735802 -1.449224 -5.401284 0
M  V30 55 H -0.201455 -2.179791 -6.133796 0
M  V30 56 H -0.764729 -4.353607 -5.315821 0
M  V30 57 H -2.089105 -3.813499 -6.420827 0
M  V30 58 H -4.075524 -5.099586 -4.839849 0
M  V30 59 H -2.456295 -5.853905 -4.576494 0
M  V30 60 H -4.341349 -5.985397 -2.655025 0
M  V30 61 H -2.615415 -5.775903 -2.256458 0
M  V30 62 H -5.417702 -4.972185 -1.089523 0
M  V30 63 H -5.997273 -2.911801 -0.107830 0
M  V30 64 H -4.296332 -2.236940 -0.257200 0
M  V30 65 H -3.827495 -3.314982 1.826281 0
M  V30 66 H -5.335530 -4.393258 1.628879 0
M  V30 67 H -3.721983 -5.881609 0.448761 0
M  V30 68 H -2.639457 -4.389930 0.105238 0
M  V30 69 H -5.203519 -3.535965 -3.483734 0
M  V30 70 H -4.634451 -2.205628 -2.365297 0
M  V30 71 H -2.719667 -1.864718 -3.662862 0
M  V30 72 H -3.833523 -2.288404 -4.972315 0
M  V30 73 H 1.841961 1.049770 -2.769484 0
M  V30 74 H 4.614103 4.838996 1.863106 0
M  V30 END ATOM
M  V30 BEGIN BOND
M  V30 1 1 1 2
M  V30 2 2 2 3
M  V30 3 1 3 4
M  V30 4 2 4 5
M  V30 5 1 5 6
M  V30 6 1 6 7
M  V30 7 1 7 8
M  V30 8 2 8 9
M  V30 9 1 9 10
M  V30 10 2 10 11
M  V30 11 1 11 12
M  V30 12 1 12 13
M  V30 13 2 13 14
M  V30 14 1 14 15
M  V30 15 1 15 16
M  V30 16 2 16 17
M  V30 17 1 17 18
M  V30 18 2 18 19
M  V30 19 1 19 20
M  V30 20 1 20 21
M  V30 21 2 21 22
M  V30 22 1 21 23
M  V30 23 1 23 24
M  V30 24 1 24 25
M  V30 25 1 25 26
M  V30 26 1 26 27
M  V30 27 1 27 28
M  V30 28 1 28 29
M  V30 29 1 29 30
M  V30 30 1 30 31
M  V30 31 1 31 32
M  V30 32 1 32 33
M  V30 33 1 29 34
M  V30 34 1 34 35
M  V30 35 2 20 36
M  V30 36 2 12 37
M  V30 37 2 6 38
M  V30 38 1 38 39
M  V30 39 1 38 2
M  V30 40 1 37 8
M  V30 41 1 15 11
M  V30 42 1 36 16
M  V30 43 1 35 26
M  V30 44 1 33 30
M  V30 45 1 1 40
M  V30 46 1 1 41
M  V30 47 1 1 42
M  V30 48 1 3 43
M  V30 49 1 4 44
M  V30 50 1 5 45
M  V30 51 1 7 46
M  V30 52 1 9 47
M  V30 53 1 10 48
M  V30 54 1 13 49
M  V30 55 1 17 50
M  V30 56 1 18 51
M  V30 57 1 19 52
M  V30 58 1 23 53
M  V30 59 1 24 54
M  V30 60 1 24 55
M  V30 61 1 25 56
M  V30 62 1 25 57
M  V30 63 1 27 58
M  V30 64 1 27 59
M  V30 65 1 28 60
M  V30 66 1 28 61
M  V30 67 1 30 62
M  V30 68 1 31 63
M  V30 69 1 31 64
M  V30 70 1 32 65
M  V30 71 1 32 66
M  V30 72 1 33 67
M  V30 73 1 33 68
M  V30 74 1 34 69
M  V30 75 1 34 70
M  V30 76 1 35 71
M  V30 77 1 35 72
M  V30 78 1 36 73
M  V30 79 1 37 74
M  V30 END BOND
M  V30 END CTAB
M  END
>  <Dataset>  (188) 
ChEMBL_Kinases

>  <Ligand_Instance>  (188) 
nan

>  <PDB_ID>  (188) 
nan

>  <Standardized_SMILES>  (188) 
Cc1cccc(Nc2ccc3c(cnn3-c3cccc(C(=O)NCCN4CCN(C5CCC5)CC4)c3)c2)c1Cl

>  <Name>  (188) 
nan

>  <Pocket>  (188) 
nan

>  <ATP_Site>  (188) 
nan

>  <Peripheral>  (188) 
nan

>  <Num_H_Atoms_ProtBoundConf>  (188) 
nan

>  <Num_Resolved_Atoms>  (188) 
nan

>  <Num_Not_Resolved_Atoms>  (188) 
nan

$$$$
CHEMBL2376927
     RDKit          3D

  0  0  0  0  0  0  0  0  0  0999 V3000
M  V30 BEGIN CTAB
M  V30 COUNTS 59 63 0 0 0
M  V30 BEGIN ATOM
M  V30 1 O 3.773305 1.770972 1.944153 0
M  V30 2 C 3.246235 0.844418 1.276917 0
M  V30 3 N 2.098398 1.046207 0.465670 0
M  V30 4 C 1.456873 2.353774 0.356949 0
M  V30 5 C 0.972201 2.867409 1.689996 0
M  V30 6 N 0.331875 4.151066 1.635187 0
M  V30 7 C -0.086506 4.635974 2.922119 0
M  V30 8 C -1.372547 4.009891 3.422480 0
M  V30 9 O -2.417087 4.132482 2.530313 0
M  V30 10 C -2.019972 4.863001 1.434625 0
M  V30 11 C -0.798742 4.227821 0.754870 0
M  V30 12 C 3.803977 -0.508917 1.308378 0
M  V30 13 C 4.912981 -0.814444 2.068789 0
M  V30 14 C 5.455967 -2.083756 2.114813 0
M  V30 15 C 4.891212 -3.115432 1.381584 0
M  V30 16 C 3.767533 -2.784363 0.617366 0
M  V30 17 N 3.040345 -3.705995 -0.208960 0
M  V30 18 N 3.611286 -4.586608 -1.033980 0
M  V30 19 C 2.664308 -5.313264 -1.674112 0
M  V30 20 C 1.468882 -4.811344 -1.178766 0
M  V30 21 C 0.173594 -5.174009 -1.474816 0
M  V30 22 C -0.949654 -4.571426 -0.889436 0
M  V30 23 N -2.270767 -4.974992 -1.195634 0
M  V30 24 C -3.496756 -4.289288 -1.335817 0
M  V30 25 C -3.707834 -2.937419 -1.239594 0
M  V30 26 C -4.921923 -2.296526 -1.367523 0
M  V30 27 C -6.020807 -3.107504 -1.616610 0
M  V30 28 C -5.859209 -4.470466 -1.722062 0
M  V30 29 C -4.617387 -5.050319 -1.583762 0
M  V30 30 Cl -4.534376 -6.807566 -1.739129 0
M  V30 31 C -0.638600 -3.577528 0.015372 0
M  V30 32 C 0.636640 -3.173458 0.349663 0
M  V30 33 C 1.698014 -3.806001 -0.262231 0
M  V30 34 N 3.280209 -1.530057 0.609633 0
M  V30 35 H 1.688749 0.237532 -0.078018 0
M  V30 36 H 2.159189 3.059163 -0.106110 0
M  V30 37 H 0.588040 2.295582 -0.326534 0
M  V30 38 H 0.229851 2.170996 2.141422 0
M  V30 39 H 1.795669 2.919977 2.436797 0
M  V30 40 H -0.172307 5.726491 2.876499 0
M  V30 41 H 0.713827 4.312714 3.641904 0
M  V30 42 H -1.214785 2.920717 3.631955 0
M  V30 43 H -1.678722 4.434774 4.399149 0
M  V30 44 H -1.791536 5.921851 1.664370 0
M  V30 45 H -2.872996 4.888002 0.735641 0
M  V30 46 H -0.555502 4.838002 -0.138731 0
M  V30 47 H -1.068184 3.212869 0.370484 0
M  V30 48 H 5.402976 -0.044017 2.668360 0
M  V30 49 H 6.333051 -2.357538 2.707000 0
M  V30 50 H 5.218753 -4.149927 1.331015 0
M  V30 51 H 2.762351 -6.104101 -2.403231 0
M  V30 52 H -0.014594 -5.975665 -2.205982 0
M  V30 53 H -2.262743 -6.018145 -1.330795 0
M  V30 54 H -2.877772 -2.299176 -1.060897 0
M  V30 55 H -5.009509 -1.223183 -1.278420 0
M  V30 56 H -7.013469 -2.654941 -1.728188 0
M  V30 57 H -6.735053 -5.098639 -1.918807 0
M  V30 58 H -1.389422 -3.044984 0.546384 0
M  V30 59 H 0.861337 -2.395626 1.057840 0
M  V30 END ATOM
M  V30 BEGIN BOND
M  V30 1 2 1 2
M  V30 2 1 2 3
M  V30 3 1 3 4
M  V30 4 1 4 5
M  V30 5 1 5 6
M  V30 6 1 6 7
M  V30 7 1 7 8
M  V30 8 1 8 9
M  V30 9 1 9 10
M  V30 10 1 10 11
M  V30 11 1 2 12
M  V30 12 2 12 13
M  V30 13 1 13 14
M  V30 14 2 14 15
M  V30 15 1 15 16
M  V30 16 1 16 17
M  V30 17 1 17 18
M  V30 18 2 18 19
M  V30 19 1 19 20
M  V30 20 2 20 21
M  V30 21 1 21 22
M  V30 22 1 22 23
M  V30 23 1 23 24
M  V30 24 2 24 25
M  V30 25 1 25 26
M  V30 26 2 26 27
M  V30 27 1 27 28
M  V30 28 2 28 29
M  V30 29 1 29 30
M  V30 30 2 22 31
M  V30 31 1 31 32
M  V30 32 2 32 33
M  V30 33 2 16 34
M  V30 34 1 11 6
M  V30 35 1 34 12
M  V30 36 1 33 17
M  V30 37 1 33 20
M  V30 38 1 29 24
M  V30 39 1 3 35
M  V30 40 1 4 36
M  V30 41 1 4 37
M  V30 42 1 5 38
M  V30 43 1 5 39
M  V30 44 1 7 40
M  V30 45 1 7 41
M  V30 46 1 8 42
M  V30 47 1 8 43
M  V30 48 1 10 44
M  V30 49 1 10 45
M  V30 50 1 11 46
M  V30 51 1 11 47
M  V30 52 1 13 48
M  V30 53 1 14 49
M  V30 54 1 15 50
M  V30 55 1 19 51
M  V30 56 1 21 52
M  V30 57 1 23 53
M  V30 58 1 25 54
M  V30 59 1 26 55
M  V30 60 1 27 56
M  V30 61 1 28 57
M  V30 62 1 31 58
M  V30 63 1 32 59
M  V30 END BOND
M  V30 END CTAB
M  END
>  <Dataset>  (189) 
ChEMBL_Kinases

>  <Ligand_Instance>  (189) 
nan

>  <PDB_ID>  (189) 
nan

>  <Standardized_SMILES>  (189) 
O=C(NCCN1CCOCC1)c1cccc(-n2ncc3cc(Nc4ccccc4Cl)ccc32)n1

>  <Name>  (189) 
nan

>  <Pocket>  (189) 
nan

>  <ATP_Site>  (189) 
nan

>  <Peripheral>  (189) 
nan

>  <Num_H_Atoms_ProtBoundConf>  (189) 
nan

>  <Num_Resolved_Atoms>  (189) 
nan

>  <Num_Not_Resolved_Atoms>  (189) 
nan

$$$$
CHEMBL3703142
     RDKit          3D

  0  0  0  0  0  0  0  0  0  0999 V3000
M  V30 BEGIN CTAB
M  V30 COUNTS 49 53 0 0 0
M  V30 BEGIN ATOM
M  V30 1 N 2.360824 -7.529651 0.791171 0
M  V30 2 C 2.056551 -6.224850 0.327844 0
M  V30 3 C 2.376028 -5.728314 -0.940219 0
M  V30 4 C 2.003296 -4.431692 -1.224177 0
M  V30 5 N 1.359215 -3.702730 -0.294011 0
M  V30 6 C 0.938437 -2.430217 -0.434916 0
M  V30 7 C 1.001375 -1.447408 -1.516481 0
M  V30 8 C -0.208879 -1.016681 -2.033810 0
M  V30 9 C -0.285702 -0.083699 -3.065132 0
M  V30 10 C 0.923409 0.401350 -3.557504 0
M  V30 11 C 2.113713 -0.034555 -3.035155 0
M  V30 12 C 2.196986 -0.956956 -2.015268 0
M  V30 13 C 0.326277 -2.050482 0.743407 0
M  V30 14 C -0.325785 -0.844999 1.245753 0
M  V30 15 C -1.638371 -0.722609 1.655072 0
M  V30 16 C -2.133949 0.481302 2.112172 0
M  V30 17 C -1.343268 1.613922 2.180910 0
M  V30 18 C -1.996866 2.823172 2.684799 0
M  V30 19 N -3.308621 3.085425 2.097635 0
M  V30 20 C -1.208870 4.080033 2.787745 0
M  V30 21 C -1.712607 4.254524 4.218504 0
M  V30 22 C -2.133205 2.787115 4.192759 0
M  V30 23 C -0.039795 1.506418 1.778133 0
M  V30 24 C 0.463697 0.307428 1.320028 0
M  V30 25 N 0.399430 -3.130830 1.575469 0
M  V30 26 C 1.031679 -4.138359 0.936961 0
M  V30 27 C 1.394721 -5.441592 1.251478 0
M  V30 28 H 3.294562 -7.764625 1.226136 0
M  V30 29 H 1.518802 -8.120022 0.608869 0
M  V30 30 H 2.895130 -6.401639 -1.609346 0
M  V30 31 H 2.248339 -4.045558 -2.201776 0
M  V30 32 H -1.169086 -1.369233 -1.678832 0
M  V30 33 H -1.211969 0.269348 -3.486849 0
M  V30 34 H 0.981649 1.138166 -4.367778 0
M  V30 35 H 3.054936 0.337002 -3.411809 0
M  V30 36 H 3.094342 -1.336331 -1.565449 0
M  V30 37 H -2.232321 -1.623968 1.590258 0
M  V30 38 H -3.183401 0.496107 2.417716 0
M  V30 39 H -3.559037 4.063957 2.275555 0
M  V30 40 H -3.232447 2.842123 1.078649 0
M  V30 41 H -0.122368 4.034967 2.784548 0
M  V30 42 H -1.590786 4.919596 2.152230 0
M  V30 43 H -0.907978 4.436745 4.956609 0
M  V30 44 H -2.579206 4.921104 4.327863 0
M  V30 45 H -1.384570 2.132762 4.685392 0
M  V30 46 H -3.142313 2.622656 4.587012 0
M  V30 47 H 0.572524 2.371547 1.828269 0
M  V30 48 H 1.520792 0.306392 1.015868 0
M  V30 49 H 1.117589 -5.763609 2.249298 0
M  V30 END ATOM
M  V30 BEGIN BOND
M  V30 1 1 1 2
M  V30 2 1 2 3
M  V30 3 2 3 4
M  V30 4 1 4 5
M  V30 5 1 5 6
M  V30 6 1 6 7
M  V30 7 2 7 8
M  V30 8 1 8 9
M  V30 9 2 9 10
M  V30 10 1 10 11
M  V30 11 2 11 12
M  V30 12 2 6 13
M  V30 13 1 13 14
M  V30 14 2 14 15
M  V30 15 1 15 16
M  V30 16 2 16 17
M  V30 17 1 17 18
M  V30 18 1 18 19
M  V30 19 1 18 20
M  V30 20 1 20 21
M  V30 21 1 21 22
M  V30 22 1 17 23
M  V30 23 2 23 24
M  V30 24 1 13 25
M  V30 25 2 25 26
M  V30 26 1 26 27
M  V30 27 2 27 2
M  V30 28 1 26 5
M  V30 29 1 12 7
M  V30 30 1 24 14
M  V30 31 1 22 18
M  V30 32 1 1 28
M  V30 33 1 1 29
M  V30 34 1 3 30
M  V30 35 1 4 31
M  V30 36 1 8 32
M  V30 37 1 9 33
M  V30 38 1 10 34
M  V30 39 1 11 35
M  V30 40 1 12 36
M  V30 41 1 15 37
M  V30 42 1 16 38
M  V30 43 1 19 39
M  V30 44 1 19 40
M  V30 45 1 20 41
M  V30 46 1 20 42
M  V30 47 1 21 43
M  V30 48 1 21 44
M  V30 49 1 22 45
M  V30 50 1 22 46
M  V30 51 1 23 47
M  V30 52 1 24 48
M  V30 53 1 27 49
M  V30 END BOND
M  V30 END CTAB
M  END
>  <Dataset>  (190) 
ChEMBL_Kinases

>  <Ligand_Instance>  (190) 
nan

>  <PDB_ID>  (190) 
nan

>  <Standardized_SMILES>  (190) 
Nc1ccn2c(-c3ccccc3)c(-c3ccc(C4(N)CCC4)cc3)nc2c1

>  <Name>  (190) 
nan

>  <Pocket>  (190) 
nan

>  <ATP_Site>  (190) 
nan

>  <Peripheral>  (190) 
nan

>  <Num_H_Atoms_ProtBoundConf>  (190) 
nan

>  <Num_Resolved_Atoms>  (190) 
nan

>  <Num_Not_Resolved_Atoms>  (190) 
nan

$$$$
CHEMBL2376931
     RDKit          3D

  0  0  0  0  0  0  0  0  0  0999 V3000
M  V30 BEGIN CTAB
M  V30 COUNTS 59 63 0 0 0
M  V30 BEGIN ATOM
M  V30 1 O 0.757108 0.100436 2.843917 0
M  V30 2 C 1.230082 0.959328 2.002543 0
M  V30 3 N 2.665763 1.161671 2.112992 0
M  V30 4 C 3.050922 0.293744 3.157444 0
M  V30 5 C 4.519281 0.315291 3.440491 0
M  V30 6 N 5.323583 -0.068508 2.326285 0
M  V30 7 C 6.706361 -0.440123 2.777758 0
M  V30 8 C 7.543461 -0.531454 1.523424 0
M  V30 9 O 6.726817 -0.762478 0.406518 0
M  V30 10 C 5.948256 0.365929 0.091668 0
M  V30 11 C 5.643660 1.054753 1.416986 0
M  V30 12 C 0.218071 1.557448 1.102230 0
M  V30 13 C 0.619562 2.492927 0.172295 0
M  V30 14 C -0.258137 3.097928 -0.715411 0
M  V30 15 C -1.606575 2.727304 -0.645677 0
M  V30 16 C -1.954905 1.780159 0.310977 0
M  V30 17 N -3.329999 1.413031 0.362306 0
M  V30 18 N -4.425988 2.078928 0.765153 0
M  V30 19 C -5.504722 1.265489 0.599390 0
M  V30 20 C -5.046639 0.069674 0.079399 0
M  V30 21 C -5.732951 -1.076902 -0.270377 0
M  V30 22 C -5.029418 -2.150106 -0.778361 0
M  V30 23 N -5.648913 -3.367681 -1.179900 0
M  V30 24 C -5.043125 -4.555383 -1.668644 0
M  V30 25 C -5.220264 -5.166738 -2.890521 0
M  V30 26 C -4.579000 -6.329063 -3.242363 0
M  V30 27 C -3.724874 -6.887547 -2.308224 0
M  V30 28 C -3.479441 -6.356603 -1.063723 0
M  V30 29 C -4.160237 -5.190296 -0.787057 0
M  V30 30 Cl -3.853816 -4.485820 0.813429 0
M  V30 31 N -3.696293 -2.049493 -0.917957 0
M  V30 32 C -3.023481 -0.921839 -0.574329 0
M  V30 33 C -3.673629 0.177016 -0.064262 0
M  V30 34 C -1.092866 1.177075 1.193016 0
M  V30 35 H 2.726367 1.877527 1.343049 0
M  V30 36 H 2.787984 -0.774059 2.863982 0
M  V30 37 H 2.487793 0.519247 4.110949 0
M  V30 38 H 4.775273 -0.302704 4.344800 0
M  V30 39 H 4.841876 1.349527 3.734021 0
M  V30 40 H 7.101786 0.344062 3.434988 0
M  V30 41 H 6.665712 -1.438156 3.247466 0
M  V30 42 H 8.162885 0.344419 1.348729 0
M  V30 43 H 8.195455 -1.425539 1.600936 0
M  V30 44 H 4.969512 0.003724 -0.284177 0
M  V30 45 H 6.421809 1.037761 -0.622642 0
M  V30 46 H 4.901774 1.821750 1.357569 0
M  V30 47 H 6.576746 1.563356 1.801113 0
M  V30 48 H 1.623275 2.853854 0.028102 0
M  V30 49 H -0.010628 3.828487 -1.460893 0
M  V30 50 H -2.343879 3.166745 -1.316261 0
M  V30 51 H -6.532053 1.486509 0.825196 0
M  V30 52 H -6.788211 -1.202408 -0.174047 0
M  V30 53 H -6.711005 -3.393599 -1.104963 0
M  V30 54 H -5.909956 -4.634588 -3.529430 0
M  V30 55 H -4.758872 -6.760813 -4.220602 0
M  V30 56 H -3.216630 -7.816735 -2.591754 0
M  V30 57 H -2.810024 -6.800933 -0.343435 0
M  V30 58 H -1.950114 -0.859199 -0.694317 0
M  V30 59 H -1.405658 0.448733 1.919756 0
M  V30 END ATOM
M  V30 BEGIN BOND
M  V30 1 2 1 2
M  V30 2 1 2 3
M  V30 3 1 3 4
M  V30 4 1 4 5
M  V30 5 1 5 6
M  V30 6 1 6 7
M  V30 7 1 7 8
M  V30 8 1 8 9
M  V30 9 1 9 10
M  V30 10 1 10 11
M  V30 11 1 2 12
M  V30 12 2 12 13
M  V30 13 1 13 14
M  V30 14 2 14 15
M  V30 15 1 15 16
M  V30 16 1 16 17
M  V30 17 1 17 18
M  V30 18 2 18 19
M  V30 19 1 19 20
M  V30 20 2 20 21
M  V30 21 1 21 22
M  V30 22 1 22 23
M  V30 23 1 23 24
M  V30 24 2 24 25
M  V30 25 1 25 26
M  V30 26 2 26 27
M  V30 27 1 27 28
M  V30 28 2 28 29
M  V30 29 1 29 30
M  V30 30 2 22 31
M  V30 31 1 31 32
M  V30 32 2 32 33
M  V30 33 2 16 34
M  V30 34 1 11 6
M  V30 35 1 34 12
M  V30 36 1 33 17
M  V30 37 1 33 20
M  V30 38 1 29 24
M  V30 39 1 3 35
M  V30 40 1 4 36
M  V30 41 1 4 37
M  V30 42 1 5 38
M  V30 43 1 5 39
M  V30 44 1 7 40
M  V30 45 1 7 41
M  V30 46 1 8 42
M  V30 47 1 8 43
M  V30 48 1 10 44
M  V30 49 1 10 45
M  V30 50 1 11 46
M  V30 51 1 11 47
M  V30 52 1 13 48
M  V30 53 1 14 49
M  V30 54 1 15 50
M  V30 55 1 19 51
M  V30 56 1 21 52
M  V30 57 1 23 53
M  V30 58 1 25 54
M  V30 59 1 26 55
M  V30 60 1 27 56
M  V30 61 1 28 57
M  V30 62 1 32 58
M  V30 63 1 34 59
M  V30 END BOND
M  V30 END CTAB
M  END
>  <Dataset>  (191) 
ChEMBL_Kinases

>  <Ligand_Instance>  (191) 
nan

>  <PDB_ID>  (191) 
nan

>  <Standardized_SMILES>  (191) 
O=C(NCCN1CCOCC1)c1cccc(-n2ncc3cc(Nc4ccccc4Cl)ncc32)c1

>  <Name>  (191) 
nan

>  <Pocket>  (191) 
nan

>  <ATP_Site>  (191) 
nan

>  <Peripheral>  (191) 
nan

>  <Num_H_Atoms_ProtBoundConf>  (191) 
nan

>  <Num_Resolved_Atoms>  (191) 
nan

>  <Num_Not_Resolved_Atoms>  (191) 
nan

$$$$
CHEMBL2377711
     RDKit          3D

  0  0  0  0  0  0  0  0  0  0999 V3000
M  V30 BEGIN CTAB
M  V30 COUNTS 37 40 0 0 0
M  V30 BEGIN ATOM
M  V30 1 C -0.453058 -3.603562 2.279754 0
M  V30 2 C 0.888483 -2.989915 2.310290 0
M  V30 3 C 1.068966 -1.729324 1.601607 0
M  V30 4 N 2.312312 -1.163591 1.655148 0
M  V30 5 C 2.244708 -0.024602 0.942570 0
M  V30 6 C 3.211254 0.944586 0.663220 0
M  V30 7 N 4.531616 0.875237 1.126405 0 CHG=1 VAL=4
M  V30 8 O 5.109931 0.424433 2.129551 0
M  V30 9 O 5.547830 1.409233 0.365099 0 CHG=-1 VAL=1
M  V30 10 C 2.939411 2.072636 -0.107734 0
M  V30 11 C 1.662095 2.257232 -0.627326 0
M  V30 12 C 1.041512 3.215674 -1.406445 0
M  V30 13 N -0.237196 2.811543 -1.569263 0
M  V30 14 N -0.454703 1.662055 -0.941617 0
M  V30 15 C 0.702914 1.304409 -0.355541 0
M  V30 16 C 0.993102 0.202493 0.405414 0
M  V30 17 C 0.277556 -0.895198 0.842979 0
M  V30 18 C -1.126848 -1.166976 0.558655 0
M  V30 19 C -2.237706 -0.771259 1.309786 0
M  V30 20 C -3.504151 -1.114908 0.884402 0
M  V30 21 C -3.752405 -1.839017 -0.258123 0
M  V30 22 C -2.683205 -2.233894 -1.003589 0
M  V30 23 C -1.422123 -1.902975 -0.598159 0
M  V30 24 H -1.242061 -3.029392 2.797486 0
M  V30 25 H -0.374870 -4.552255 2.897880 0
M  V30 26 H -0.715740 -3.973019 1.278388 0
M  V30 27 H 1.596384 -3.727159 1.829373 0
M  V30 28 H 1.206394 -2.927448 3.382943 0
M  V30 29 H 3.216861 -1.466838 2.127617 0
M  V30 30 H 3.644631 2.829818 -0.342000 0
M  V30 31 H 1.523940 4.110948 -1.795173 0
M  V30 32 H -1.377704 1.166564 -0.935519 0
M  V30 33 H -1.992280 -0.208043 2.193383 0
M  V30 34 H -4.341073 -0.790347 1.492954 0
M  V30 35 H -4.765519 -2.079886 -0.543501 0
M  V30 36 H -2.837817 -2.810482 -1.917872 0
M  V30 37 H -0.603793 -2.243193 -1.230071 0
M  V30 END ATOM
M  V30 BEGIN BOND
M  V30 1 1 1 2
M  V30 2 1 2 3
M  V30 3 1 3 4
M  V30 4 1 4 5
M  V30 5 2 5 6
M  V30 6 1 6 7
M  V30 7 2 7 8
M  V30 8 1 7 9
M  V30 9 1 6 10
M  V30 10 2 10 11
M  V30 11 1 11 12
M  V30 12 2 12 13
M  V30 13 1 13 14
M  V30 14 1 14 15
M  V30 15 2 15 16
M  V30 16 1 16 17
M  V30 17 1 17 18
M  V30 18 2 18 19
M  V30 19 1 19 20
M  V30 20 2 20 21
M  V30 21 1 21 22
M  V30 22 2 22 23
M  V30 23 2 17 3
M  V30 24 1 23 18
M  V30 25 1 16 5
M  V30 26 1 15 11
M  V30 27 1 1 24
M  V30 28 1 1 25
M  V30 29 1 1 26
M  V30 30 1 2 27
M  V30 31 1 2 28
M  V30 32 1 4 29
M  V30 33 1 10 30
M  V30 34 1 12 31
M  V30 35 1 14 32
M  V30 36 1 19 33
M  V30 37 1 20 34
M  V30 38 1 21 35
M  V30 39 1 22 36
M  V30 40 1 23 37
M  V30 END BOND
M  V30 END CTAB
M  END
>  <Dataset>  (192) 
ChEMBL_Kinases

>  <Ligand_Instance>  (192) 
nan

>  <PDB_ID>  (192) 
nan

>  <Standardized_SMILES>  (192) 
CCc1[nH]c2c([N+](=O)[O-])cc3cn[nH]c3c2c1-c1ccccc1

>  <Name>  (192) 
nan

>  <Pocket>  (192) 
nan

>  <ATP_Site>  (192) 
nan

>  <Peripheral>  (192) 
nan

>  <Num_H_Atoms_ProtBoundConf>  (192) 
nan

>  <Num_Resolved_Atoms>  (192) 
nan

>  <Num_Not_Resolved_Atoms>  (192) 
nan

$$$$
CHEMBL4467403
     RDKit          3D

  0  0  0  0  0  0  0  0  0  0999 V3000
M  V30 BEGIN CTAB
M  V30 COUNTS 51 54 0 0 0
M  V30 BEGIN ATOM
M  V30 1 O 2.549974 -1.110466 1.038449 0
M  V30 2 C 1.948857 -0.772813 -0.055717 0
M  V30 3 C 2.420259 -1.052784 -1.460683 0
M  V30 4 O 3.624468 -1.739256 -1.444616 0
M  V30 5 C 4.827488 -1.353766 -0.928761 0
M  V30 6 C 5.070806 -0.134650 -0.304511 0
M  V30 7 C 6.357845 0.046408 0.144127 0
M  V30 8 C 7.397117 -0.846981 0.033166 0
M  V30 9 C 8.662587 -0.600817 0.504906 0
M  V30 10 O 8.940568 0.470692 1.071048 0
M  V30 11 C 9.612637 -1.610835 0.316390 0
M  V30 12 C 9.275807 -2.811228 -0.325679 0
M  V30 13 O 8.047163 -2.935228 -0.732309 0
M  V30 14 C 7.108123 -2.031194 -0.588291 0
M  V30 15 C 5.828819 -2.318531 -1.083572 0
M  V30 16 N 0.853266 -0.140863 0.459795 0
M  V30 17 C -0.233122 0.486317 1.053822 0
M  V30 18 C -0.120355 1.852290 1.355674 0
M  V30 19 C -1.148635 2.525777 1.993610 0
M  V30 20 C -2.227141 1.713492 2.270256 0
M  V30 21 C -2.435627 0.377150 2.018204 0
M  V30 22 N -3.662289 -0.233317 2.409906 0
M  V30 23 C -4.581097 -0.113196 1.338696 0
M  V30 24 O -4.085996 0.492769 0.327794 0
M  V30 25 C -5.967323 -0.628868 1.371891 0
M  V30 26 C -6.453230 -1.278091 2.489183 0
M  V30 27 C -7.759285 -1.711847 2.402704 0
M  V30 28 C -8.557270 -1.528595 1.293361 0
M  V30 29 N -9.911426 -1.973060 1.212266 0 CHG=1 VAL=4
M  V30 30 O -10.342309 -2.576665 2.211630 0
M  V30 31 O -10.585098 -1.692699 0.048883 0 CHG=-1 VAL=1
M  V30 32 C -8.027671 -0.865717 0.180692 0
M  V30 33 C -6.705982 -0.406417 0.220549 0
M  V30 34 C -1.378354 -0.243451 1.380413 0
M  V30 35 H 1.645840 -1.765096 -1.872834 0
M  V30 36 H 2.395399 -0.161548 -2.084535 0
M  V30 37 H 4.277958 0.587318 -0.205843 0
M  V30 38 H 6.587980 0.995449 0.640901 0
M  V30 39 H 10.597974 -1.358122 0.714329 0
M  V30 40 H 10.108047 -3.485234 -0.394785 0
M  V30 41 H 5.692059 -3.277043 -1.559696 0
M  V30 42 H 0.406249 0.105761 -0.512335 0
M  V30 43 H 0.779834 2.401519 1.091903 0
M  V30 44 H -1.135641 3.568258 2.258984 0
M  V30 45 H -3.046890 2.232220 2.775588 0
M  V30 46 H -3.963686 -0.710516 3.284182 0
M  V30 47 H -5.858739 -1.433972 3.359011 0
M  V30 48 H -8.248135 -2.237963 3.230640 0
M  V30 49 H -8.559567 -0.663923 -0.747458 0
M  V30 50 H -6.272484 0.114916 -0.638558 0
M  V30 51 H -1.502065 -1.292291 1.161890 0
M  V30 END ATOM
M  V30 BEGIN BOND
M  V30 1 2 1 2
M  V30 2 1 2 3
M  V30 3 1 3 4
M  V30 4 1 4 5
M  V30 5 2 5 6
M  V30 6 1 6 7
M  V30 7 2 7 8
M  V30 8 1 8 9
M  V30 9 2 9 10
M  V30 10 1 9 11
M  V30 11 2 11 12
M  V30 12 1 12 13
M  V30 13 1 13 14
M  V30 14 2 14 15
M  V30 15 1 2 16
M  V30 16 1 16 17
M  V30 17 2 17 18
M  V30 18 1 18 19
M  V30 19 2 19 20
M  V30 20 1 20 21
M  V30 21 1 21 22
M  V30 22 1 22 23
M  V30 23 2 23 24
M  V30 24 1 23 25
M  V30 25 2 25 26
M  V30 26 1 26 27
M  V30 27 2 27 28
M  V30 28 1 28 29
M  V30 29 2 29 30
M  V30 30 1 29 31
M  V30 31 1 28 32
M  V30 32 2 32 33
M  V30 33 2 21 34
M  V30 34 1 15 5
M  V30 35 1 34 17
M  V30 36 1 14 8
M  V30 37 1 33 25
M  V30 38 1 3 35
M  V30 39 1 3 36
M  V30 40 1 6 37
M  V30 41 1 7 38
M  V30 42 1 11 39
M  V30 43 1 12 40
M  V30 44 1 15 41
M  V30 45 1 16 42
M  V30 46 1 18 43
M  V30 47 1 19 44
M  V30 48 1 20 45
M  V30 49 1 22 46
M  V30 50 1 26 47
M  V30 51 1 27 48
M  V30 52 1 32 49
M  V30 53 1 33 50
M  V30 54 1 34 51
M  V30 END BOND
M  V30 END CTAB
M  END
>  <Dataset>  (193) 
ChEMBL_Kinases

>  <Ligand_Instance>  (193) 
nan

>  <PDB_ID>  (193) 
nan

>  <Standardized_SMILES>  (193) 
O=C(COc1ccc2c(=O)ccoc2c1)Nc1cccc(NC(=O)c2ccc([N+](=O)[O-])cc2)c1

>  <Name>  (193) 
nan

>  <Pocket>  (193) 
nan

>  <ATP_Site>  (193) 
nan

>  <Peripheral>  (193) 
nan

>  <Num_H_Atoms_ProtBoundConf>  (193) 
nan

>  <Num_Resolved_Atoms>  (193) 
nan

>  <Num_Not_Resolved_Atoms>  (193) 
nan

$$$$
CHEMBL2377718
     RDKit          3D

  0  0  0  0  0  0  0  0  0  0999 V3000
M  V30 BEGIN CTAB
M  V30 COUNTS 31 34 0 0 0
M  V30 BEGIN ATOM
M  V30 1 O -0.326696 -6.078667 0.980846 0
M  V30 2 N -0.696250 -5.011617 0.422706 0 CHG=1 VAL=4
M  V30 3 O -1.819224 -5.493539 -0.187848 0 CHG=-1 VAL=1
M  V30 4 C 0.041150 -3.805813 0.563690 0
M  V30 5 C 1.394234 -3.927916 0.804373 0
M  V30 6 C 2.077922 -2.743505 0.935838 0
M  V30 7 C 3.424940 -2.524231 1.184512 0
M  V30 8 N 3.586831 -1.169137 1.228052 0
M  V30 9 N 2.426314 -0.580554 1.021669 0
M  V30 10 C 1.481434 -1.506556 0.838811 0
M  V30 11 C 0.154987 -1.416484 0.602036 0
M  V30 12 C -0.640019 -0.305251 0.470265 0
M  V30 13 C -0.431370 1.130882 0.492110 0
M  V30 14 C -1.298603 1.811394 1.362082 0
M  V30 15 C -1.322002 3.171910 1.552848 0
M  V30 16 C -0.431778 3.940184 0.842525 0
M  V30 17 C 0.438595 3.315432 -0.023455 0
M  V30 18 C 0.436643 1.949666 -0.191836 0
M  V30 19 C -1.916873 -0.835605 0.241178 0
M  V30 20 N -1.839138 -2.179193 0.243662 0
M  V30 21 C -0.568875 -2.571786 0.464220 0
M  V30 22 H 1.937679 -4.867078 0.894082 0
M  V30 23 H 4.204227 -3.271948 1.319423 0
M  V30 24 H 2.460168 0.453211 1.042984 0
M  V30 25 H -2.048025 1.286614 1.975435 0
M  V30 26 H -1.986515 3.669656 2.216211 0
M  V30 27 H -0.364851 5.016740 0.916542 0
M  V30 28 H 1.175744 3.825194 -0.627360 0
M  V30 29 H 1.083820 1.368690 -0.850275 0
M  V30 30 H -2.852776 -0.302151 0.080912 0
M  V30 31 H -2.627057 -2.872857 0.099225 0
M  V30 END ATOM
M  V30 BEGIN BOND
M  V30 1 2 1 2
M  V30 2 1 2 3
M  V30 3 1 2 4
M  V30 4 2 4 5
M  V30 5 1 5 6
M  V30 6 1 6 7
M  V30 7 2 7 8
M  V30 8 1 8 9
M  V30 9 1 9 10
M  V30 10 1 10 11
M  V30 11 1 11 12
M  V30 12 1 12 13
M  V30 13 2 13 14
M  V30 14 1 14 15
M  V30 15 2 15 16
M  V30 16 1 16 17
M  V30 17 2 17 18
M  V30 18 2 12 19
M  V30 19 1 19 20
M  V30 20 1 20 21
M  V30 21 1 21 4
M  V30 22 2 10 6
M  V30 23 2 21 11
M  V30 24 1 18 13
M  V30 25 1 5 22
M  V30 26 1 7 23
M  V30 27 1 9 24
M  V30 28 1 14 25
M  V30 29 1 15 26
M  V30 30 1 16 27
M  V30 31 1 17 28
M  V30 32 1 18 29
M  V30 33 1 19 30
M  V30 34 1 20 31
M  V30 END BOND
M  V30 END CTAB
M  END
>  <Dataset>  (194) 
ChEMBL_Kinases

>  <Ligand_Instance>  (194) 
nan

>  <PDB_ID>  (194) 
nan

>  <Standardized_SMILES>  (194) 
O=[N+]([O-])c1cc2cn[nH]c2c2c(-c3ccccc3)c[nH]c12

>  <Name>  (194) 
nan

>  <Pocket>  (194) 
nan

>  <ATP_Site>  (194) 
nan

>  <Peripheral>  (194) 
nan

>  <Num_H_Atoms_ProtBoundConf>  (194) 
nan

>  <Num_Resolved_Atoms>  (194) 
nan

>  <Num_Not_Resolved_Atoms>  (194) 
nan

$$$$
CHEMBL2377721
     RDKit          3D

  0  0  0  0  0  0  0  0  0  0999 V3000
M  V30 BEGIN CTAB
M  V30 COUNTS 21 23 0 0 0
M  V30 BEGIN ATOM
M  V30 1 N -0.292106 2.012476 2.684382 0
M  V30 2 C 0.279947 1.001735 1.885722 0
M  V30 3 C 1.333126 0.270093 2.393731 0
M  V30 4 C 1.880920 -0.704041 1.618042 0
M  V30 5 C 2.912417 -1.590572 1.817842 0
M  V30 6 N 3.038395 -2.344571 0.710995 0
M  V30 7 N 2.141070 -1.983665 -0.181650 0
M  V30 8 C 1.422782 -0.982524 0.351588 0
M  V30 9 C 0.371220 -0.254005 -0.159146 0
M  V30 10 C -0.338595 -0.238528 -1.338280 0
M  V30 11 C -1.289127 0.737210 -1.244197 0
M  V30 12 N -1.192465 1.330516 -0.040515 0
M  V30 13 C -0.191701 0.736757 0.619964 0
M  V30 14 H -0.021919 2.876175 3.186233 0
M  V30 15 H -1.294175 1.815180 2.793502 0
M  V30 16 H 1.733833 0.436858 3.366904 0
M  V30 17 H 3.506043 -1.658054 2.708401 0
M  V30 18 H 1.976308 -2.367502 -1.134087 0
M  V30 19 H -0.125053 -0.906310 -2.145328 0
M  V30 20 H -1.997081 0.985741 -2.011844 0
M  V30 21 H -1.806000 2.112196 0.286296 0
M  V30 END ATOM
M  V30 BEGIN BOND
M  V30 1 1 1 2
M  V30 2 2 2 3
M  V30 3 1 3 4
M  V30 4 1 4 5
M  V30 5 2 5 6
M  V30 6 1 6 7
M  V30 7 1 7 8
M  V30 8 1 8 9
M  V30 9 1 9 10
M  V30 10 2 10 11
M  V30 11 1 11 12
M  V30 12 1 12 13
M  V30 13 1 13 2
M  V30 14 2 8 4
M  V30 15 2 13 9
M  V30 16 1 1 14
M  V30 17 1 1 15
M  V30 18 1 3 16
M  V30 19 1 5 17
M  V30 20 1 7 18
M  V30 21 1 10 19
M  V30 22 1 11 20
M  V30 23 1 12 21
M  V30 END BOND
M  V30 END CTAB
M  END
>  <Dataset>  (195) 
ChEMBL_Kinases

>  <Ligand_Instance>  (195) 
nan

>  <PDB_ID>  (195) 
nan

>  <Standardized_SMILES>  (195) 
Nc1cc2cn[nH]c2c2cc[nH]c12

>  <Name>  (195) 
nan

>  <Pocket>  (195) 
nan

>  <ATP_Site>  (195) 
nan

>  <Peripheral>  (195) 
nan

>  <Num_H_Atoms_ProtBoundConf>  (195) 
nan

>  <Num_Resolved_Atoms>  (195) 
nan

>  <Num_Not_Resolved_Atoms>  (195) 
nan

$$$$
CHEMBL4467348
     RDKit          3D

  0  0  0  0  0  0  0  0  0  0999 V3000
M  V30 BEGIN CTAB
M  V30 COUNTS 64 70 0 0 0
M  V30 BEGIN ATOM
M  V30 1 C 5.250105 0.372312 -2.229457 0
M  V30 2 O 4.387000 0.469069 -1.112498 0
M  V30 3 C 4.484470 1.558045 -0.279929 0
M  V30 4 C 5.427580 2.516212 -0.572450 0
M  V30 5 C 5.538305 3.613663 0.251889 0
M  V30 6 C 4.693492 3.725326 1.359238 0
M  V30 7 C 3.711524 2.789268 1.715614 0
M  V30 8 C 3.688964 1.738311 0.827947 0
M  V30 9 C 3.046147 3.276059 2.915658 0 CFG=2
M  V30 10 C 2.573188 2.465028 4.033070 0
M  V30 11 C 1.608838 3.258419 3.190978 0 CFG=2
M  V30 12 C 0.590248 2.465942 2.508949 0
M  V30 13 C 0.518830 1.110211 2.275086 0
M  V30 14 C -0.482629 0.437497 1.617003 0
M  V30 15 C -1.546714 1.145253 1.120996 0
M  V30 16 C -2.690436 0.821866 0.434518 0
M  V30 17 C -3.057476 -0.533358 0.038914 0
M  V30 18 C -4.300714 -1.111690 0.191969 0
M  V30 19 C -4.550870 -2.405874 -0.216526 0
M  V30 20 C -3.567705 -3.190580 -0.800768 0
M  V30 21 N -3.734117 -4.531140 -1.244998 0
M  V30 22 C -2.604916 -5.215097 -1.884314 0
M  V30 23 C -3.050806 -6.599144 -2.220854 0
M  V30 24 N -3.535474 -7.305983 -1.051372 0
M  V30 25 C -2.483002 -7.228136 -0.034211 0
M  V30 26 C -4.687595 -6.649022 -0.468282 0
M  V30 27 C -4.951356 -5.304016 -1.115492 0
M  V30 28 N -2.370385 -2.599136 -0.935648 0
M  V30 29 C -2.103398 -1.341905 -0.546071 0
M  V30 30 N -3.348062 1.972780 0.231117 0
M  V30 31 N -2.693638 3.001492 0.744327 0
M  V30 32 C -1.573029 2.510327 1.301411 0
M  V30 33 C -0.533454 3.118402 1.971655 0
M  V30 34 C 3.792877 4.549433 3.238465 0
M  V30 35 O 3.504285 5.223539 4.274229 0
M  V30 36 N 4.777993 4.819877 2.261970 0
M  V30 37 H 5.066219 -0.510633 -2.840134 0
M  V30 38 H 6.286876 0.417586 -1.811811 0
M  V30 39 H 5.151905 1.294296 -2.864399 0
M  V30 40 H 6.065045 2.411688 -1.425070 0
M  V30 41 H 6.293067 4.334761 -0.022945 0
M  V30 42 H 2.999672 0.945838 0.976013 0
M  V30 43 H 2.586671 1.375618 4.031927 0
M  V30 44 H 2.812810 2.866914 5.062629 0
M  V30 45 H 1.215760 4.247131 3.555438 0
M  V30 46 H 1.363018 0.536455 2.667828 0
M  V30 47 H -0.404545 -0.633340 1.509866 0
M  V30 48 H -5.069980 -0.505480 0.646300 0
M  V30 49 H -5.520493 -2.827671 -0.087401 0
M  V30 50 H -2.253180 -4.681473 -2.766761 0
M  V30 51 H -1.823726 -5.288198 -1.079597 0
M  V30 52 H -2.191589 -7.142104 -2.657224 0
M  V30 53 H -3.898473 -6.528870 -2.955750 0
M  V30 54 H -2.521149 -8.113497 0.657689 0
M  V30 55 H -2.556838 -6.281934 0.546352 0
M  V30 56 H -1.494113 -7.230765 -0.551646 0
M  V30 57 H -5.570064 -7.287666 -0.677133 0
M  V30 58 H -4.609260 -6.543750 0.623889 0
M  V30 59 H -5.690735 -4.802559 -0.461161 0
M  V30 60 H -5.469853 -5.423706 -2.095796 0
M  V30 61 H -1.074977 -1.041986 -0.742744 0
M  V30 62 H -2.983261 4.008972 0.726129 0
M  V30 63 H -0.606172 4.211819 2.086568 0
M  V30 64 H 5.379761 5.663920 2.290527 0
M  V30 END ATOM
M  V30 BEGIN BOND
M  V30 1 1 1 2
M  V30 2 1 2 3
M  V30 3 2 3 4
M  V30 4 1 4 5
M  V30 5 2 5 6
M  V30 6 1 6 7
M  V30 7 2 7 8
M  V30 8 1 7 9
M  V30 9 1 9 10 CFG=1
M  V30 10 1 10 11
M  V30 11 1 11 12
M  V30 12 2 12 13
M  V30 13 1 13 14
M  V30 14 2 14 15
M  V30 15 1 15 16
M  V30 16 1 16 17
M  V30 17 2 17 18
M  V30 18 1 18 19
M  V30 19 2 19 20
M  V30 20 1 20 21
M  V30 21 1 21 22
M  V30 22 1 22 23
M  V30 23 1 23 24
M  V30 24 1 24 25
M  V30 25 1 24 26
M  V30 26 1 26 27
M  V30 27 1 20 28
M  V30 28 2 28 29
M  V30 29 2 16 30
M  V30 30 1 30 31
M  V30 31 1 31 32
M  V30 32 2 32 33
M  V30 33 1 9 34
M  V30 34 2 34 35
M  V30 35 1 34 36
M  V30 36 1 8 3
M  V30 37 1 11 9
M  V30 38 1 33 12
M  V30 39 1 36 6
M  V30 40 1 32 15
M  V30 41 1 29 17
M  V30 42 1 27 21
M  V30 43 1 1 37
M  V30 44 1 1 38
M  V30 45 1 1 39
M  V30 46 1 4 40
M  V30 47 1 5 41
M  V30 48 1 8 42
M  V30 49 1 10 43
M  V30 50 1 10 44
M  V30 51 1 11 45 CFG=1
M  V30 52 1 13 46
M  V30 53 1 14 47
M  V30 54 1 18 48
M  V30 55 1 19 49
M  V30 56 1 22 50
M  V30 57 1 22 51
M  V30 58 1 23 52
M  V30 59 1 23 53
M  V30 60 1 25 54
M  V30 61 1 25 55
M  V30 62 1 25 56
M  V30 63 1 26 57
M  V30 64 1 26 58
M  V30 65 1 27 59
M  V30 66 1 27 60
M  V30 67 1 29 61
M  V30 68 1 31 62
M  V30 69 1 33 63
M  V30 70 1 36 64
M  V30 END BOND
M  V30 END CTAB
M  END
>  <Dataset>  (196) 
ChEMBL_Kinases

>  <Ligand_Instance>  (196) 
nan

>  <PDB_ID>  (196) 
nan

>  <Standardized_SMILES>  (196) 
COc1ccc2c(c1)[C@@]1(C[C@@H]1c1ccc3c(-c4ccc(N5CCN(C)CC5)nc4)n[nH]c3c1)C(=O)N2

>  <Name>  (196) 
nan

>  <Pocket>  (196) 
nan

>  <ATP_Site>  (196) 
nan

>  <Peripheral>  (196) 
nan

>  <Num_H_Atoms_ProtBoundConf>  (196) 
nan

>  <Num_Resolved_Atoms>  (196) 
nan

>  <Num_Not_Resolved_Atoms>  (196) 
nan

$$$$
CHEMBL2380574
     RDKit          3D

  0  0  0  0  0  0  0  0  0  0999 V3000
M  V30 BEGIN CTAB
M  V30 COUNTS 39 41 0 0 0
M  V30 BEGIN ATOM
M  V30 1 C -1.433926 -6.262893 1.474167 0
M  V30 2 C -1.008916 -5.458807 2.671983 0
M  V30 3 O -0.777841 -4.122381 2.284157 0
M  V30 4 C 0.187594 -3.816337 1.341743 0
M  V30 5 C 1.057507 -4.607598 0.634845 0
M  V30 6 C 1.939741 -4.062107 -0.262856 0
M  V30 7 C 2.004001 -2.701437 -0.505193 0
M  V30 8 N 2.772541 -1.959084 -1.323614 0
M  V30 9 N 2.407420 -0.700855 -1.151185 0
M  V30 10 C 1.417663 -0.628215 -0.235314 0
M  V30 11 C 0.775661 0.606508 0.198026 0
M  V30 12 C 0.445596 1.444981 -0.871270 0
M  V30 13 C -0.175853 2.677422 -0.666388 0
M  V30 14 C -0.445594 3.021971 0.642253 0
M  V30 15 N -1.087910 4.289292 0.895193 0
M  V30 16 C -0.054315 5.250913 1.061122 0
M  V30 17 C -0.257567 6.715192 1.344160 0
M  V30 18 O 1.150511 4.889613 0.971549 0
M  V30 19 C -0.131480 2.215065 1.717628 0
M  V30 20 C 0.482662 1.001598 1.486855 0
M  V30 21 C 1.131789 -1.901123 0.202894 0
M  V30 22 C 0.227406 -2.444449 1.120844 0
M  V30 23 H -0.822184 -7.185787 1.325279 0
M  V30 24 H -1.410895 -5.663767 0.546693 0
M  V30 25 H -2.509443 -6.531804 1.625423 0
M  V30 26 H -1.749402 -5.529177 3.486298 0
M  V30 27 H -0.003776 -5.847026 3.005289 0
M  V30 28 H 0.953973 -5.653258 0.875715 0
M  V30 29 H 2.574881 -4.764452 -0.762440 0
M  V30 30 H 3.504563 -2.390862 -1.950167 0
M  V30 31 H 0.637634 1.216523 -1.910787 0
M  V30 32 H -0.439029 3.339665 -1.478569 0
M  V30 33 H -2.066783 4.644868 0.979805 0
M  V30 34 H 0.420998 6.923524 2.202935 0
M  V30 35 H 0.097763 7.324831 0.497285 0
M  V30 36 H -1.268048 6.935568 1.685249 0
M  V30 37 H -0.341046 2.482026 2.738961 0
M  V30 38 H 0.770469 0.299108 2.252661 0
M  V30 39 H -0.389399 -1.688054 1.594881 0
M  V30 END ATOM
M  V30 BEGIN BOND
M  V30 1 1 1 2
M  V30 2 1 2 3
M  V30 3 1 3 4
M  V30 4 2 4 5
M  V30 5 1 5 6
M  V30 6 2 6 7
M  V30 7 1 7 8
M  V30 8 1 8 9
M  V30 9 2 9 10
M  V30 10 1 10 11
M  V30 11 2 11 12
M  V30 12 1 12 13
M  V30 13 2 13 14
M  V30 14 1 14 15
M  V30 15 1 15 16
M  V30 16 1 16 17
M  V30 17 2 16 18
M  V30 18 1 14 19
M  V30 19 2 19 20
M  V30 20 1 10 21
M  V30 21 2 21 22
M  V30 22 1 22 4
M  V30 23 1 21 7
M  V30 24 1 20 11
M  V30 25 1 1 23
M  V30 26 1 1 24
M  V30 27 1 1 25
M  V30 28 1 2 26
M  V30 29 1 2 27
M  V30 30 1 5 28
M  V30 31 1 6 29
M  V30 32 1 8 30
M  V30 33 1 12 31
M  V30 34 1 13 32
M  V30 35 1 15 33
M  V30 36 1 17 34
M  V30 37 1 17 35
M  V30 38 1 17 36
M  V30 39 1 19 37
M  V30 40 1 20 38
M  V30 41 1 22 39
M  V30 END BOND
M  V30 END CTAB
M  END
>  <Dataset>  (197) 
ChEMBL_Kinases

>  <Ligand_Instance>  (197) 
nan

>  <PDB_ID>  (197) 
nan

>  <Standardized_SMILES>  (197) 
CCOc1ccc2[nH]nc(-c3ccc(NC(C)=O)cc3)c2c1

>  <Name>  (197) 
nan

>  <Pocket>  (197) 
nan

>  <ATP_Site>  (197) 
nan

>  <Peripheral>  (197) 
nan

>  <Num_H_Atoms_ProtBoundConf>  (197) 
nan

>  <Num_Resolved_Atoms>  (197) 
nan

>  <Num_Not_Resolved_Atoms>  (197) 
nan

$$$$
CHEMBL2380575
     RDKit          3D

  0  0  0  0  0  0  0  0  0  0999 V3000
M  V30 BEGIN CTAB
M  V30 COUNTS 39 41 0 0 0
M  V30 BEGIN ATOM
M  V30 1 C -2.714588 -5.805252 1.869731 0
M  V30 2 C -1.980317 -5.026452 2.921538 0
M  V30 3 O -1.669479 -3.706471 2.527333 0
M  V30 4 C -0.880815 -3.468635 1.437816 0
M  V30 5 C -0.279789 -4.353589 0.580998 0
M  V30 6 C 0.495991 -3.961245 -0.487479 0
M  V30 7 C 0.716068 -2.627100 -0.760632 0
M  V30 8 N 1.401626 -1.972107 -1.696223 0
M  V30 9 N 1.248245 -0.675468 -1.450756 0
M  V30 10 C 0.470740 -0.487803 -0.366443 0
M  V30 11 C 0.134079 0.840541 0.136516 0
M  V30 12 C -1.170284 1.122578 0.488775 0
M  V30 13 C -1.439674 2.390491 0.960285 0
M  V30 14 C -0.452262 3.343097 1.077961 0
M  V30 15 C 0.855438 3.078263 0.730642 0
M  V30 16 N 1.799836 4.122422 0.886974 0
M  V30 17 C 3.190418 4.114469 0.607915 0
M  V30 18 C 4.096432 5.259388 0.805068 0
M  V30 19 O 3.721054 3.091764 0.165438 0
M  V30 20 C 1.093185 1.823355 0.269746 0
M  V30 21 C 0.107330 -1.727458 0.107315 0
M  V30 22 C -0.675761 -2.106064 1.186331 0
M  V30 23 H -2.222812 -6.768682 1.600110 0
M  V30 24 H -2.834283 -5.230062 0.922401 0
M  V30 25 H -3.763336 -6.060259 2.197246 0
M  V30 26 H -2.508816 -5.046889 3.904456 0
M  V30 27 H -1.001798 -5.570749 3.068257 0
M  V30 28 H -0.449692 -5.378750 0.795067 0
M  V30 29 H 0.932246 -4.710941 -1.112102 0
M  V30 30 H 1.925084 -2.486645 -2.436006 0
M  V30 31 H -1.983613 0.424976 0.419196 0
M  V30 32 H -2.432682 2.671862 1.250479 0
M  V30 33 H -0.722549 4.339556 1.460163 0
M  V30 34 H 1.499802 5.054783 1.253846 0
M  V30 35 H 3.636745 6.066557 1.413430 0
M  V30 36 H 4.490498 5.664440 -0.150076 0
M  V30 37 H 4.974574 4.907439 1.396487 0
M  V30 38 H 2.069784 1.539165 -0.018114 0
M  V30 39 H -1.089663 -1.325328 1.782426 0
M  V30 END ATOM
M  V30 BEGIN BOND
M  V30 1 1 1 2
M  V30 2 1 2 3
M  V30 3 1 3 4
M  V30 4 2 4 5
M  V30 5 1 5 6
M  V30 6 2 6 7
M  V30 7 1 7 8
M  V30 8 1 8 9
M  V30 9 2 9 10
M  V30 10 1 10 11
M  V30 11 2 11 12
M  V30 12 1 12 13
M  V30 13 2 13 14
M  V30 14 1 14 15
M  V30 15 1 15 16
M  V30 16 1 16 17
M  V30 17 1 17 18
M  V30 18 2 17 19
M  V30 19 2 15 20
M  V30 20 1 10 21
M  V30 21 2 21 22
M  V30 22 1 22 4
M  V30 23 1 21 7
M  V30 24 1 20 11
M  V30 25 1 1 23
M  V30 26 1 1 24
M  V30 27 1 1 25
M  V30 28 1 2 26
M  V30 29 1 2 27
M  V30 30 1 5 28
M  V30 31 1 6 29
M  V30 32 1 8 30
M  V30 33 1 12 31
M  V30 34 1 13 32
M  V30 35 1 14 33
M  V30 36 1 16 34
M  V30 37 1 18 35
M  V30 38 1 18 36
M  V30 39 1 18 37
M  V30 40 1 20 38
M  V30 41 1 22 39
M  V30 END BOND
M  V30 END CTAB
M  END
>  <Dataset>  (198) 
ChEMBL_Kinases

>  <Ligand_Instance>  (198) 
nan

>  <PDB_ID>  (198) 
nan

>  <Standardized_SMILES>  (198) 
CCOc1ccc2[nH]nc(-c3cccc(NC(C)=O)c3)c2c1

>  <Name>  (198) 
nan

>  <Pocket>  (198) 
nan

>  <ATP_Site>  (198) 
nan

>  <Peripheral>  (198) 
nan

>  <Num_H_Atoms_ProtBoundConf>  (198) 
nan

>  <Num_Resolved_Atoms>  (198) 
nan

>  <Num_Not_Resolved_Atoms>  (198) 
nan

$$$$
CHEMBL2380576
     RDKit          3D

  0  0  0  0  0  0  0  0  0  0999 V3000
M  V30 BEGIN CTAB
M  V30 COUNTS 36 38 0 0 0
M  V30 BEGIN ATOM
M  V30 1 C -1.699513 -3.180950 1.252099 0
M  V30 2 C -0.748051 -4.115644 0.573962 0
M  V30 3 O 0.550135 -4.096618 1.132856 0
M  V30 4 C 1.338519 -2.964392 1.182353 0
M  V30 5 C 2.563192 -3.235326 1.784424 0
M  V30 6 C 3.523345 -2.240791 1.944150 0
M  V30 7 C 3.256618 -0.949846 1.494253 0
M  V30 8 N 3.912281 0.232842 1.473017 0
M  V30 9 N 3.144376 1.160146 0.899505 0
M  V30 10 C 1.964612 0.630195 0.524181 0
M  V30 11 C 0.862038 1.328224 -0.135382 0
M  V30 12 C 1.169569 2.174089 -1.194142 0
M  V30 13 C 0.222478 2.904129 -1.916468 0
M  V30 14 C -1.104316 2.753601 -1.527195 0
M  V30 15 C -1.406902 1.913215 -0.475759 0
M  V30 16 C -2.818715 1.807514 -0.126617 0
M  V30 17 N -3.339316 1.000235 0.919958 0
M  V30 18 O -3.671166 2.465377 -0.777941 0
M  V30 19 C -0.463046 1.196185 0.231544 0
M  V30 20 C 2.037006 -0.697210 0.899112 0
M  V30 21 C 1.084246 -1.682121 0.740108 0
M  V30 22 H -2.531326 -3.734593 1.702178 0
M  V30 23 H -2.143096 -2.441734 0.524004 0
M  V30 24 H -1.177958 -2.600780 2.041883 0
M  V30 25 H -1.147852 -5.140419 0.635435 0
M  V30 26 H -0.681414 -3.816862 -0.507215 0
M  V30 27 H 2.896845 -4.185626 2.175248 0
M  V30 28 H 4.486684 -2.397182 2.403066 0
M  V30 29 H 4.873282 0.275894 1.879308 0
M  V30 30 H 2.209642 2.284828 -1.490624 0
M  V30 31 H 0.558900 3.526991 -2.713458 0
M  V30 32 H -1.845465 3.303199 -2.066541 0
M  V30 33 H -3.189845 1.339061 1.908761 0
M  V30 34 H -3.869928 0.100486 1.059935 0
M  V30 35 H -0.710626 0.539846 1.054491 0
M  V30 36 H 0.108435 -1.582835 0.290494 0
M  V30 END ATOM
M  V30 BEGIN BOND
M  V30 1 1 1 2
M  V30 2 1 2 3
M  V30 3 1 3 4
M  V30 4 2 4 5
M  V30 5 1 5 6
M  V30 6 2 6 7
M  V30 7 1 7 8
M  V30 8 1 8 9
M  V30 9 2 9 10
M  V30 10 1 10 11
M  V30 11 2 11 12
M  V30 12 1 12 13
M  V30 13 2 13 14
M  V30 14 1 14 15
M  V30 15 1 15 16
M  V30 16 1 16 17
M  V30 17 2 16 18
M  V30 18 2 15 19
M  V30 19 1 10 20
M  V30 20 2 20 21
M  V30 21 1 21 4
M  V30 22 1 20 7
M  V30 23 1 19 11
M  V30 24 1 1 22
M  V30 25 1 1 23
M  V30 26 1 1 24
M  V30 27 1 2 25
M  V30 28 1 2 26
M  V30 29 1 5 27
M  V30 30 1 6 28
M  V30 31 1 8 29
M  V30 32 1 12 30
M  V30 33 1 13 31
M  V30 34 1 14 32
M  V30 35 1 17 33
M  V30 36 1 17 34
M  V30 37 1 19 35
M  V30 38 1 21 36
M  V30 END BOND
M  V30 END CTAB
M  END
>  <Dataset>  (199) 
ChEMBL_Kinases

>  <Ligand_Instance>  (199) 
nan

>  <PDB_ID>  (199) 
nan

>  <Standardized_SMILES>  (199) 
CCOc1ccc2[nH]nc(-c3cccc(C(N)=O)c3)c2c1

>  <Name>  (199) 
nan

>  <Pocket>  (199) 
nan

>  <ATP_Site>  (199) 
nan

>  <Peripheral>  (199) 
nan

>  <Num_H_Atoms_ProtBoundConf>  (199) 
nan

>  <Num_Resolved_Atoms>  (199) 
nan

>  <Num_Not_Resolved_Atoms>  (199) 
nan

$$$$
CHEMBL3698672
     RDKit          3D

  0  0  0  0  0  0  0  0  0  0999 V3000
M  V30 BEGIN CTAB
M  V30 COUNTS 58 63 0 0 0
M  V30 BEGIN ATOM
M  V30 1 C 4.795428 -5.384769 1.838428 0
M  V30 2 C 4.097077 -6.146799 0.912356 0
M  V30 3 C 3.259110 -5.465094 0.054436 0
M  V30 4 C 3.062715 -4.100237 0.044571 0
M  V30 5 C 3.800079 -3.432939 1.000546 0
M  V30 6 C 4.664823 -4.013024 1.905464 0
M  V30 7 C 3.505749 -2.090491 0.874710 0
M  V30 8 C 3.853674 -0.883027 1.467887 0
M  V30 9 N 3.338523 0.290318 1.060899 0
M  V30 10 C 2.448825 0.321019 0.040368 0
M  V30 11 N 1.850219 1.532793 -0.456108 0
M  V30 12 C 0.636862 1.933280 0.170661 0
M  V30 13 C -0.048237 3.070382 -0.200362 0
M  V30 14 C -1.221074 3.499813 0.373866 0
M  V30 15 C -1.783868 2.768007 1.396985 0
M  V30 16 N -2.982228 3.071301 2.090761 0
M  V30 17 C -3.615510 2.373345 3.183314 0
M  V30 18 C -4.894964 1.717502 2.724230 0
M  V30 19 N -5.567967 2.442525 1.693112 0
M  V30 20 C -5.284790 3.835980 1.644459 0
M  V30 21 C -3.828131 4.204719 1.799215 0
M  V30 22 C -1.087368 1.634242 1.756224 0
M  V30 23 N 0.056393 1.246944 1.171184 0
M  V30 24 N 2.095304 -0.842135 -0.552329 0
M  V30 25 C 2.597407 -2.027892 -0.162356 0
M  V30 26 N 2.320583 -3.241554 -0.674492 0
M  V30 27 C 1.478181 -3.721521 -1.723779 0
M  V30 28 C 0.301245 -4.544314 -1.264936 0
M  V30 29 C -0.868698 -4.174367 -2.161182 0
M  V30 30 C -0.353931 -3.185724 -3.181087 0
M  V30 31 C 0.783433 -2.539135 -2.395656 0
M  V30 32 H 5.466771 -5.864561 2.536242 0
M  V30 33 H 4.202246 -7.223527 0.862783 0
M  V30 34 H 2.727459 -6.092059 -0.657961 0
M  V30 35 H 5.210887 -3.425987 2.628185 0
M  V30 36 H 4.563651 -0.938874 2.277378 0
M  V30 37 H 2.212628 2.133366 -1.215320 0
M  V30 38 H 0.332543 3.704255 -1.003543 0
M  V30 39 H -1.730515 4.393644 0.059738 0
M  V30 40 H -2.896537 1.645848 3.608670 0
M  V30 41 H -3.853978 3.049986 4.056602 0
M  V30 42 H -5.527480 1.554621 3.624845 0
M  V30 43 H -4.631143 0.712369 2.336066 0
M  V30 44 H -5.654477 1.953092 0.780985 0
M  V30 45 H -5.595825 4.198398 0.625088 0
M  V30 46 H -5.960018 4.363884 2.345639 0
M  V30 47 H -3.467212 4.851428 0.983358 0
M  V30 48 H -3.794683 4.869457 2.713142 0
M  V30 49 H -1.354732 0.927156 2.527538 0
M  V30 50 H 2.063108 -4.229491 -2.513353 0
M  V30 51 H 0.000835 -4.313339 -0.232412 0
M  V30 52 H 0.513119 -5.615338 -1.461750 0
M  V30 53 H -1.723476 -3.755158 -1.578581 0
M  V30 54 H -1.281520 -5.047338 -2.716743 0
M  V30 55 H -1.176236 -2.473128 -3.393544 0
M  V30 56 H -0.022407 -3.680276 -4.096613 0
M  V30 57 H 0.263680 -1.923726 -1.605664 0
M  V30 58 H 1.449052 -1.961699 -3.034893 0
M  V30 END ATOM
M  V30 BEGIN BOND
M  V30 1 2 1 2
M  V30 2 1 2 3
M  V30 3 2 3 4
M  V30 4 1 4 5
M  V30 5 2 5 6
M  V30 6 1 5 7
M  V30 7 2 7 8
M  V30 8 1 8 9
M  V30 9 2 9 10
M  V30 10 1 10 11
M  V30 11 1 11 12
M  V30 12 2 12 13
M  V30 13 1 13 14
M  V30 14 2 14 15
M  V30 15 1 15 16
M  V30 16 1 16 17
M  V30 17 1 17 18
M  V30 18 1 18 19
M  V30 19 1 19 20
M  V30 20 1 20 21
M  V30 21 1 15 22
M  V30 22 2 22 23
M  V30 23 1 10 24
M  V30 24 2 24 25
M  V30 25 1 25 26
M  V30 26 1 26 27
M  V30 27 1 27 28
M  V30 28 1 28 29
M  V30 29 1 29 30
M  V30 30 1 30 31
M  V30 31 1 6 1
M  V30 32 1 25 7
M  V30 33 1 31 27
M  V30 34 1 26 4
M  V30 35 1 23 12
M  V30 36 1 21 16
M  V30 37 1 1 32
M  V30 38 1 2 33
M  V30 39 1 3 34
M  V30 40 1 6 35
M  V30 41 1 8 36
M  V30 42 1 11 37
M  V30 43 1 13 38
M  V30 44 1 14 39
M  V30 45 1 17 40
M  V30 46 1 17 41
M  V30 47 1 18 42
M  V30 48 1 18 43
M  V30 49 1 19 44
M  V30 50 1 20 45
M  V30 51 1 20 46
M  V30 52 1 21 47
M  V30 53 1 21 48
M  V30 54 1 22 49
M  V30 55 1 27 50
M  V30 56 1 28 51
M  V30 57 1 28 52
M  V30 58 1 29 53
M  V30 59 1 29 54
M  V30 60 1 30 55
M  V30 61 1 30 56
M  V30 62 1 31 57
M  V30 63 1 31 58
M  V30 END BOND
M  V30 END CTAB
M  END
>  <Dataset>  (200) 
ChEMBL_Kinases

>  <Ligand_Instance>  (200) 
nan

>  <PDB_ID>  (200) 
nan

>  <Standardized_SMILES>  (200) 
c1ccc2c(c1)c1cnc(Nc3ccc(N4CCNCC4)cn3)nc1n2C1CCCC1

>  <Name>  (200) 
nan

>  <Pocket>  (200) 
nan

>  <ATP_Site>  (200) 
nan

>  <Peripheral>  (200) 
nan

>  <Num_H_Atoms_ProtBoundConf>  (200) 
nan

>  <Num_Resolved_Atoms>  (200) 
nan

>  <Num_Not_Resolved_Atoms>  (200) 
nan

$$$$
CHEMBL3698678
     RDKit          3D

  0  0  0  0  0  0  0  0  0  0999 V3000
M  V30 BEGIN CTAB
M  V30 COUNTS 58 63 0 0 0
M  V30 BEGIN ATOM
M  V30 1 O 5.386000 -6.274683 3.451663 0
M  V30 2 C 4.309164 -5.775742 2.758326 0
M  V30 3 C 4.397331 -4.540550 2.137143 0
M  V30 4 C 3.285079 -4.106878 1.464355 0
M  V30 5 C 3.038321 -2.942125 0.746923 0
M  V30 6 C 3.812162 -1.838711 0.467173 0
M  V30 7 N 3.352982 -0.807688 -0.264691 0
M  V30 8 C 2.075962 -0.874234 -0.737376 0
M  V30 9 N 1.349873 0.057467 -1.527143 0
M  V30 10 C 0.577544 1.129815 -1.007341 0
M  V30 11 C 0.485244 1.345115 0.351424 0
M  V30 12 C -0.284913 2.410329 0.793419 0
M  V30 13 C -0.947295 3.242392 -0.080066 0
M  V30 14 N -1.729310 4.330303 0.385666 0
M  V30 15 C -1.871189 4.703089 1.781024 0
M  V30 16 C -3.327676 4.345938 2.112509 0
M  V30 17 N -4.168411 5.150788 1.247831 0
M  V30 18 C -3.957555 4.859319 -0.149171 0
M  V30 19 C -2.498482 5.219689 -0.463365 0
M  V30 20 C -0.813219 2.971776 -1.422542 0
M  V30 21 N -0.061954 1.931647 -1.868851 0
M  V30 22 N 1.318170 -1.955676 -0.462869 0
M  V30 23 C 1.749883 -3.003771 0.267050 0
M  V30 24 N 1.171705 -4.174853 0.659510 0
M  V30 25 C -0.171702 -4.609921 0.353959 0
M  V30 26 C -1.209798 -3.540381 0.455023 0
M  V30 27 C -2.008884 -3.568180 -0.838840 0
M  V30 28 C -1.026127 -4.151811 -1.831964 0
M  V30 29 C -0.303094 -5.179217 -1.027888 0
M  V30 30 C 2.107262 -4.821956 1.375834 0
M  V30 31 C 2.104278 -6.047529 2.025841 0
M  V30 32 N 3.176261 -6.520310 2.703356 0
M  V30 33 H 5.339409 -7.023609 4.110671 0
M  V30 34 H 5.303960 -3.937864 2.177387 0
M  V30 35 H 4.835543 -1.737232 0.820428 0
M  V30 36 H 1.436372 -0.119667 -2.537572 0
M  V30 37 H 1.010213 0.682922 1.000038 0
M  V30 38 H -0.315504 2.521586 1.852836 0
M  V30 39 H -1.787302 5.815901 1.896266 0
M  V30 40 H -1.160384 4.246654 2.461963 0
M  V30 41 H -3.439134 3.295036 1.813719 0
M  V30 42 H -3.559536 4.582758 3.152429 0
M  V30 43 H -5.167906 5.117761 1.490152 0
M  V30 44 H -4.142269 3.780888 -0.279005 0
M  V30 45 H -4.609928 5.479811 -0.759784 0
M  V30 46 H -2.283372 5.161185 -1.523737 0
M  V30 47 H -2.399254 6.278211 -0.138732 0
M  V30 48 H -1.278294 3.545111 -2.183938 0
M  V30 49 H -0.425761 -5.400911 1.104907 0
M  V30 50 H -1.973162 -3.760225 1.257949 0
M  V30 51 H -0.734905 -2.551134 0.580506 0
M  V30 52 H -2.875908 -4.246549 -0.794689 0
M  V30 53 H -2.290128 -2.534423 -1.142849 0
M  V30 54 H -1.553321 -4.588622 -2.705951 0
M  V30 55 H -0.407648 -3.317135 -2.196689 0
M  V30 56 H -0.975732 -6.075652 -0.973819 0
M  V30 57 H 0.647541 -5.536730 -1.466243 0
M  V30 58 H 1.233402 -6.679378 2.015101 0
M  V30 END ATOM
M  V30 BEGIN BOND
M  V30 1 1 1 2
M  V30 2 2 2 3
M  V30 3 1 3 4
M  V30 4 1 4 5
M  V30 5 2 5 6
M  V30 6 1 6 7
M  V30 7 2 7 8
M  V30 8 1 8 9
M  V30 9 1 9 10
M  V30 10 2 10 11
M  V30 11 1 11 12
M  V30 12 2 12 13
M  V30 13 1 13 14
M  V30 14 1 14 15
M  V30 15 1 15 16
M  V30 16 1 16 17
M  V30 17 1 17 18
M  V30 18 1 18 19
M  V30 19 1 13 20
M  V30 20 2 20 21
M  V30 21 1 8 22
M  V30 22 2 22 23
M  V30 23 1 23 24
M  V30 24 1 24 25
M  V30 25 1 25 26
M  V30 26 1 26 27
M  V30 27 1 27 28
M  V30 28 1 28 29
M  V30 29 1 24 30
M  V30 30 1 30 31
M  V30 31 2 31 32
M  V30 32 1 32 2
M  V30 33 2 30 4
M  V30 34 1 23 5
M  V30 35 1 29 25
M  V30 36 1 21 10
M  V30 37 1 19 14
M  V30 38 1 1 33
M  V30 39 1 3 34
M  V30 40 1 6 35
M  V30 41 1 9 36
M  V30 42 1 11 37
M  V30 43 1 12 38
M  V30 44 1 15 39
M  V30 45 1 15 40
M  V30 46 1 16 41
M  V30 47 1 16 42
M  V30 48 1 17 43
M  V30 49 1 18 44
M  V30 50 1 18 45
M  V30 51 1 19 46
M  V30 52 1 19 47
M  V30 53 1 20 48
M  V30 54 1 25 49
M  V30 55 1 26 50
M  V30 56 1 26 51
M  V30 57 1 27 52
M  V30 58 1 27 53
M  V30 59 1 28 54
M  V30 60 1 28 55
M  V30 61 1 29 56
M  V30 62 1 29 57
M  V30 63 1 31 58
M  V30 END BOND
M  V30 END CTAB
M  END
>  <Dataset>  (201) 
ChEMBL_Kinases

>  <Ligand_Instance>  (201) 
nan

>  <PDB_ID>  (201) 
nan

>  <Standardized_SMILES>  (201) 
Oc1cc2c3cnc(Nc4ccc(N5CCNCC5)cn4)nc3n(C3CCCC3)c2cn1

>  <Name>  (201) 
nan

>  <Pocket>  (201) 
nan

>  <ATP_Site>  (201) 
nan

>  <Peripheral>  (201) 
nan

>  <Num_H_Atoms_ProtBoundConf>  (201) 
nan

>  <Num_Resolved_Atoms>  (201) 
nan

>  <Num_Not_Resolved_Atoms>  (201) 
nan

$$$$
CHEMBL3698677
     RDKit          3D

  0  0  0  0  0  0  0  0  0  0999 V3000
M  V30 BEGIN CTAB
M  V30 COUNTS 61 66 0 0 0
M  V30 BEGIN ATOM
M  V30 1 C 4.272024 -0.734028 7.282223 0
M  V30 2 O 3.655479 -1.594312 6.537488 0
M  V30 3 C 3.040623 -2.549135 5.902077 0
M  V30 4 C 2.913148 -1.769708 4.705613 0
M  V30 5 C 2.318624 -2.109495 3.453448 0
M  V30 6 C 2.045605 -1.621019 2.170219 0
M  V30 7 C 2.402170 -0.362663 1.747110 0
M  V30 8 N 2.043564 -0.100203 0.461588 0
M  V30 9 C 1.392082 -1.040908 -0.285534 0
M  V30 10 N 1.165499 -0.461667 -1.562482 0
M  V30 11 C 0.077373 0.439572 -1.812577 0
M  V30 12 C -0.143162 1.025614 -3.040156 0
M  V30 13 C -1.171560 1.904908 -3.307299 0
M  V30 14 C -2.043149 2.223262 -2.281897 0
M  V30 15 N -3.109202 3.136810 -2.504165 0
M  V30 16 C -4.220388 3.521142 -1.658712 0
M  V30 17 C -5.521420 2.991135 -2.223928 0
M  V30 18 N -5.745765 3.667347 -3.484324 0
M  V30 19 C -4.644654 4.497723 -3.871967 0
M  V30 20 C -3.290385 3.916088 -3.685343 0
M  V30 21 C -1.824236 1.639205 -1.055014 0
M  V30 22 N -0.810020 0.784274 -0.826266 0
M  V30 23 N 1.089345 -2.246486 0.228037 0
M  V30 24 C 1.395683 -2.606299 1.477753 0
M  V30 25 N 1.240135 -3.692457 2.241676 0
M  V30 26 C 0.604895 -4.925299 1.868860 0
M  V30 27 C -0.117470 -4.868870 0.576507 0
M  V30 28 C 0.835424 -5.344103 -0.464045 0
M  V30 29 C 2.132503 -5.684061 0.258779 0
M  V30 30 C 1.628287 -6.017550 1.655487 0
M  V30 31 C 1.786829 -3.415147 3.426946 0
M  V30 32 C 1.898496 -4.176038 4.563358 0
M  V30 33 N 2.496657 -3.625578 5.594131 0
M  V30 34 H 4.091302 0.380114 7.038414 0
M  V30 35 H 4.002769 -0.745269 8.401966 0
M  V30 36 H 5.420991 -0.814941 7.333295 0
M  V30 37 H 3.244597 -0.722223 4.472657 0
M  V30 38 H 2.925540 0.354781 2.388647 0
M  V30 39 H 1.777133 -0.662457 -2.387138 0
M  V30 40 H 0.557645 0.766708 -3.847550 0
M  V30 41 H -1.242815 2.297525 -4.306942 0
M  V30 42 H -4.094071 2.979433 -0.674010 0
M  V30 43 H -4.337857 4.591960 -1.491439 0
M  V30 44 H -6.377947 3.173398 -1.568830 0
M  V30 45 H -5.398688 1.922201 -2.411303 0
M  V30 46 H -6.150613 3.074613 -4.216870 0
M  V30 47 H -4.746011 5.491418 -3.339293 0
M  V30 48 H -4.769048 4.744504 -4.956223 0
M  V30 49 H -2.575071 4.797095 -3.614776 0
M  V30 50 H -2.963563 3.346149 -4.571722 0
M  V30 51 H -2.464733 1.844580 -0.210470 0
M  V30 52 H -0.060407 -5.320992 2.680762 0
M  V30 53 H -0.602026 -3.899045 0.348978 0
M  V30 54 H -0.989281 -5.589881 0.655193 0
M  V30 55 H 0.961866 -4.604609 -1.267378 0
M  V30 56 H 0.461544 -6.322977 -0.904190 0
M  V30 57 H 2.665707 -6.540978 -0.189024 0
M  V30 58 H 2.800520 -4.806293 0.339026 0
M  V30 59 H 2.428244 -6.018682 2.402961 0
M  V30 60 H 1.078960 -6.993861 1.560961 0
M  V30 61 H 1.534466 -5.184937 4.682138 0
M  V30 END ATOM
M  V30 BEGIN BOND
M  V30 1 1 1 2
M  V30 2 1 2 3
M  V30 3 2 3 4
M  V30 4 1 4 5
M  V30 5 1 5 6
M  V30 6 2 6 7
M  V30 7 1 7 8
M  V30 8 2 8 9
M  V30 9 1 9 10
M  V30 10 1 10 11
M  V30 11 2 11 12
M  V30 12 1 12 13
M  V30 13 2 13 14
M  V30 14 1 14 15
M  V30 15 1 15 16
M  V30 16 1 16 17
M  V30 17 1 17 18
M  V30 18 1 18 19
M  V30 19 1 19 20
M  V30 20 1 14 21
M  V30 21 2 21 22
M  V30 22 1 9 23
M  V30 23 2 23 24
M  V30 24 1 24 25
M  V30 25 1 25 26
M  V30 26 1 26 27
M  V30 27 1 27 28
M  V30 28 1 28 29
M  V30 29 1 29 30
M  V30 30 1 25 31
M  V30 31 1 31 32
M  V30 32 2 32 33
M  V30 33 1 33 3
M  V30 34 2 31 5
M  V30 35 1 24 6
M  V30 36 1 30 26
M  V30 37 1 22 11
M  V30 38 1 20 15
M  V30 39 1 1 34
M  V30 40 1 1 35
M  V30 41 1 1 36
M  V30 42 1 4 37
M  V30 43 1 7 38
M  V30 44 1 10 39
M  V30 45 1 12 40
M  V30 46 1 13 41
M  V30 47 1 16 42
M  V30 48 1 16 43
M  V30 49 1 17 44
M  V30 50 1 17 45
M  V30 51 1 18 46
M  V30 52 1 19 47
M  V30 53 1 19 48
M  V30 54 1 20 49
M  V30 55 1 20 50
M  V30 56 1 21 51
M  V30 57 1 26 52
M  V30 58 1 27 53
M  V30 59 1 27 54
M  V30 60 1 28 55
M  V30 61 1 28 56
M  V30 62 1 29 57
M  V30 63 1 29 58
M  V30 64 1 30 59
M  V30 65 1 30 60
M  V30 66 1 32 61
M  V30 END BOND
M  V30 END CTAB
M  END
>  <Dataset>  (202) 
ChEMBL_Kinases

>  <Ligand_Instance>  (202) 
nan

>  <PDB_ID>  (202) 
nan

>  <Standardized_SMILES>  (202) 
COc1cc2c3cnc(Nc4ccc(N5CCNCC5)cn4)nc3n(C3CCCC3)c2cn1

>  <Name>  (202) 
nan

>  <Pocket>  (202) 
nan

>  <ATP_Site>  (202) 
nan

>  <Peripheral>  (202) 
nan

>  <Num_H_Atoms_ProtBoundConf>  (202) 
nan

>  <Num_Resolved_Atoms>  (202) 
nan

>  <Num_Not_Resolved_Atoms>  (202) 
nan

$$$$
CHEMBL3698676
     RDKit          3D

  0  0  0  0  0  0  0  0  0  0999 V3000
M  V30 BEGIN CTAB
M  V30 COUNTS 59 64 0 0 0
M  V30 BEGIN ATOM
M  V30 1 N 3.595236 -8.531451 1.506270 0
M  V30 2 C 3.659028 -7.366341 1.457542 0
M  V30 3 C 3.742610 -5.926023 1.421058 0
M  V30 4 C 4.650446 -5.217899 2.180777 0
M  V30 5 C 4.680781 -3.829610 2.099691 0
M  V30 6 C 3.789086 -3.215314 1.250986 0
M  V30 7 C 3.588582 -1.886913 0.964551 0
M  V30 8 C 4.163509 -0.709041 1.390518 0
M  V30 9 N 3.783551 0.505014 0.953406 0
M  V30 10 C 2.783354 0.636609 0.041846 0
M  V30 11 N 2.121389 1.706541 -0.619789 0
M  V30 12 C 0.841761 2.090216 -0.102319 0
M  V30 13 C 0.091103 3.095117 -0.663442 0
M  V30 14 C -1.147249 3.482117 -0.195251 0
M  V30 15 C -1.669947 2.820961 0.906109 0
M  V30 16 N -2.947360 3.056271 1.531673 0
M  V30 17 C -3.354275 2.496696 2.804656 0
M  V30 18 C -4.397269 1.425677 2.518984 0
M  V30 19 N -5.008365 1.678430 1.249287 0
M  V30 20 C -5.259595 3.061241 0.969751 0
M  V30 21 C -3.992338 3.893087 0.911875 0
M  V30 22 C -0.919248 1.810306 1.474811 0
M  V30 23 N 0.286632 1.470915 0.978307 0
M  V30 24 N 2.225094 -0.514780 -0.370950 0
M  V30 25 C 2.585642 -1.739612 0.050151 0
M  V30 26 N 2.144965 -3.001196 -0.244588 0
M  V30 27 C 1.118433 -3.414440 -1.123575 0
M  V30 28 C -0.107192 -4.002623 -0.522050 0
M  V30 29 C -1.171223 -3.767005 -1.575608 0
M  V30 30 C -0.737649 -2.621075 -2.441048 0
M  V30 31 C 0.522913 -2.149208 -1.762686 0
M  V30 32 C 2.870096 -3.883018 0.477848 0
M  V30 33 C 2.869493 -5.262613 0.584941 0
M  V30 34 H 5.308168 -5.794930 2.815920 0
M  V30 35 H 5.408142 -3.276366 2.708829 0
M  V30 36 H 4.963550 -0.689414 2.110121 0
M  V30 37 H 2.473293 2.244530 -1.435533 0
M  V30 38 H 0.503701 3.611595 -1.524107 0
M  V30 39 H -1.759233 4.261864 -0.607532 0
M  V30 40 H -2.546225 2.134453 3.435362 0
M  V30 41 H -3.833782 3.335017 3.389346 0
M  V30 42 H -3.821537 0.463041 2.438587 0
M  V30 43 H -5.124140 1.347229 3.364692 0
M  V30 44 H -4.545428 1.180496 0.463749 0
M  V30 45 H -5.753146 3.105456 -0.019961 0
M  V30 46 H -5.988470 3.468339 1.696959 0
M  V30 47 H -4.117813 4.855630 1.403051 0
M  V30 48 H -3.713411 3.976049 -0.158487 0
M  V30 49 H -1.142456 1.197378 2.308058 0
M  V30 50 H 1.459600 -4.105504 -1.929922 0
M  V30 51 H -0.470686 -3.466132 0.374553 0
M  V30 52 H -0.087362 -5.103347 -0.382549 0
M  V30 53 H -2.168759 -3.593022 -1.107493 0
M  V30 54 H -1.296437 -4.664882 -2.237701 0
M  V30 55 H -1.538837 -1.851034 -2.408570 0
M  V30 56 H -0.510876 -2.897134 -3.479742 0
M  V30 57 H 1.233471 -1.624322 -2.388339 0
M  V30 58 H 0.175735 -1.505722 -0.914767 0
M  V30 59 H 2.159816 -5.815240 -0.008711 0
M  V30 END ATOM
M  V30 BEGIN BOND
M  V30 1 3 1 2
M  V30 2 1 2 3
M  V30 3 2 3 4
M  V30 4 1 4 5
M  V30 5 2 5 6
M  V30 6 1 6 7
M  V30 7 2 7 8
M  V30 8 1 8 9
M  V30 9 2 9 10
M  V30 10 1 10 11
M  V30 11 1 11 12
M  V30 12 2 12 13
M  V30 13 1 13 14
M  V30 14 2 14 15
M  V30 15 1 15 16
M  V30 16 1 16 17
M  V30 17 1 17 18
M  V30 18 1 18 19
M  V30 19 1 19 20
M  V30 20 1 20 21
M  V30 21 1 15 22
M  V30 22 2 22 23
M  V30 23 1 10 24
M  V30 24 2 24 25
M  V30 25 1 25 26
M  V30 26 1 26 27
M  V30 27 1 27 28
M  V30 28 1 28 29
M  V30 29 1 29 30
M  V30 30 1 30 31
M  V30 31 1 26 32
M  V30 32 2 32 33
M  V30 33 1 33 3
M  V30 34 1 32 6
M  V30 35 1 25 7
M  V30 36 1 31 27
M  V30 37 1 23 12
M  V30 38 1 21 16
M  V30 39 1 4 34
M  V30 40 1 5 35
M  V30 41 1 8 36
M  V30 42 1 11 37
M  V30 43 1 13 38
M  V30 44 1 14 39
M  V30 45 1 17 40
M  V30 46 1 17 41
M  V30 47 1 18 42
M  V30 48 1 18 43
M  V30 49 1 19 44
M  V30 50 1 20 45
M  V30 51 1 20 46
M  V30 52 1 21 47
M  V30 53 1 21 48
M  V30 54 1 22 49
M  V30 55 1 27 50
M  V30 56 1 28 51
M  V30 57 1 28 52
M  V30 58 1 29 53
M  V30 59 1 29 54
M  V30 60 1 30 55
M  V30 61 1 30 56
M  V30 62 1 31 57
M  V30 63 1 31 58
M  V30 64 1 33 59
M  V30 END BOND
M  V30 END CTAB
M  END
>  <Dataset>  (203) 
ChEMBL_Kinases

>  <Ligand_Instance>  (203) 
nan

>  <PDB_ID>  (203) 
nan

>  <Standardized_SMILES>  (203) 
N#Cc1ccc2c3cnc(Nc4ccc(N5CCNCC5)cn4)nc3n(C3CCCC3)c2c1

>  <Name>  (203) 
nan

>  <Pocket>  (203) 
nan

>  <ATP_Site>  (203) 
nan

>  <Peripheral>  (203) 
nan

>  <Num_H_Atoms_ProtBoundConf>  (203) 
nan

>  <Num_Resolved_Atoms>  (203) 
nan

>  <Num_Not_Resolved_Atoms>  (203) 
nan

$$$$
CHEMBL3700416
     RDKit          3D

  0  0  0  0  0  0  0  0  0  0999 V3000
M  V30 BEGIN CTAB
M  V30 COUNTS 43 46 0 0 0
M  V30 BEGIN ATOM
M  V30 1 O 4.791628 -1.577153 4.126763 0
M  V30 2 C 3.940241 -2.501949 4.278648 0
M  V30 3 O 4.325315 -3.241799 5.375823 0
M  V30 4 C 2.777484 -2.711270 3.425338 0
M  V30 5 C 1.890715 -3.735815 3.645263 0
M  V30 6 C 0.815311 -3.865167 2.791353 0
M  V30 7 C 0.672059 -2.972065 1.761153 0
M  V30 8 C 1.548233 -1.936779 1.520724 0
M  V30 9 C 2.634899 -1.812158 2.389704 0
M  V30 10 N 1.419567 -1.055460 0.515691 0
M  V30 11 C 0.398898 -1.118220 -0.355226 0
M  V30 12 N 0.313985 -0.165587 -1.400104 0
M  V30 13 C 1.296738 0.879382 -1.547232 0
M  V30 14 C 1.366317 1.831960 -0.403487 0
M  V30 15 C 0.093654 2.545831 -0.155835 0
M  V30 16 C -0.902304 2.092572 0.684403 0
M  V30 17 C -2.081917 2.793294 0.889010 0
M  V30 18 C -2.298218 4.004161 0.235088 0
M  V30 19 C -1.283698 4.423352 -0.593649 0
M  V30 20 Cl -1.534243 5.942771 -1.425733 0
M  V30 21 C -0.109889 3.749229 -0.812037 0
M  V30 22 C -0.486617 -2.144723 -0.132177 0
M  V30 23 C -1.561558 -2.276973 -0.982753 0
M  V30 24 C -2.501055 -3.275139 -0.837617 0
M  V30 25 N -2.356334 -4.148126 0.173711 0
M  V30 26 C -1.306297 -4.055276 1.041172 0
M  V30 27 C -0.378738 -3.060548 0.888570 0
M  V30 28 H 4.511902 -2.800976 6.275269 0
M  V30 29 H 2.048608 -4.403615 4.462036 0
M  V30 30 H 0.152192 -4.681631 3.006468 0
M  V30 31 H 3.349159 -0.997826 2.223545 0
M  V30 32 H -0.432009 -0.132024 -2.125509 0
M  V30 33 H 2.300958 0.353610 -1.563490 0
M  V30 34 H 1.257269 1.382763 -2.530549 0
M  V30 35 H 2.168926 2.574330 -0.607474 0
M  V30 36 H 1.676051 1.283466 0.504568 0
M  V30 37 H -0.747974 1.145400 1.204135 0
M  V30 38 H -2.814727 2.367210 1.566387 0
M  V30 39 H -3.218096 4.549808 0.395147 0
M  V30 40 H 0.634794 4.173911 -1.495084 0
M  V30 41 H -1.725592 -1.613369 -1.800892 0
M  V30 42 H -3.341862 -3.371931 -1.509632 0
M  V30 43 H -1.328808 -4.816853 1.787301 0
M  V30 END ATOM
M  V30 BEGIN BOND
M  V30 1 2 1 2
M  V30 2 1 2 3
M  V30 3 1 2 4
M  V30 4 2 4 5
M  V30 5 1 5 6
M  V30 6 2 6 7
M  V30 7 1 7 8
M  V30 8 2 8 9
M  V30 9 1 8 10
M  V30 10 2 10 11
M  V30 11 1 11 12
M  V30 12 1 12 13
M  V30 13 1 13 14
M  V30 14 1 14 15
M  V30 15 2 15 16
M  V30 16 1 16 17
M  V30 17 2 17 18
M  V30 18 1 18 19
M  V30 19 1 19 20
M  V30 20 2 19 21
M  V30 21 1 11 22
M  V30 22 2 22 23
M  V30 23 1 23 24
M  V30 24 2 24 25
M  V30 25 1 25 26
M  V30 26 2 26 27
M  V30 27 1 9 4
M  V30 28 1 21 15
M  V30 29 1 27 22
M  V30 30 1 27 7
M  V30 31 1 3 28
M  V30 32 1 5 29
M  V30 33 1 6 30
M  V30 34 1 9 31
M  V30 35 1 12 32
M  V30 36 1 13 33
M  V30 37 1 13 34
M  V30 38 1 14 35
M  V30 39 1 14 36
M  V30 40 1 16 37
M  V30 41 1 17 38
M  V30 42 1 18 39
M  V30 43 1 21 40
M  V30 44 1 23 41
M  V30 45 1 24 42
M  V30 46 1 26 43
M  V30 END BOND
M  V30 END CTAB
M  END
>  <Dataset>  (204) 
ChEMBL_Kinases

>  <Ligand_Instance>  (204) 
nan

>  <PDB_ID>  (204) 
nan

>  <Standardized_SMILES>  (204) 
O=C(O)c1ccc2c(c1)nc(NCCc1cccc(Cl)c1)c1ccncc12

>  <Name>  (204) 
nan

>  <Pocket>  (204) 
nan

>  <ATP_Site>  (204) 
nan

>  <Peripheral>  (204) 
nan

>  <Num_H_Atoms_ProtBoundConf>  (204) 
nan

>  <Num_Resolved_Atoms>  (204) 
nan

>  <Num_Not_Resolved_Atoms>  (204) 
nan

$$$$
CHEMBL446779
     RDKit          3D

  0  0  0  0  0  0  0  0  0  0999 V3000
M  V30 BEGIN CTAB
M  V30 COUNTS 92 100 0 0 0
M  V30 BEGIN ATOM
M  V30 1 C 2.322393 -9.048222 -4.893745 0
M  V30 2 N 1.574986 -7.892691 -5.318584 0
M  V30 3 C 1.906232 -7.546177 -6.664542 0
M  V30 4 C 1.051167 -6.398162 -7.161683 0
M  V30 5 N 1.068690 -5.263057 -6.299051 0
M  V30 6 C 0.037430 -4.322779 -6.687821 0
M  V30 7 C 0.039354 -3.130046 -5.801769 0
M  V30 8 N 0.830287 -2.076392 -6.074228 0
M  V30 9 N 0.683005 -1.117869 -5.156569 0
M  V30 10 C -0.233055 -1.547994 -4.248354 0
M  V30 11 C -0.795637 -1.025337 -3.100693 0
M  V30 12 C -0.425705 0.224805 -2.652843 0
M  V30 13 C -1.052443 0.651121 -1.488493 0
M  V30 14 C -0.690675 1.969213 -0.987281 0
M  V30 15 C -0.945137 3.013617 -1.856007 0
M  V30 16 C -0.655978 4.318509 -1.514928 0
M  V30 17 C -0.097836 4.622922 -0.282707 0
M  V30 18 C 0.157182 3.573800 0.588456 0
M  V30 19 C -0.138571 2.276903 0.228677 0
M  V30 20 C -1.982046 -0.110800 -0.814835 0
M  V30 21 C -2.629770 0.342622 0.411312 0
M  V30 22 C -3.419133 1.444068 0.578439 0
M  V30 23 C -3.975914 1.756703 1.815797 0
M  V30 24 C -3.690326 0.895019 2.871997 0
M  V30 25 C -4.301282 1.274333 4.169351 0
M  V30 26 N -3.421336 2.120059 4.955723 0
M  V30 27 C -2.189690 1.421090 5.287290 0
M  V30 28 C -1.405720 2.219395 6.300382 0
M  V30 29 C -1.180690 3.628938 5.905005 0
M  V30 30 C 0.112831 3.849090 5.208844 0
M  V30 31 N 0.829787 4.920924 4.842046 0
M  V30 32 N 1.948145 4.562323 4.276374 0
M  V30 33 C 2.019483 3.222693 4.244543 0
M  V30 34 C 3.089808 2.387347 3.713510 0
M  V30 35 C 2.953827 0.999714 3.809457 0
M  V30 36 C 3.926813 0.120219 3.348770 0
M  V30 37 C 5.018501 0.795437 2.795389 0
M  V30 38 C 5.192100 2.144765 2.681229 0
M  V30 39 N 4.192652 2.924080 3.158262 0
M  V30 40 N 0.886501 2.798601 4.820583 0
M  V30 41 C -2.350452 4.243112 5.166591 0
M  V30 42 C -3.010547 3.294311 4.198615 0
M  V30 43 C -2.900165 -0.228557 2.756482 0
M  V30 44 C -2.378737 -0.483108 1.504467 0
M  V30 45 N -2.313359 -1.345203 -1.303367 0
M  V30 46 C -1.723643 -1.810712 -2.447309 0
M  V30 47 C -2.128666 -3.069578 -2.850790 0
M  V30 48 C -1.523963 -3.524328 -4.002146 0
M  V30 49 N -0.608232 -2.790573 -4.677846 0
M  V30 50 C 0.902200 -5.626832 -4.931857 0
M  V30 51 C 1.852620 -6.719873 -4.482797 0
M  V30 52 H 2.523319 -9.048652 -3.802138 0
M  V30 53 H 3.316789 -9.109767 -5.390372 0
M  V30 54 H 1.750026 -9.975602 -5.099217 0
M  V30 55 H 2.984391 -7.311604 -6.806287 0
M  V30 56 H 1.649035 -8.409762 -7.341081 0
M  V30 57 H 1.416532 -6.095107 -8.174591 0
M  V30 58 H 0.000217 -6.776816 -7.246976 0
M  V30 59 H 0.108032 -4.047195 -7.763383 0
M  V30 60 H -0.987414 -4.789003 -6.586049 0
M  V30 61 H 0.306763 0.794717 -3.207373 0
M  V30 62 H -1.377040 2.984928 -2.866097 0
M  V30 63 H -0.820698 5.201455 -2.128532 0
M  V30 64 H 0.167433 5.594849 0.085955 0
M  V30 65 H 0.587590 3.646539 1.580564 0
M  V30 66 H 0.037337 1.402610 0.866036 0
M  V30 67 H -3.539924 2.011694 -0.356777 0
M  V30 68 H -4.567181 2.638314 1.797677 0
M  V30 69 H -5.264951 1.772839 3.998508 0
M  V30 70 H -4.492825 0.340277 4.735220 0
M  V30 71 H -2.494198 0.470115 5.785072 0
M  V30 72 H -1.639939 1.179449 4.370703 0
M  V30 73 H -1.936311 2.144039 7.273815 0
M  V30 74 H -0.406672 1.725543 6.436866 0
M  V30 75 H -1.092892 4.253439 6.845416 0
M  V30 76 H 2.673207 5.245978 3.904127 0
M  V30 77 H 2.083216 0.508335 4.251059 0
M  V30 78 H 3.867898 -0.945774 3.400614 0
M  V30 79 H 5.835638 0.168501 2.406839 0
M  V30 80 H 6.076691 2.554495 2.236404 0
M  V30 81 H -2.024664 5.194770 4.738185 0
M  V30 82 H -3.127263 4.452761 5.958557 0
M  V30 83 H -2.263482 2.934311 3.479305 0
M  V30 84 H -3.880631 3.814097 3.754212 0
M  V30 85 H -2.732765 -0.842117 3.640995 0
M  V30 86 H -1.759272 -1.384323 1.463477 0
M  V30 87 H -2.869323 -3.620564 -2.267317 0
M  V30 88 H -1.820887 -4.505731 -4.347087 0
M  V30 89 H 1.053023 -4.787494 -4.238048 0
M  V30 90 H -0.121881 -6.075927 -4.846875 0
M  V30 91 H 1.630840 -6.908914 -3.416568 0
M  V30 92 H 2.904872 -6.441564 -4.638838 0
M  V30 END ATOM
M  V30 BEGIN BOND
M  V30 1 1 1 2
M  V30 2 1 2 3
M  V30 3 1 3 4
M  V30 4 1 4 5
M  V30 5 1 5 6
M  V30 6 1 6 7
M  V30 7 2 7 8
M  V30 8 1 8 9
M  V30 9 2 9 10
M  V30 10 1 10 11
M  V30 11 2 11 12
M  V30 12 1 12 13
M  V30 13 1 13 14
M  V30 14 2 14 15
M  V30 15 1 15 16
M  V30 16 2 16 17
M  V30 17 1 17 18
M  V30 18 2 18 19
M  V30 19 2 13 20
M  V30 20 1 20 21
M  V30 21 2 21 22
M  V30 22 1 22 23
M  V30 23 2 23 24
M  V30 24 1 24 25
M  V30 25 1 25 26
M  V30 26 1 26 27
M  V30 27 1 27 28
M  V30 28 1 28 29
M  V30 29 1 29 30
M  V30 30 2 30 31
M  V30 31 1 31 32
M  V30 32 1 32 33
M  V30 33 1 33 34
M  V30 34 2 34 35
M  V30 35 1 35 36
M  V30 36 2 36 37
M  V30 37 1 37 38
M  V30 38 2 38 39
M  V30 39 2 33 40
M  V30 40 1 29 41
M  V30 41 1 41 42
M  V30 42 1 24 43
M  V30 43 2 43 44
M  V30 44 1 20 45
M  V30 45 2 45 46
M  V30 46 1 46 47
M  V30 47 2 47 48
M  V30 48 1 48 49
M  V30 49 1 5 50
M  V30 50 1 50 51
M  V30 51 1 51 2
M  V30 52 1 49 7
M  V30 53 1 49 10
M  V30 54 1 46 11
M  V30 55 1 19 14
M  V30 56 1 44 21
M  V30 57 1 42 26
M  V30 58 1 40 30
M  V30 59 1 39 34
M  V30 60 1 1 52
M  V30 61 1 1 53
M  V30 62 1 1 54
M  V30 63 1 3 55
M  V30 64 1 3 56
M  V30 65 1 4 57
M  V30 66 1 4 58
M  V30 67 1 6 59
M  V30 68 1 6 60
M  V30 69 1 12 61
M  V30 70 1 15 62
M  V30 71 1 16 63
M  V30 72 1 17 64
M  V30 73 1 18 65
M  V30 74 1 19 66
M  V30 75 1 22 67
M  V30 76 1 23 68
M  V30 77 1 25 69
M  V30 78 1 25 70
M  V30 79 1 27 71
M  V30 80 1 27 72
M  V30 81 1 28 73
M  V30 82 1 28 74
M  V30 83 1 29 75
M  V30 84 1 32 76
M  V30 85 1 35 77
M  V30 86 1 36 78
M  V30 87 1 37 79
M  V30 88 1 38 80
M  V30 89 1 41 81
M  V30 90 1 41 82
M  V30 91 1 42 83
M  V30 92 1 42 84
M  V30 93 1 43 85
M  V30 94 1 44 86
M  V30 95 1 47 87
M  V30 96 1 48 88
M  V30 97 1 50 89
M  V30 98 1 50 90
M  V30 99 1 51 91
M  V30 100 1 51 92
M  V30 END BOND
M  V30 END CTAB
M  END
>  <Dataset>  (205) 
ChEMBL_Kinases

>  <Ligand_Instance>  (205) 
nan

>  <PDB_ID>  (205) 
nan

>  <Standardized_SMILES>  (205) 
CN1CCN(Cc2nnc3c4cc(-c5ccccc5)c(-c5ccc(CN6CCC(c7n[nH]c(-c8ccccn8)n7)CC6)cc5)nc4ccn23)CC1

>  <Name>  (205) 
nan

>  <Pocket>  (205) 
nan

>  <ATP_Site>  (205) 
nan

>  <Peripheral>  (205) 
nan

>  <Num_H_Atoms_ProtBoundConf>  (205) 
nan

>  <Num_Resolved_Atoms>  (205) 
nan

>  <Num_Not_Resolved_Atoms>  (205) 
nan

$$$$
CHEMBL2376905
     RDKit          3D

  0  0  0  0  0  0  0  0  0  0999 V3000
M  V30 BEGIN CTAB
M  V30 COUNTS 59 63 0 0 0
M  V30 BEGIN ATOM
M  V30 1 O 1.415030 1.613986 4.769633 0
M  V30 2 C 1.019185 1.440747 3.556616 0
M  V30 3 N 1.995163 0.872149 2.674722 0
M  V30 4 C 3.174084 0.664182 3.473097 0
M  V30 5 C 4.269327 0.053285 2.671631 0
M  V30 6 N 4.144598 -1.232206 2.144209 0
M  V30 7 C 5.350247 -1.601718 1.374829 0
M  V30 8 C 5.378004 -0.932956 0.032072 0
M  V30 9 O 4.240794 -1.239197 -0.670564 0
M  V30 10 C 3.072383 -0.852623 0.011080 0
M  V30 11 C 3.013516 -1.561405 1.352488 0
M  V30 12 C -0.373319 1.865082 3.310384 0
M  V30 13 C -1.070243 2.378118 4.352028 0
M  V30 14 C -2.390951 2.774598 4.095611 0
M  V30 15 C -3.020655 2.679053 2.870885 0
M  V30 16 C -2.281899 2.157809 1.854055 0
M  V30 17 N -2.843542 2.017890 0.550100 0
M  V30 18 N -3.386139 2.887052 -0.292751 0
M  V30 19 C -3.774992 2.256063 -1.417417 0
M  V30 20 C -3.447957 0.925157 -1.244672 0
M  V30 21 C -3.639439 -0.130843 -2.108725 0
M  V30 22 C -3.243151 -1.403688 -1.758708 0
M  V30 23 N -3.430456 -2.527480 -2.600912 0
M  V30 24 C -2.803820 -3.791453 -2.691360 0
M  V30 25 C -3.425688 -4.854340 -3.279036 0
M  V30 26 C -2.827415 -6.085270 -3.390153 0
M  V30 27 C -1.557362 -6.305295 -2.907663 0
M  V30 28 C -0.888682 -5.268248 -2.307888 0
M  V30 29 C -1.537596 -4.044749 -2.221088 0
M  V30 30 C -2.666489 -1.476678 -0.508180 0
M  V30 31 N -2.471200 -0.458142 0.348191 0
M  V30 32 C -2.862912 0.791244 -0.002300 0
M  V30 33 C -0.976533 1.757810 2.076048 0
M  V30 34 H 1.439455 0.843038 1.766898 0
M  V30 35 H 3.478950 1.656118 3.908404 0
M  V30 36 H 2.919211 0.046203 4.372886 0
M  V30 37 H 5.180903 0.079959 3.343384 0
M  V30 38 H 4.587342 0.753406 1.827810 0
M  V30 39 H 6.251813 -1.272117 1.918986 0
M  V30 40 H 5.340870 -2.699793 1.246845 0
M  V30 41 H 5.547402 0.162412 0.140841 0
M  V30 42 H 6.243487 -1.365202 -0.517442 0
M  V30 43 H 3.025634 0.236056 0.124954 0
M  V30 44 H 2.207450 -1.191657 -0.588140 0
M  V30 45 H 2.085002 -1.314591 1.861440 0
M  V30 46 H 2.941933 -2.675034 1.167151 0
M  V30 47 H -0.709825 2.515824 5.374498 0
M  V30 48 H -2.969134 3.190611 4.922794 0
M  V30 49 H -4.044804 3.010377 2.764222 0
M  V30 50 H -4.246404 2.714825 -2.272769 0
M  V30 51 H -4.112615 0.041529 -3.086802 0
M  V30 52 H -4.195834 -2.374265 -3.295390 0
M  V30 53 H -4.435015 -4.766048 -3.688456 0
M  V30 54 H -3.334591 -6.915111 -3.858351 0
M  V30 55 H -1.093082 -7.275754 -2.998270 0
M  V30 56 H 0.104688 -5.444458 -1.931800 0
M  V30 57 H -0.938647 -3.289945 -1.748793 0
M  V30 58 H -2.319210 -2.400433 -0.092753 0
M  V30 59 H -0.438002 1.351180 1.231136 0
M  V30 END ATOM
M  V30 BEGIN BOND
M  V30 1 2 1 2
M  V30 2 1 2 3
M  V30 3 1 3 4
M  V30 4 1 4 5
M  V30 5 1 5 6
M  V30 6 1 6 7
M  V30 7 1 7 8
M  V30 8 1 8 9
M  V30 9 1 9 10
M  V30 10 1 10 11
M  V30 11 1 2 12
M  V30 12 2 12 13
M  V30 13 1 13 14
M  V30 14 2 14 15
M  V30 15 1 15 16
M  V30 16 1 16 17
M  V30 17 1 17 18
M  V30 18 2 18 19
M  V30 19 1 19 20
M  V30 20 2 20 21
M  V30 21 1 21 22
M  V30 22 1 22 23
M  V30 23 1 23 24
M  V30 24 2 24 25
M  V30 25 1 25 26
M  V30 26 2 26 27
M  V30 27 1 27 28
M  V30 28 2 28 29
M  V30 29 2 22 30
M  V30 30 1 30 31
M  V30 31 2 31 32
M  V30 32 2 16 33
M  V30 33 1 11 6
M  V30 34 1 33 12
M  V30 35 1 32 17
M  V30 36 1 32 20
M  V30 37 1 29 24
M  V30 38 1 3 34
M  V30 39 1 4 35
M  V30 40 1 4 36
M  V30 41 1 5 37
M  V30 42 1 5 38
M  V30 43 1 7 39
M  V30 44 1 7 40
M  V30 45 1 8 41
M  V30 46 1 8 42
M  V30 47 1 10 43
M  V30 48 1 10 44
M  V30 49 1 11 45
M  V30 50 1 11 46
M  V30 51 1 13 47
M  V30 52 1 14 48
M  V30 53 1 15 49
M  V30 54 1 19 50
M  V30 55 1 21 51
M  V30 56 1 23 52
M  V30 57 1 25 53
M  V30 58 1 26 54
M  V30 59 1 27 55
M  V30 60 1 28 56
M  V30 61 1 29 57
M  V30 62 1 30 58
M  V30 63 1 33 59
M  V30 END BOND
M  V30 END CTAB
M  END
>  <Dataset>  (206) 
ChEMBL_Kinases

>  <Ligand_Instance>  (206) 
nan

>  <PDB_ID>  (206) 
nan

>  <Standardized_SMILES>  (206) 
O=C(NCCN1CCOCC1)c1cccc(-n2ncc3cc(Nc4ccccc4)cnc32)c1

>  <Name>  (206) 
nan

>  <Pocket>  (206) 
nan

>  <ATP_Site>  (206) 
nan

>  <Peripheral>  (206) 
nan

>  <Num_H_Atoms_ProtBoundConf>  (206) 
nan

>  <Num_Resolved_Atoms>  (206) 
nan

>  <Num_Not_Resolved_Atoms>  (206) 
nan

$$$$
CHEMBL3698675
     RDKit          3D

  0  0  0  0  0  0  0  0  0  0999 V3000
M  V30 BEGIN CTAB
M  V30 COUNTS 62 68 0 0 0
M  V30 BEGIN ATOM
M  V30 1 C 2.144068 -3.223318 6.551955 0
M  V30 2 C 2.613018 -2.493119 5.473461 0
M  V30 3 C 1.913257 -2.609190 4.289885 0
M  V30 4 C 2.138115 -2.012653 3.066658 0
M  V30 5 C 3.092465 -1.133001 2.607696 0
M  V30 6 N 3.027368 -0.731861 1.313146 0
M  V30 7 C 2.053134 -1.180071 0.489671 0
M  V30 8 N 1.929331 -0.804727 -0.877815 0
M  V30 9 C 1.226292 0.389344 -1.206331 0
M  V30 10 C 0.684162 1.226276 -0.251897 0
M  V30 11 C 0.013956 2.377627 -0.615406 0
M  V30 12 C -0.150216 2.752305 -1.927437 0
M  V30 13 N -0.833366 3.939658 -2.261621 0
M  V30 14 C -1.346111 4.946315 -1.376711 0
M  V30 15 C -2.818049 5.235208 -1.555144 0
M  V30 16 N -3.185204 5.463381 -2.915680 0
M  V30 17 C -2.697613 4.400142 -3.739006 0
M  V30 18 C -1.170432 4.401083 -3.590530 0
M  V30 19 C 0.376375 1.942783 -2.908217 0
M  V30 20 C 1.052476 0.779394 -2.518306 0
M  V30 21 N 1.111637 -2.040040 0.920264 0
M  V30 22 C 1.140044 -2.462678 2.195589 0
M  V30 23 N 0.332673 -3.313611 2.885707 0
M  V30 24 C -0.814636 -4.031695 2.448874 0
M  V30 25 C -1.666718 -3.370324 1.414665 0
M  V30 26 C -1.958083 -4.472020 0.420208 0
M  V30 27 C -0.710694 -4.679437 -0.391570 0
M  V30 28 C 0.256977 -5.326581 0.580638 0
M  V30 29 C -0.504096 -5.399254 1.878166 0
M  V30 30 C -1.893740 -5.708920 1.318617 0
M  V30 31 C 0.808807 -3.392642 4.143677 0
M  V30 32 C 0.385749 -4.105230 5.270752 0
M  V30 33 N 1.047197 -4.020799 6.462041 0
M  V30 34 H 2.645563 -3.181473 7.519987 0
M  V30 35 H 3.476540 -1.899058 5.640171 0
M  V30 36 H 3.879931 -0.753172 3.224811 0
M  V30 37 H 2.332895 -1.369057 -1.648986 0
M  V30 38 H 0.822503 0.915932 0.775688 0
M  V30 39 H -0.354166 2.929253 0.228633 0
M  V30 40 H -0.834420 5.940488 -1.552585 0
M  V30 41 H -1.103989 4.707720 -0.325625 0
M  V30 42 H -3.374218 4.351131 -1.181158 0
M  V30 43 H -3.141454 6.109268 -0.963097 0
M  V30 44 H -2.912676 6.392273 -3.267151 0
M  V30 45 H -2.943079 4.497415 -4.810793 0
M  V30 46 H -3.046782 3.416605 -3.386186 0
M  V30 47 H -0.816963 3.718961 -4.391774 0
M  V30 48 H -0.762761 5.429810 -3.781198 0
M  V30 49 H 0.315253 2.125289 -3.968723 0
M  V30 50 H 1.470756 0.134304 -3.287817 0
M  V30 51 H -1.506224 -4.246253 3.307440 0
M  V30 52 H -2.614611 -2.946007 1.839620 0
M  V30 53 H -1.205595 -2.559898 0.850130 0
M  V30 54 H -2.882557 -4.376903 -0.137876 0
M  V30 55 H -0.357419 -3.711006 -0.777781 0
M  V30 56 H -0.958750 -5.390819 -1.227782 0
M  V30 57 H 0.439431 -6.356451 0.251049 0
M  V30 58 H 1.235842 -4.830825 0.639205 0
M  V30 59 H -0.157326 -6.138435 2.583412 0
M  V30 60 H -2.676430 -5.717011 2.074865 0
M  V30 61 H -1.869562 -6.615609 0.681651 0
M  V30 62 H -0.499053 -4.741056 5.179576 0
M  V30 END ATOM
M  V30 BEGIN BOND
M  V30 1 1 1 2
M  V30 2 2 2 3
M  V30 3 1 3 4
M  V30 4 2 4 5
M  V30 5 1 5 6
M  V30 6 2 6 7
M  V30 7 1 7 8
M  V30 8 1 8 9
M  V30 9 2 9 10
M  V30 10 1 10 11
M  V30 11 2 11 12
M  V30 12 1 12 13
M  V30 13 1 13 14
M  V30 14 1 14 15
M  V30 15 1 15 16
M  V30 16 1 16 17
M  V30 17 1 17 18
M  V30 18 1 12 19
M  V30 19 2 19 20
M  V30 20 1 7 21
M  V30 21 2 21 22
M  V30 22 1 22 23
M  V30 23 1 23 24
M  V30 24 1 24 25
M  V30 25 1 25 26
M  V30 26 1 26 27
M  V30 27 1 27 28
M  V30 28 1 28 29
M  V30 29 1 29 30
M  V30 30 1 23 31
M  V30 31 2 31 32
M  V30 32 1 32 33
M  V30 33 2 33 1
M  V30 34 1 31 3
M  V30 35 1 22 4
M  V30 36 1 29 24
M  V30 37 1 20 9
M  V30 38 1 30 26
M  V30 39 1 18 13
M  V30 40 1 1 34
M  V30 41 1 2 35
M  V30 42 1 5 36
M  V30 43 1 8 37
M  V30 44 1 10 38
M  V30 45 1 11 39
M  V30 46 1 14 40
M  V30 47 1 14 41
M  V30 48 1 15 42
M  V30 49 1 15 43
M  V30 50 1 16 44
M  V30 51 1 17 45
M  V30 52 1 17 46
M  V30 53 1 18 47
M  V30 54 1 18 48
M  V30 55 1 19 49
M  V30 56 1 20 50
M  V30 57 1 24 51
M  V30 58 1 25 52
M  V30 59 1 25 53
M  V30 60 1 26 54
M  V30 61 1 27 55
M  V30 62 1 27 56
M  V30 63 1 28 57
M  V30 64 1 28 58
M  V30 65 1 29 59
M  V30 66 1 30 60
M  V30 67 1 30 61
M  V30 68 1 32 62
M  V30 END BOND
M  V30 END CTAB
M  END
>  <Dataset>  (207) 
ChEMBL_Kinases

>  <Ligand_Instance>  (207) 
nan

>  <PDB_ID>  (207) 
nan

>  <Standardized_SMILES>  (207) 
c1cc2c3cnc(Nc4ccc(N5CCNCC5)cc4)nc3n(C3CC4CCC3C4)c2cn1

>  <Name>  (207) 
nan

>  <Pocket>  (207) 
nan

>  <ATP_Site>  (207) 
nan

>  <Peripheral>  (207) 
nan

>  <Num_H_Atoms_ProtBoundConf>  (207) 
nan

>  <Num_Resolved_Atoms>  (207) 
nan

>  <Num_Not_Resolved_Atoms>  (207) 
nan

$$$$
CHEMBL2376906
     RDKit          3D

  0  0  0  0  0  0  0  0  0  0999 V3000
M  V30 BEGIN CTAB
M  V30 COUNTS 63 67 0 0 0
M  V30 BEGIN ATOM
M  V30 1 O 1.069158 2.549731 3.700459 0
M  V30 2 C 1.528198 2.107383 2.591584 0
M  V30 3 N 2.959931 2.234303 2.463525 0
M  V30 4 C 3.468570 2.844748 3.664342 0
M  V30 5 C 4.925852 3.013454 3.669956 0
M  V30 6 C 5.864347 1.885221 3.741671 0
M  V30 7 N 5.826871 0.874924 2.804227 0
M  V30 8 C 4.869632 -0.159269 2.811681 0
M  V30 9 C 4.723600 -0.731412 1.415772 0
M  V30 10 O 5.945588 -1.240274 1.004284 0
M  V30 11 C 7.011204 -0.964594 1.823404 0
M  V30 12 C 7.106331 0.487279 2.238203 0
M  V30 13 C 0.661691 1.528049 1.557031 0
M  V30 14 C 1.061110 1.040416 0.331647 0
M  V30 15 C 0.146758 0.518615 -0.561470 0
M  V30 16 C -1.204418 0.453759 -0.285410 0
M  V30 17 N -2.124721 -0.086969 -1.224417 0
M  V30 18 N -2.185489 0.194504 -2.506297 0
M  V30 19 C -3.183722 -0.496268 -3.117705 0
M  V30 20 C -3.806628 -1.280828 -2.136854 0
M  V30 21 C -4.863337 -2.173051 -2.161962 0
M  V30 22 C -5.224199 -2.786652 -0.982771 0
M  V30 23 N -6.301275 -3.714646 -0.963347 0
M  V30 24 C -6.971348 -4.170538 -2.151406 0
M  V30 25 C -8.302815 -3.987168 -2.419854 0
M  V30 26 C -8.803068 -4.499719 -3.622180 0
M  V30 27 C -7.979696 -5.174378 -4.522605 0
M  V30 28 C -6.632815 -5.331713 -4.198749 0
M  V30 29 C -6.132471 -4.831471 -3.017066 0
M  V30 30 Cl -4.420420 -5.152583 -2.816799 0
M  V30 31 C -4.574397 -2.544053 0.210880 0
M  V30 32 C -3.508211 -1.631346 0.189465 0
M  V30 33 C -3.100162 -0.984578 -0.963489 0
M  V30 34 C -1.577770 0.945727 0.940938 0
M  V30 35 C -0.678981 1.470111 1.844568 0
M  V30 36 H 3.300624 1.879740 1.552971 0
M  V30 37 H 3.207132 2.209017 4.570117 0
M  V30 38 H 2.918423 3.798918 3.883711 0
M  V30 39 H 5.228268 3.832233 4.437966 0
M  V30 40 H 5.223128 3.600875 2.707350 0
M  V30 41 H 6.938551 2.273247 3.914060 0
M  V30 42 H 5.706712 1.422740 4.807659 0
M  V30 43 H 5.278689 -1.064171 3.407220 0
M  V30 44 H 3.954610 0.067758 3.333441 0
M  V30 45 H 4.480935 0.091141 0.716736 0
M  V30 46 H 3.925178 -1.514335 1.452293 0
M  V30 47 H 7.080821 -1.646368 2.722526 0
M  V30 48 H 7.930355 -1.184588 1.208173 0
M  V30 49 H 7.937713 0.618978 2.981175 0
M  V30 50 H 7.286006 1.120448 1.343094 0
M  V30 51 H 2.119089 1.091040 0.120240 0
M  V30 52 H 0.562938 0.158864 -1.506656 0
M  V30 53 H -3.491756 -0.487946 -4.155905 0
M  V30 54 H -5.367234 -2.344412 -3.121267 0
M  V30 55 H -6.676005 -4.128845 -0.084354 0
M  V30 56 H -8.906234 -3.459980 -1.698195 0
M  V30 57 H -9.840596 -4.349113 -3.817655 0
M  V30 58 H -8.455982 -5.536862 -5.432176 0
M  V30 59 H -6.048331 -5.872999 -4.955925 0
M  V30 60 H -4.846068 -3.015275 1.137353 0
M  V30 61 H -3.014094 -1.455528 1.140168 0
M  V30 62 H -2.626590 0.922492 1.218733 0
M  V30 63 H -1.054646 1.833647 2.786183 0
M  V30 END ATOM
M  V30 BEGIN BOND
M  V30 1 2 1 2
M  V30 2 1 2 3
M  V30 3 1 3 4
M  V30 4 1 4 5
M  V30 5 1 5 6
M  V30 6 1 6 7
M  V30 7 1 7 8
M  V30 8 1 8 9
M  V30 9 1 9 10
M  V30 10 1 10 11
M  V30 11 1 11 12
M  V30 12 1 2 13
M  V30 13 2 13 14
M  V30 14 1 14 15
M  V30 15 2 15 16
M  V30 16 1 16 17
M  V30 17 1 17 18
M  V30 18 2 18 19
M  V30 19 1 19 20
M  V30 20 2 20 21
M  V30 21 1 21 22
M  V30 22 1 22 23
M  V30 23 1 23 24
M  V30 24 2 24 25
M  V30 25 1 25 26
M  V30 26 2 26 27
M  V30 27 1 27 28
M  V30 28 2 28 29
M  V30 29 1 29 30
M  V30 30 2 22 31
M  V30 31 1 31 32
M  V30 32 2 32 33
M  V30 33 1 16 34
M  V30 34 2 34 35
M  V30 35 1 12 7
M  V30 36 1 35 13
M  V30 37 1 33 17
M  V30 38 1 33 20
M  V30 39 1 29 24
M  V30 40 1 3 36
M  V30 41 1 4 37
M  V30 42 1 4 38
M  V30 43 1 5 39
M  V30 44 1 5 40
M  V30 45 1 6 41
M  V30 46 1 6 42
M  V30 47 1 8 43
M  V30 48 1 8 44
M  V30 49 1 9 45
M  V30 50 1 9 46
M  V30 51 1 11 47
M  V30 52 1 11 48
M  V30 53 1 12 49
M  V30 54 1 12 50
M  V30 55 1 14 51
M  V30 56 1 15 52
M  V30 57 1 19 53
M  V30 58 1 21 54
M  V30 59 1 23 55
M  V30 60 1 25 56
M  V30 61 1 26 57
M  V30 62 1 27 58
M  V30 63 1 28 59
M  V30 64 1 31 60
M  V30 65 1 32 61
M  V30 66 1 34 62
M  V30 67 1 35 63
M  V30 END BOND
M  V30 END CTAB
M  END
>  <Dataset>  (208) 
ChEMBL_Kinases

>  <Ligand_Instance>  (208) 
nan

>  <PDB_ID>  (208) 
nan

>  <Standardized_SMILES>  (208) 
O=C(NCCCN1CCOCC1)c1ccc(-n2ncc3cc(Nc4ccccc4Cl)ccc32)cc1

>  <Name>  (208) 
nan

>  <Pocket>  (208) 
nan

>  <ATP_Site>  (208) 
nan

>  <Peripheral>  (208) 
nan

>  <Num_H_Atoms_ProtBoundConf>  (208) 
nan

>  <Num_Resolved_Atoms>  (208) 
nan

>  <Num_Not_Resolved_Atoms>  (208) 
nan

$$$$
CHEMBL2376916
     RDKit          3D

  0  0  0  0  0  0  0  0  0  0999 V3000
M  V30 BEGIN CTAB
M  V30 COUNTS 60 64 0 0 0
M  V30 BEGIN ATOM
M  V30 1 O 3.025503 1.493334 3.318377 0
M  V30 2 C 2.197763 0.977615 2.529602 0
M  V30 3 N 2.552078 -0.243927 1.896745 0
M  V30 4 C 3.797525 -0.925791 2.102841 0
M  V30 5 C 5.017675 -0.129932 1.728466 0
M  V30 6 N 5.100517 0.278865 0.394322 0
M  V30 7 C 5.287837 -0.674537 -0.627016 0
M  V30 8 C 5.045036 0.004834 -1.973244 0
M  V30 9 O 3.848883 0.688735 -2.028349 0
M  V30 10 C 3.617423 1.552840 -0.989217 0
M  V30 11 C 4.737668 1.586593 0.027789 0
M  V30 12 C 0.926196 1.655140 2.306787 0
M  V30 13 C 0.731333 2.843217 3.010939 0
M  V30 14 C -0.473689 3.525755 2.826847 0
M  V30 15 C -1.460481 3.049267 1.971003 0
M  V30 16 C -1.259732 1.868075 1.274741 0
M  V30 17 N -2.242457 1.347351 0.389176 0
M  V30 18 N -2.797837 2.173016 -0.456161 0
M  V30 19 C -3.705551 1.536657 -1.226774 0
M  V30 20 C -3.699935 0.210979 -0.812790 0
M  V30 21 C -4.401402 -0.903572 -1.217159 0
M  V30 22 C -4.115905 -2.085142 -0.549999 0
M  V30 23 N -4.825178 -3.250977 -0.946907 0
M  V30 24 C -4.775993 -4.599872 -0.501052 0
M  V30 25 C -5.481593 -5.234555 0.487370 0
M  V30 26 Cl -6.617787 -4.197738 1.319921 0
M  V30 27 C -5.254540 -6.571704 0.737567 0
M  V30 28 C -4.335668 -7.304062 0.025258 0
M  V30 29 C -3.615067 -6.667536 -0.979682 0
M  V30 30 C -3.836804 -5.320067 -1.239491 0
M  V30 31 Cl -2.835191 -4.692307 -2.541946 0
M  V30 32 C -3.187305 -2.161570 0.462276 0
M  V30 33 C -2.472057 -1.037127 0.878206 0
M  V30 34 C -2.769993 0.124867 0.203751 0
M  V30 35 C -0.057858 1.219424 1.480204 0
M  V30 36 H 1.846634 -0.656947 1.242230 0
M  V30 37 H 3.755388 -1.937251 1.701254 0
M  V30 38 H 3.876513 -1.050962 3.223557 0
M  V30 39 H 5.074181 0.741378 2.392799 0
M  V30 40 H 5.888892 -0.792768 1.941740 0
M  V30 41 H 4.623735 -1.559425 -0.571920 0
M  V30 42 H 6.379015 -0.965833 -0.652386 0
M  V30 43 H 5.058708 -0.738622 -2.795100 0
M  V30 44 H 5.864553 0.745060 -2.145280 0
M  V30 45 H 2.664009 1.217648 -0.497806 0
M  V30 46 H 3.378745 2.586587 -1.362599 0
M  V30 47 H 5.605328 2.063654 -0.490179 0
M  V30 48 H 4.452258 2.222907 0.857230 0
M  V30 49 H 1.455585 3.272369 3.693052 0
M  V30 50 H -0.618170 4.463220 3.387248 0
M  V30 51 H -2.377679 3.613617 1.861659 0
M  V30 52 H -4.351908 1.885124 -2.022204 0
M  V30 53 H -5.116957 -0.842795 -1.997711 0
M  V30 54 H -5.545192 -3.242681 -1.698275 0
M  V30 55 H -5.857516 -7.002464 1.541013 0
M  V30 56 H -4.215994 -8.355192 0.284675 0
M  V30 57 H -2.916499 -7.300958 -1.493289 0
M  V30 58 H -2.965109 -3.099246 0.987214 0
M  V30 59 H -1.747166 -1.061038 1.657473 0
M  V30 60 H 0.081903 0.313504 0.938073 0
M  V30 END ATOM
M  V30 BEGIN BOND
M  V30 1 2 1 2
M  V30 2 1 2 3
M  V30 3 1 3 4
M  V30 4 1 4 5
M  V30 5 1 5 6
M  V30 6 1 6 7
M  V30 7 1 7 8
M  V30 8 1 8 9
M  V30 9 1 9 10
M  V30 10 1 10 11
M  V30 11 1 2 12
M  V30 12 2 12 13
M  V30 13 1 13 14
M  V30 14 2 14 15
M  V30 15 1 15 16
M  V30 16 1 16 17
M  V30 17 1 17 18
M  V30 18 2 18 19
M  V30 19 1 19 20
M  V30 20 2 20 21
M  V30 21 1 21 22
M  V30 22 1 22 23
M  V30 23 1 23 24
M  V30 24 2 24 25
M  V30 25 1 25 26
M  V30 26 1 25 27
M  V30 27 2 27 28
M  V30 28 1 28 29
M  V30 29 2 29 30
M  V30 30 1 30 31
M  V30 31 2 22 32
M  V30 32 1 32 33
M  V30 33 2 33 34
M  V30 34 2 16 35
M  V30 35 1 11 6
M  V30 36 1 35 12
M  V30 37 1 34 17
M  V30 38 1 34 20
M  V30 39 1 30 24
M  V30 40 1 3 36
M  V30 41 1 4 37
M  V30 42 1 4 38
M  V30 43 1 5 39
M  V30 44 1 5 40
M  V30 45 1 7 41
M  V30 46 1 7 42
M  V30 47 1 8 43
M  V30 48 1 8 44
M  V30 49 1 10 45
M  V30 50 1 10 46
M  V30 51 1 11 47
M  V30 52 1 11 48
M  V30 53 1 13 49
M  V30 54 1 14 50
M  V30 55 1 15 51
M  V30 56 1 19 52
M  V30 57 1 21 53
M  V30 58 1 23 54
M  V30 59 1 27 55
M  V30 60 1 28 56
M  V30 61 1 29 57
M  V30 62 1 32 58
M  V30 63 1 33 59
M  V30 64 1 35 60
M  V30 END BOND
M  V30 END CTAB
M  END
>  <Dataset>  (209) 
ChEMBL_Kinases

>  <Ligand_Instance>  (209) 
nan

>  <PDB_ID>  (209) 
nan

>  <Standardized_SMILES>  (209) 
O=C(NCCN1CCOCC1)c1cccc(-n2ncc3cc(Nc4c(Cl)cccc4Cl)ccc32)c1

>  <Name>  (209) 
nan

>  <Pocket>  (209) 
nan

>  <ATP_Site>  (209) 
nan

>  <Peripheral>  (209) 
nan

>  <Num_H_Atoms_ProtBoundConf>  (209) 
nan

>  <Num_Resolved_Atoms>  (209) 
nan

>  <Num_Not_Resolved_Atoms>  (209) 
nan

$$$$
CHEMBL3700417
     RDKit          3D

  0  0  0  0  0  0  0  0  0  0999 V3000
M  V30 BEGIN CTAB
M  V30 COUNTS 43 46 0 0 0
M  V30 BEGIN ATOM
M  V30 1 O 3.817259 -3.219837 5.531686 0
M  V30 2 C 3.568146 -2.241212 4.777906 0
M  V30 3 O 4.042523 -1.031991 5.217469 0
M  V30 4 C 2.823116 -2.467858 3.544597 0
M  V30 5 C 2.434333 -3.762273 3.270025 0
M  V30 6 C 1.725398 -3.985534 2.102842 0
M  V30 7 C 1.446801 -2.919575 1.284343 0
M  V30 8 C 1.838491 -1.628123 1.565042 0
M  V30 9 C 2.547077 -1.373699 2.721849 0
M  V30 10 N 1.571603 -0.576239 0.773115 0
M  V30 11 C 0.889288 -0.702803 -0.376101 0
M  V30 12 N 0.641883 0.440826 -1.170800 0
M  V30 13 C 1.095485 1.748443 -0.780387 0
M  V30 14 C 0.506370 2.261663 0.497573 0
M  V30 15 C -0.963176 2.377194 0.473303 0
M  V30 16 C -1.760349 1.301933 0.871887 0
M  V30 17 C -3.136577 1.489445 0.819851 0
M  V30 18 C -3.713003 2.654537 0.404564 0
M  V30 19 C -2.904252 3.705044 0.014850 0
M  V30 20 F -3.419463 4.881068 -0.405154 0
M  V30 21 C -1.526368 3.579139 0.044578 0
M  V30 22 C 0.490875 -1.987868 -0.670698 0
M  V30 23 C -0.215139 -2.202082 -1.834867 0
M  V30 24 C -0.649875 -3.449888 -2.205118 0
M  V30 25 N -0.376676 -4.494387 -1.404550 0
M  V30 26 C 0.320089 -4.328453 -0.241502 0
M  V30 27 C 0.745431 -3.088344 0.114871 0
M  V30 28 H 3.916325 -0.761865 6.187558 0
M  V30 29 H 2.670079 -4.570846 3.933640 0
M  V30 30 H 1.438338 -5.003575 1.919329 0
M  V30 31 H 2.905065 -0.405038 3.044031 0
M  V30 32 H 0.127292 0.440396 -2.076527 0
M  V30 33 H 2.204991 1.642216 -0.568762 0
M  V30 34 H 1.062901 2.488324 -1.599087 0
M  V30 35 H 0.995614 3.247043 0.718742 0
M  V30 36 H 0.795169 1.577043 1.315577 0
M  V30 37 H -1.293004 0.389259 1.197149 0
M  V30 38 H -3.783705 0.676375 1.121596 0
M  V30 39 H -4.785344 2.822764 0.355921 0
M  V30 40 H -0.907966 4.394068 -0.257693 0
M  V30 41 H -0.458135 -1.413259 -2.503670 0
M  V30 42 H -1.209670 -3.633794 -3.124077 0
M  V30 43 H 0.457723 -5.247620 0.283893 0
M  V30 END ATOM
M  V30 BEGIN BOND
M  V30 1 2 1 2
M  V30 2 1 2 3
M  V30 3 1 2 4
M  V30 4 2 4 5
M  V30 5 1 5 6
M  V30 6 2 6 7
M  V30 7 1 7 8
M  V30 8 2 8 9
M  V30 9 1 8 10
M  V30 10 2 10 11
M  V30 11 1 11 12
M  V30 12 1 12 13
M  V30 13 1 13 14
M  V30 14 1 14 15
M  V30 15 2 15 16
M  V30 16 1 16 17
M  V30 17 2 17 18
M  V30 18 1 18 19
M  V30 19 1 19 20
M  V30 20 2 19 21
M  V30 21 1 11 22
M  V30 22 2 22 23
M  V30 23 1 23 24
M  V30 24 2 24 25
M  V30 25 1 25 26
M  V30 26 2 26 27
M  V30 27 1 9 4
M  V30 28 1 21 15
M  V30 29 1 27 22
M  V30 30 1 27 7
M  V30 31 1 3 28
M  V30 32 1 5 29
M  V30 33 1 6 30
M  V30 34 1 9 31
M  V30 35 1 12 32
M  V30 36 1 13 33
M  V30 37 1 13 34
M  V30 38 1 14 35
M  V30 39 1 14 36
M  V30 40 1 16 37
M  V30 41 1 17 38
M  V30 42 1 18 39
M  V30 43 1 21 40
M  V30 44 1 23 41
M  V30 45 1 24 42
M  V30 46 1 26 43
M  V30 END BOND
M  V30 END CTAB
M  END
>  <Dataset>  (210) 
ChEMBL_Kinases

>  <Ligand_Instance>  (210) 
nan

>  <PDB_ID>  (210) 
nan

>  <Standardized_SMILES>  (210) 
O=C(O)c1ccc2c(c1)nc(NCCc1cccc(F)c1)c1ccncc12

>  <Name>  (210) 
nan

>  <Pocket>  (210) 
nan

>  <ATP_Site>  (210) 
nan

>  <Peripheral>  (210) 
nan

>  <Num_H_Atoms_ProtBoundConf>  (210) 
nan

>  <Num_Resolved_Atoms>  (210) 
nan

>  <Num_Not_Resolved_Atoms>  (210) 
nan

$$$$
CHEMBL2376909
     RDKit          3D

  0  0  0  0  0  0  0  0  0  0999 V3000
M  V30 BEGIN CTAB
M  V30 COUNTS 63 67 0 0 0
M  V30 BEGIN ATOM
M  V30 1 C 3.779136 -2.789882 3.738442 0
M  V30 2 O 3.174930 -1.981559 4.757063 0
M  V30 3 C 2.546051 -0.811157 4.411136 0
M  V30 4 C 2.379593 -0.234593 3.167920 0
M  V30 5 C 1.717590 0.960404 2.970069 0
M  V30 6 N 1.658565 1.367279 1.612020 0
M  V30 7 C 2.428601 2.126140 0.716597 0
M  V30 8 O 3.499948 2.642804 1.124744 0
M  V30 9 C 2.004334 2.317475 -0.662140 0
M  V30 10 C 2.864833 3.050781 -1.445901 0
M  V30 11 C 2.512364 3.267013 -2.764121 0
M  V30 12 C 1.330020 2.749217 -3.240428 0
M  V30 13 C 0.441754 2.001806 -2.459997 0
M  V30 14 N -0.750456 1.523323 -3.065022 0
M  V30 15 N -1.473490 2.279662 -3.896896 0
M  V30 16 C -2.552430 1.616840 -4.336129 0
M  V30 17 C -2.541031 0.366874 -3.768789 0
M  V30 18 C -3.361762 -0.724571 -3.838124 0
M  V30 19 C -3.120265 -1.907077 -3.141898 0
M  V30 20 N -4.001937 -2.991052 -3.233355 0
M  V30 21 C -3.859771 -4.355021 -2.952597 0
M  V30 22 C -2.677726 -5.054465 -2.933291 0
M  V30 23 C -2.541809 -6.393819 -2.633815 0
M  V30 24 C -3.680951 -7.107559 -2.325582 0
M  V30 25 C -4.900898 -6.468024 -2.326604 0
M  V30 26 C -4.963647 -5.129510 -2.634734 0
M  V30 27 C -1.963271 -1.859175 -2.374085 0
M  V30 28 C -1.103147 -0.778010 -2.273913 0
M  V30 29 C -1.408212 0.355530 -2.991383 0
M  V30 30 C 0.828798 1.813121 -1.167812 0
M  V30 31 C 1.183575 1.639742 4.041861 0
M  V30 32 C 1.337123 1.083108 5.295388 0
M  V30 33 O 0.802958 1.758864 6.382299 0
M  V30 34 C 0.119018 2.971686 6.266219 0
M  V30 35 C 2.000978 -0.112967 5.483624 0
M  V30 36 O 2.093608 -0.580303 6.806455 0
M  V30 37 C 1.063852 -1.435270 7.328018 0
M  V30 38 H 4.610174 -3.410226 4.158770 0
M  V30 39 H 3.007524 -3.445852 3.281521 0
M  V30 40 H 4.216462 -2.179928 2.942760 0
M  V30 41 H 2.823530 -0.815632 2.355583 0
M  V30 42 H 0.758277 0.903262 1.361298 0
M  V30 43 H 3.801648 3.474529 -1.108460 0
M  V30 44 H 3.164124 3.834311 -3.392959 0
M  V30 45 H 1.089442 2.942793 -4.285509 0
M  V30 46 H -3.284213 2.022701 -5.017068 0
M  V30 47 H -4.220206 -0.604463 -4.478830 0
M  V30 48 H -4.962928 -2.732843 -3.582491 0
M  V30 49 H -1.757123 -4.577921 -3.170711 0
M  V30 50 H -1.607000 -6.919825 -2.623985 0
M  V30 51 H -3.643906 -8.147675 -2.083681 0
M  V30 52 H -5.836087 -6.984070 -2.090696 0
M  V30 53 H -5.943206 -4.650088 -2.629020 0
M  V30 54 H -1.689054 -2.705921 -1.790780 0
M  V30 55 H -0.228651 -0.814437 -1.665062 0
M  V30 56 H 0.161858 1.242553 -0.538184 0
M  V30 57 H 0.689859 2.551601 3.813702 0
M  V30 58 H 0.827684 3.813583 6.042505 0
M  V30 59 H -0.389484 3.203451 7.215186 0
M  V30 60 H -0.619137 2.980169 5.419986 0
M  V30 61 H 0.115173 -1.311683 6.749448 0
M  V30 62 H 0.966770 -1.299349 8.404304 0
M  V30 63 H 1.426178 -2.479265 7.097426 0
M  V30 END ATOM
M  V30 BEGIN BOND
M  V30 1 1 1 2
M  V30 2 1 2 3
M  V30 3 2 3 4
M  V30 4 1 4 5
M  V30 5 1 5 6
M  V30 6 1 6 7
M  V30 7 2 7 8
M  V30 8 1 7 9
M  V30 9 2 9 10
M  V30 10 1 10 11
M  V30 11 2 11 12
M  V30 12 1 12 13
M  V30 13 1 13 14
M  V30 14 1 14 15
M  V30 15 2 15 16
M  V30 16 1 16 17
M  V30 17 2 17 18
M  V30 18 1 18 19
M  V30 19 1 19 20
M  V30 20 1 20 21
M  V30 21 2 21 22
M  V30 22 1 22 23
M  V30 23 2 23 24
M  V30 24 1 24 25
M  V30 25 2 25 26
M  V30 26 2 19 27
M  V30 27 1 27 28
M  V30 28 2 28 29
M  V30 29 2 13 30
M  V30 30 2 5 31
M  V30 31 1 31 32
M  V30 32 1 32 33
M  V30 33 1 33 34
M  V30 34 2 32 35
M  V30 35 1 35 36
M  V30 36 1 36 37
M  V30 37 1 35 3
M  V30 38 1 30 9
M  V30 39 1 29 14
M  V30 40 1 29 17
M  V30 41 1 26 21
M  V30 42 1 1 38
M  V30 43 1 1 39
M  V30 44 1 1 40
M  V30 45 1 4 41
M  V30 46 1 6 42
M  V30 47 1 10 43
M  V30 48 1 11 44
M  V30 49 1 12 45
M  V30 50 1 16 46
M  V30 51 1 18 47
M  V30 52 1 20 48
M  V30 53 1 22 49
M  V30 54 1 23 50
M  V30 55 1 24 51
M  V30 56 1 25 52
M  V30 57 1 26 53
M  V30 58 1 27 54
M  V30 59 1 28 55
M  V30 60 1 30 56
M  V30 61 1 31 57
M  V30 62 1 34 58
M  V30 63 1 34 59
M  V30 64 1 34 60
M  V30 65 1 37 61
M  V30 66 1 37 62
M  V30 67 1 37 63
M  V30 END BOND
M  V30 END CTAB
M  END
>  <Dataset>  (211) 
ChEMBL_Kinases

>  <Ligand_Instance>  (211) 
nan

>  <PDB_ID>  (211) 
nan

>  <Standardized_SMILES>  (211) 
COc1cc(NC(=O)c2cccc(-n3ncc4cc(Nc5ccccc5)ccc43)c2)cc(OC)c1OC

>  <Name>  (211) 
nan

>  <Pocket>  (211) 
nan

>  <ATP_Site>  (211) 
nan

>  <Peripheral>  (211) 
nan

>  <Num_H_Atoms_ProtBoundConf>  (211) 
nan

>  <Num_Resolved_Atoms>  (211) 
nan

>  <Num_Not_Resolved_Atoms>  (211) 
nan

$$$$
CHEMBL2376910
     RDKit          3D

  0  0  0  0  0  0  0  0  0  0999 V3000
M  V30 BEGIN CTAB
M  V30 COUNTS 63 67 0 0 0
M  V30 BEGIN ATOM
M  V30 1 C 6.283233 -0.519422 2.308874 0
M  V30 2 O 5.347078 0.374000 2.189781 0
M  V30 3 C 4.430037 1.225871 2.027832 0
M  V30 4 C 3.889794 1.126113 0.750934 0
M  V30 5 C 2.875590 1.982590 0.399213 0
M  V30 6 N 2.241156 2.089553 -0.802265 0
M  V30 7 C 1.678533 2.285415 -2.064337 0
M  V30 8 O 2.484220 3.173429 -2.553934 0
M  V30 9 C 0.547898 1.766164 -2.809580 0
M  V30 10 C 0.521511 2.189456 -4.112786 0
M  V30 11 C -0.556353 1.726506 -4.881384 0
M  V30 12 C -1.490389 0.904393 -4.298631 0
M  V30 13 C -1.426735 0.499900 -2.974479 0
M  V30 14 N -2.401982 -0.328932 -2.371145 0
M  V30 15 N -3.540551 0.307091 -2.099229 0
M  V30 16 C -4.420670 -0.560260 -1.518691 0
M  V30 17 C -3.800768 -1.805215 -1.422062 0
M  V30 18 C -4.128803 -3.068337 -0.949896 0
M  V30 19 C -3.179078 -4.078129 -1.046790 0
M  V30 20 N -3.620465 -5.312490 -0.521028 0
M  V30 21 C -4.365012 -5.638184 0.629201 0
M  V30 22 C -4.796359 -4.771396 1.598780 0
M  V30 23 C -5.557375 -5.097380 2.709749 0
M  V30 24 C -5.901290 -6.449128 2.823116 0
M  V30 25 C -5.486667 -7.361360 1.866529 0
M  V30 26 C -4.737616 -6.947259 0.804350 0
M  V30 27 Cl -4.306269 -8.236129 -0.290696 0
M  V30 28 C -1.948993 -3.813304 -1.600767 0
M  V30 29 C -1.580653 -2.565617 -2.084133 0
M  V30 30 C -2.556676 -1.596431 -1.965952 0
M  V30 31 C -0.367802 0.943641 -2.192621 0
M  V30 32 C 2.450690 2.884878 1.320814 0
M  V30 33 C 2.766957 3.192052 2.556466 0
M  V30 34 O 2.926377 3.701604 3.871121 0
M  V30 35 C 2.128061 4.751736 4.331628 0
M  V30 36 C 3.856150 2.242876 2.874383 0
M  V30 37 O 4.658850 2.014483 4.025425 0
M  V30 38 C 4.287887 1.111450 5.040594 0
M  V30 39 H 5.960798 -1.610140 2.368027 0
M  V30 40 H 6.961137 -0.420154 3.232542 0
M  V30 41 H 7.067220 -0.540677 1.472596 0
M  V30 42 H 4.116261 0.486242 -0.061567 0
M  V30 43 H 1.524759 1.306722 -0.512790 0
M  V30 44 H 1.264145 2.838589 -4.551503 0
M  V30 45 H -0.607501 2.036858 -5.910091 0
M  V30 46 H -2.344459 0.529122 -4.883643 0
M  V30 47 H -5.431523 -0.362878 -1.177687 0
M  V30 48 H -5.146602 -3.055839 -0.574736 0
M  V30 49 H -3.283304 -6.034967 -1.169551 0
M  V30 50 H -4.541399 -3.741893 1.544389 0
M  V30 51 H -5.866419 -4.358714 3.442780 0
M  V30 52 H -6.505517 -6.737445 3.694744 0
M  V30 53 H -5.813528 -8.354199 2.064199 0
M  V30 54 H -1.251984 -4.647922 -1.647674 0
M  V30 55 H -0.599036 -2.378370 -2.520177 0
M  V30 56 H -0.284983 0.645979 -1.147280 0
M  V30 57 H 1.671356 3.662647 1.283950 0
M  V30 58 H 2.757116 5.640301 4.584323 0
M  V30 59 H 1.248696 4.985440 3.721223 0
M  V30 60 H 1.702113 4.383610 5.310983 0
M  V30 61 H 3.725021 0.259975 4.579080 0
M  V30 62 H 3.630047 1.558663 5.801592 0
M  V30 63 H 5.188602 0.632256 5.508184 0
M  V30 END ATOM
M  V30 BEGIN BOND
M  V30 1 1 1 2
M  V30 2 1 2 3
M  V30 3 2 3 4
M  V30 4 1 4 5
M  V30 5 1 5 6
M  V30 6 1 6 7
M  V30 7 2 7 8
M  V30 8 1 7 9
M  V30 9 2 9 10
M  V30 10 1 10 11
M  V30 11 2 11 12
M  V30 12 1 12 13
M  V30 13 1 13 14
M  V30 14 1 14 15
M  V30 15 2 15 16
M  V30 16 1 16 17
M  V30 17 2 17 18
M  V30 18 1 18 19
M  V30 19 1 19 20
M  V30 20 1 20 21
M  V30 21 2 21 22
M  V30 22 1 22 23
M  V30 23 2 23 24
M  V30 24 1 24 25
M  V30 25 2 25 26
M  V30 26 1 26 27
M  V30 27 2 19 28
M  V30 28 1 28 29
M  V30 29 2 29 30
M  V30 30 2 13 31
M  V30 31 2 5 32
M  V30 32 1 32 33
M  V30 33 1 33 34
M  V30 34 1 34 35
M  V30 35 2 33 36
M  V30 36 1 36 37
M  V30 37 1 37 38
M  V30 38 1 36 3
M  V30 39 1 31 9
M  V30 40 1 30 14
M  V30 41 1 30 17
M  V30 42 1 26 21
M  V30 43 1 1 39
M  V30 44 1 1 40
M  V30 45 1 1 41
M  V30 46 1 4 42
M  V30 47 1 6 43
M  V30 48 1 10 44
M  V30 49 1 11 45
M  V30 50 1 12 46
M  V30 51 1 16 47
M  V30 52 1 18 48
M  V30 53 1 20 49
M  V30 54 1 22 50
M  V30 55 1 23 51
M  V30 56 1 24 52
M  V30 57 1 25 53
M  V30 58 1 28 54
M  V30 59 1 29 55
M  V30 60 1 31 56
M  V30 61 1 32 57
M  V30 62 1 35 58
M  V30 63 1 35 59
M  V30 64 1 35 60
M  V30 65 1 38 61
M  V30 66 1 38 62
M  V30 67 1 38 63
M  V30 END BOND
M  V30 END CTAB
M  END
>  <Dataset>  (212) 
ChEMBL_Kinases

>  <Ligand_Instance>  (212) 
nan

>  <PDB_ID>  (212) 
nan

>  <Standardized_SMILES>  (212) 
COc1cc(NC(=O)c2cccc(-n3ncc4cc(Nc5ccccc5Cl)ccc43)c2)cc(OC)c1OC

>  <Name>  (212) 
nan

>  <Pocket>  (212) 
nan

>  <ATP_Site>  (212) 
nan

>  <Peripheral>  (212) 
nan

>  <Num_H_Atoms_ProtBoundConf>  (212) 
nan

>  <Num_Resolved_Atoms>  (212) 
nan

>  <Num_Not_Resolved_Atoms>  (212) 
nan

$$$$
CHEMBL2376911
     RDKit          3D

  0  0  0  0  0  0  0  0  0  0999 V3000
M  V30 BEGIN CTAB
M  V30 COUNTS 62 66 0 0 0
M  V30 BEGIN ATOM
M  V30 1 C 3.333092 -0.858165 7.419998 0
M  V30 2 C 4.291206 0.276380 7.226709 0
M  V30 3 O 4.732081 0.418514 5.894833 0
M  V30 4 C 3.876120 0.663736 4.833105 0
M  V30 5 C 2.499065 0.806019 4.906143 0
M  V30 6 C 1.733910 1.049384 3.784731 0
M  V30 7 C 2.312276 1.162222 2.534284 0
M  V30 8 N 1.455763 1.413302 1.426010 0
M  V30 9 C 1.059196 2.673831 0.910172 0
M  V30 10 O 1.436706 3.771773 1.395798 0
M  V30 11 C 0.166773 2.770656 -0.244106 0
M  V30 12 C -0.193261 4.017971 -0.712690 0
M  V30 13 C -1.041868 4.199868 -1.810489 0
M  V30 14 C -1.550549 3.089489 -2.465404 0
M  V30 15 C -1.203275 1.833386 -2.013239 0
M  V30 16 N -1.683127 0.636799 -2.631641 0
M  V30 17 N -1.555935 0.424837 -3.916906 0
M  V30 18 C -2.077880 -0.769938 -4.292393 0
M  V30 19 C -2.564628 -1.323171 -3.107668 0
M  V30 20 C -3.204081 -2.507504 -2.802041 0
M  V30 21 C -3.562169 -2.755039 -1.493822 0
M  V30 22 N -4.214535 -3.958823 -1.155024 0
M  V30 23 C -4.541556 -5.026960 -2.030349 0
M  V30 24 C -5.788869 -5.534284 -2.319816 0
M  V30 25 C -5.952307 -6.584092 -3.196091 0
M  V30 26 C -4.862812 -7.183395 -3.832024 0
M  V30 27 C -3.622711 -6.664597 -3.531918 0
M  V30 28 C -3.433952 -5.610697 -2.655000 0
M  V30 29 F -2.116283 -5.277853 -2.520736 0
M  V30 30 C -3.303789 -1.862545 -0.484723 0
M  V30 31 C -2.660696 -0.657184 -0.752576 0
M  V30 32 C -2.306872 -0.427590 -2.086084 0
M  V30 33 C -0.363972 1.694380 -0.927692 0
M  V30 34 C 3.684180 1.018240 2.477682 0
M  V30 35 C 4.460759 0.777359 3.571982 0
M  V30 36 O 5.836906 0.643886 3.438094 0
M  V30 37 C 6.377440 0.768521 2.135048 0
M  V30 38 H 3.129587 -1.347399 6.426552 0
M  V30 39 H 3.815476 -1.604244 8.097485 0
M  V30 40 H 2.403835 -0.516568 7.895243 0
M  V30 41 H 3.746175 1.233162 7.453159 0
M  V30 42 H 5.114985 0.218323 7.945836 0
M  V30 43 H 2.055620 0.719603 5.871584 0
M  V30 44 H 0.654478 1.149480 3.921893 0
M  V30 45 H 1.136533 0.510353 1.015258 0
M  V30 46 H 0.157892 4.951377 -0.260533 0
M  V30 47 H -1.331653 5.152092 -2.187775 0
M  V30 48 H -2.211854 3.179122 -3.320539 0
M  V30 49 H -2.125364 -1.224962 -5.274362 0
M  V30 50 H -3.384248 -3.166796 -3.611594 0
M  V30 51 H -4.531022 -4.187568 -0.191111 0
M  V30 52 H -6.597578 -5.038998 -1.804701 0
M  V30 53 H -6.958948 -6.939345 -3.383169 0
M  V30 54 H -5.033369 -8.005476 -4.513415 0
M  V30 55 H -2.813796 -7.180840 -4.064742 0
M  V30 56 H -3.575339 -2.042317 0.527845 0
M  V30 57 H -2.431290 0.080852 -0.006232 0
M  V30 58 H -0.101491 0.703221 -0.586144 0
M  V30 59 H 4.083819 1.118644 1.457970 0
M  V30 60 H 6.270924 1.798047 1.736063 0
M  V30 61 H 5.828578 0.064567 1.460526 0
M  V30 62 H 7.446524 0.444711 2.106454 0
M  V30 END ATOM
M  V30 BEGIN BOND
M  V30 1 1 1 2
M  V30 2 1 2 3
M  V30 3 1 3 4
M  V30 4 2 4 5
M  V30 5 1 5 6
M  V30 6 2 6 7
M  V30 7 1 7 8
M  V30 8 1 8 9
M  V30 9 2 9 10
M  V30 10 1 9 11
M  V30 11 2 11 12
M  V30 12 1 12 13
M  V30 13 2 13 14
M  V30 14 1 14 15
M  V30 15 1 15 16
M  V30 16 1 16 17
M  V30 17 2 17 18
M  V30 18 1 18 19
M  V30 19 2 19 20
M  V30 20 1 20 21
M  V30 21 1 21 22
M  V30 22 1 22 23
M  V30 23 2 23 24
M  V30 24 1 24 25
M  V30 25 2 25 26
M  V30 26 1 26 27
M  V30 27 2 27 28
M  V30 28 1 28 29
M  V30 29 2 21 30
M  V30 30 1 30 31
M  V30 31 2 31 32
M  V30 32 2 15 33
M  V30 33 1 7 34
M  V30 34 2 34 35
M  V30 35 1 35 36
M  V30 36 1 36 37
M  V30 37 1 35 4
M  V30 38 1 33 11
M  V30 39 1 32 16
M  V30 40 1 32 19
M  V30 41 1 28 23
M  V30 42 1 1 38
M  V30 43 1 1 39
M  V30 44 1 1 40
M  V30 45 1 2 41
M  V30 46 1 2 42
M  V30 47 1 5 43
M  V30 48 1 6 44
M  V30 49 1 8 45
M  V30 50 1 12 46
M  V30 51 1 13 47
M  V30 52 1 14 48
M  V30 53 1 18 49
M  V30 54 1 20 50
M  V30 55 1 22 51
M  V30 56 1 24 52
M  V30 57 1 25 53
M  V30 58 1 26 54
M  V30 59 1 27 55
M  V30 60 1 30 56
M  V30 61 1 31 57
M  V30 62 1 33 58
M  V30 63 1 34 59
M  V30 64 1 37 60
M  V30 65 1 37 61
M  V30 66 1 37 62
M  V30 END BOND
M  V30 END CTAB
M  END
>  <Dataset>  (213) 
ChEMBL_Kinases

>  <Ligand_Instance>  (213) 
nan

>  <PDB_ID>  (213) 
nan

>  <Standardized_SMILES>  (213) 
CCOc1ccc(NC(=O)c2cccc(-n3ncc4cc(Nc5ccccc5F)ccc43)c2)cc1OC

>  <Name>  (213) 
nan

>  <Pocket>  (213) 
nan

>  <ATP_Site>  (213) 
nan

>  <Peripheral>  (213) 
nan

>  <Num_H_Atoms_ProtBoundConf>  (213) 
nan

>  <Num_Resolved_Atoms>  (213) 
nan

>  <Num_Not_Resolved_Atoms>  (213) 
nan

$$$$
CHEMBL4467604
     RDKit          3D

  0  0  0  0  0  0  0  0  0  0999 V3000
M  V30 BEGIN CTAB
M  V30 COUNTS 32 34 0 0 0
M  V30 BEGIN ATOM
M  V30 1 C -3.459600 -4.858674 2.903722 0
M  V30 2 C -2.390290 -3.947679 2.369637 0
M  V30 3 C -1.434983 -4.512747 1.540615 0
M  V30 4 C -0.457260 -3.645621 1.052441 0
M  V30 5 C -0.466316 -2.309521 1.391681 0
M  V30 6 C 0.529289 -1.371440 0.886746 0
M  V30 7 C 1.570465 -1.753618 0.032035 0
M  V30 8 C 2.254243 -0.585261 -0.194404 0
M  V30 9 C 1.656410 0.448797 0.486706 0
M  V30 10 C 1.785953 1.879334 0.717774 0
M  V30 11 C 1.873427 2.702371 -0.318691 0
M  V30 12 N 2.005934 4.110321 -0.197753 0
M  V30 13 C 2.036917 4.725345 -1.501087 0
M  V30 14 S 2.173857 6.300493 -1.923456 0
M  V30 15 N 1.919178 3.657287 -2.459789 0
M  V30 16 C 1.818274 2.423189 -1.763479 0
M  V30 17 O 1.699003 1.283471 -2.265946 0
M  V30 18 O 0.638800 -0.092106 1.108555 0
M  V30 19 C -1.436502 -1.786656 2.221520 0
M  V30 20 Br -1.488792 0.033171 2.718867 0
M  V30 21 C -2.415900 -2.616829 2.720406 0
M  V30 22 H -4.128334 -5.154913 2.062924 0
M  V30 23 H -4.044873 -4.305996 3.696758 0
M  V30 24 H -3.007810 -5.742492 3.348061 0
M  V30 25 H -1.385821 -5.543199 1.248031 0
M  V30 26 H 0.317014 -4.049446 0.396158 0
M  V30 27 H 1.814881 -2.715803 -0.373581 0
M  V30 28 H 3.129064 -0.373423 -0.769301 0
M  V30 29 H 1.818686 2.311963 1.726941 0
M  V30 30 H 2.073709 4.666212 0.689627 0
M  V30 31 H 1.907463 3.768009 -3.517572 0
M  V30 32 H -3.208200 -2.288838 3.373225 0
M  V30 END ATOM
M  V30 BEGIN BOND
M  V30 1 1 1 2
M  V30 2 2 2 3
M  V30 3 1 3 4
M  V30 4 2 4 5
M  V30 5 1 5 6
M  V30 6 2 6 7
M  V30 7 1 7 8
M  V30 8 2 8 9
M  V30 9 1 9 10
M  V30 10 2 10 11
M  V30 11 1 11 12
M  V30 12 1 12 13
M  V30 13 2 13 14
M  V30 14 1 13 15
M  V30 15 1 15 16
M  V30 16 2 16 17
M  V30 17 1 9 18
M  V30 18 1 5 19
M  V30 19 1 19 20
M  V30 20 2 19 21
M  V30 21 1 21 2
M  V30 22 1 18 6
M  V30 23 1 16 11
M  V30 24 1 1 22
M  V30 25 1 1 23
M  V30 26 1 1 24
M  V30 27 1 3 25
M  V30 28 1 4 26
M  V30 29 1 7 27
M  V30 30 1 8 28
M  V30 31 1 10 29
M  V30 32 1 12 30
M  V30 33 1 15 31
M  V30 34 1 21 32
M  V30 END BOND
M  V30 END CTAB
M  END
>  <Dataset>  (214) 
ChEMBL_Kinases

>  <Ligand_Instance>  (214) 
nan

>  <PDB_ID>  (214) 
nan

>  <Standardized_SMILES>  (214) 
Cc1ccc(-c2ccc(/C=C3/NC(=S)NC3=O)o2)c(Br)c1

>  <Name>  (214) 
nan

>  <Pocket>  (214) 
nan

>  <ATP_Site>  (214) 
nan

>  <Peripheral>  (214) 
nan

>  <Num_H_Atoms_ProtBoundConf>  (214) 
nan

>  <Num_Resolved_Atoms>  (214) 
nan

>  <Num_Not_Resolved_Atoms>  (214) 
nan

$$$$
CHEMBL2376913
     RDKit          3D

  0  0  0  0  0  0  0  0  0  0999 V3000
M  V30 BEGIN CTAB
M  V30 COUNTS 67 72 0 0 0
M  V30 BEGIN ATOM
M  V30 1 C 3.718795 -1.581440 4.227055 0
M  V30 2 C 3.659208 -0.276006 3.527308 0
M  V30 3 C 3.799854 -0.206226 2.157066 0
M  V30 4 C 3.743542 1.017077 1.506357 0
M  V30 5 N 3.909871 0.888549 0.077371 0
M  V30 6 C 2.606605 0.714359 -0.471177 0
M  V30 7 O 1.716863 0.725638 0.446584 0
M  V30 8 C 2.322899 0.543185 -1.913501 0
M  V30 9 C 3.276946 0.526594 -2.911308 0
M  V30 10 C 2.848093 0.355985 -4.223212 0
M  V30 11 C 1.507372 0.208794 -4.506662 0
M  V30 12 C 0.548918 0.224459 -3.514137 0
M  V30 13 N -0.861824 0.073675 -3.772925 0
M  V30 14 N -1.597591 0.759266 -4.656113 0
M  V30 15 C -2.877100 0.345836 -4.618664 0
M  V30 16 C -2.935263 -0.638540 -3.670776 0
M  V30 17 C -3.935899 -1.441713 -3.171052 0
M  V30 18 C -3.801459 -2.396980 -2.197060 0
M  V30 19 N -4.800281 -3.250633 -1.688343 0
M  V30 20 C -5.916115 -3.896684 -2.261563 0
M  V30 21 C -6.295068 -3.871861 -3.578215 0
M  V30 22 C -7.396007 -4.495459 -4.120347 0
M  V30 23 C -8.203864 -5.217917 -3.271454 0
M  V30 24 C -7.861965 -5.271857 -1.937959 0
M  V30 25 C -6.748675 -4.628417 -1.448789 0
M  V30 26 Cl -6.430872 -4.783704 0.283875 0
M  V30 27 C -2.486657 -2.492513 -1.725160 0
M  V30 28 C -1.425997 -1.735029 -2.162538 0
M  V30 29 C -1.681529 -0.806155 -3.146379 0
M  V30 30 C 0.976687 0.394203 -2.209954 0
M  V30 31 C 3.548521 2.186842 2.192497 0
M  V30 32 C 3.407195 2.103501 3.582107 0
M  V30 33 C 3.462496 0.889219 4.233313 0
M  V30 34 N 3.307661 0.912619 5.639688 0
M  V30 35 C 2.193086 0.173361 6.224282 0
M  V30 36 C 1.204983 1.208659 6.742292 0
M  V30 37 O 1.869575 2.400409 7.028966 0
M  V30 38 C 3.093897 2.125362 7.669889 0
M  V30 39 C 4.106124 1.578706 6.656274 0
M  V30 40 H 4.529808 -2.214478 3.779987 0
M  V30 41 H 2.787559 -2.173777 4.143346 0
M  V30 42 H 3.928724 -1.456866 5.310061 0
M  V30 43 H 3.954676 -1.168409 1.645484 0
M  V30 44 H 4.725439 0.894371 -0.605675 0
M  V30 45 H 4.311169 0.650413 -2.591299 0
M  V30 46 H 3.606787 0.345267 -4.992328 0
M  V30 47 H 1.180308 0.078068 -5.512908 0
M  V30 48 H -3.692278 0.727221 -5.226585 0
M  V30 49 H -4.907653 -1.264599 -3.602222 0
M  V30 50 H -4.642357 -3.411967 -0.648027 0
M  V30 51 H -5.689592 -3.329984 -4.286496 0
M  V30 52 H -7.629731 -4.428161 -5.174178 0
M  V30 53 H -9.077760 -5.722121 -3.658397 0
M  V30 54 H -8.500544 -5.844201 -1.261870 0
M  V30 55 H -2.268799 -3.228347 -0.941169 0
M  V30 56 H -0.443685 -1.885899 -1.732662 0
M  V30 57 H 0.209211 0.404181 -1.443570 0
M  V30 58 H 3.518628 3.090872 1.604179 0
M  V30 59 H 3.254279 3.055748 4.085865 0
M  V30 60 H 2.599933 -0.448011 7.033760 0
M  V30 61 H 1.710860 -0.496230 5.478488 0
M  V30 62 H 0.456613 1.407172 5.950992 0
M  V30 63 H 0.664798 0.832402 7.638305 0
M  V30 64 H 3.470571 3.065970 8.113327 0
M  V30 65 H 2.917228 1.381257 8.499141 0
M  V30 66 H 4.736351 0.875483 7.232234 0
M  V30 67 H 4.727194 2.399242 6.249357 0
M  V30 END ATOM
M  V30 BEGIN BOND
M  V30 1 1 1 2
M  V30 2 2 2 3
M  V30 3 1 3 4
M  V30 4 1 4 5
M  V30 5 1 5 6
M  V30 6 2 6 7
M  V30 7 1 6 8
M  V30 8 2 8 9
M  V30 9 1 9 10
M  V30 10 2 10 11
M  V30 11 1 11 12
M  V30 12 1 12 13
M  V30 13 1 13 14
M  V30 14 2 14 15
M  V30 15 1 15 16
M  V30 16 2 16 17
M  V30 17 1 17 18
M  V30 18 1 18 19
M  V30 19 1 19 20
M  V30 20 2 20 21
M  V30 21 1 21 22
M  V30 22 2 22 23
M  V30 23 1 23 24
M  V30 24 2 24 25
M  V30 25 1 25 26
M  V30 26 2 18 27
M  V30 27 1 27 28
M  V30 28 2 28 29
M  V30 29 2 12 30
M  V30 30 2 4 31
M  V30 31 1 31 32
M  V30 32 2 32 33
M  V30 33 1 33 34
M  V30 34 1 34 35
M  V30 35 1 35 36
M  V30 36 1 36 37
M  V30 37 1 37 38
M  V30 38 1 38 39
M  V30 39 1 33 2
M  V30 40 1 39 34
M  V30 41 1 30 8
M  V30 42 1 29 13
M  V30 43 1 29 16
M  V30 44 1 25 20
M  V30 45 1 1 40
M  V30 46 1 1 41
M  V30 47 1 1 42
M  V30 48 1 3 43
M  V30 49 1 5 44
M  V30 50 1 9 45
M  V30 51 1 10 46
M  V30 52 1 11 47
M  V30 53 1 15 48
M  V30 54 1 17 49
M  V30 55 1 19 50
M  V30 56 1 21 51
M  V30 57 1 22 52
M  V30 58 1 23 53
M  V30 59 1 24 54
M  V30 60 1 27 55
M  V30 61 1 28 56
M  V30 62 1 30 57
M  V30 63 1 31 58
M  V30 64 1 32 59
M  V30 65 1 35 60
M  V30 66 1 35 61
M  V30 67 1 36 62
M  V30 68 1 36 63
M  V30 69 1 38 64
M  V30 70 1 38 65
M  V30 71 1 39 66
M  V30 72 1 39 67
M  V30 END BOND
M  V30 END CTAB
M  END
>  <Dataset>  (215) 
ChEMBL_Kinases

>  <Ligand_Instance>  (215) 
nan

>  <PDB_ID>  (215) 
nan

>  <Standardized_SMILES>  (215) 
Cc1cc(NC(=O)c2cccc(-n3ncc4cc(Nc5ccccc5Cl)ccc43)c2)ccc1N1CCOCC1

>  <Name>  (215) 
nan

>  <Pocket>  (215) 
nan

>  <ATP_Site>  (215) 
nan

>  <Peripheral>  (215) 
nan

>  <Num_H_Atoms_ProtBoundConf>  (215) 
nan

>  <Num_Resolved_Atoms>  (215) 
nan

>  <Num_Not_Resolved_Atoms>  (215) 
nan

$$$$
CHEMBL2376914
     RDKit          3D

  0  0  0  0  0  0  0  0  0  0999 V3000
M  V30 BEGIN CTAB
M  V30 COUNTS 67 72 0 0 0
M  V30 BEGIN ATOM
M  V30 1 C 0.421061 0.583905 5.135802 0
M  V30 2 C 1.491830 0.955246 4.178016 0
M  V30 3 C 1.228749 0.811582 2.837312 0
M  V30 4 C 2.151917 1.126849 1.865233 0
M  V30 5 N 1.807932 0.952156 0.504197 0
M  V30 6 C 2.554147 1.192948 -0.658537 0
M  V30 7 O 3.722591 1.634820 -0.541955 0
M  V30 8 C 2.088185 0.972708 -2.020933 0
M  V30 9 C 2.943345 1.259105 -3.065948 0
M  V30 10 C 2.567192 1.073650 -4.402403 0
M  V30 11 C 1.301740 0.588353 -4.712316 0
M  V30 12 C 0.445208 0.301123 -3.676348 0
M  V30 13 N -0.881792 -0.205248 -3.930087 0
M  V30 14 N -1.726030 0.339035 -4.803402 0
M  V30 15 C -2.890032 -0.340336 -4.832404 0
M  V30 16 C -2.745726 -1.362962 -3.919149 0
M  V30 17 C -3.561474 -2.386472 -3.489603 0
M  V30 18 C -3.230667 -3.331177 -2.547029 0
M  V30 19 N -4.029538 -4.405737 -2.106860 0
M  V30 20 C -4.963196 -5.251818 -2.740108 0
M  V30 21 C -5.310239 -5.248619 -4.065637 0
M  V30 22 C -6.236172 -6.072821 -4.665703 0
M  V30 23 C -6.881443 -6.992939 -3.867458 0
M  V30 24 C -6.567016 -7.036478 -2.525977 0
M  V30 25 C -5.631214 -6.183527 -1.988615 0
M  V30 26 F -5.399363 -6.317669 -0.640915 0
M  V30 27 C -1.939095 -3.156235 -2.038405 0
M  V30 28 C -1.064331 -2.163952 -2.412222 0
M  V30 29 C -1.494762 -1.268086 -3.365909 0
M  V30 30 C 0.848066 0.494803 -2.394169 0
M  V30 31 C 3.345989 1.592912 2.360588 0
M  V30 32 C 3.652440 1.752499 3.688804 0
M  V30 33 C 2.705807 1.427116 4.621165 0
M  V30 34 N 2.973035 1.573699 6.011366 0
M  V30 35 C 2.233785 2.409319 6.915546 0
M  V30 36 C 3.168716 3.511177 7.422929 0
M  V30 37 O 4.448125 3.002419 7.618028 0
M  V30 38 C 4.451414 1.646106 7.862944 0
M  V30 39 C 4.058885 0.851842 6.618099 0
M  V30 40 H -0.160796 -0.312540 4.791667 0
M  V30 41 H -0.320485 1.408423 5.243901 0
M  V30 42 H 0.825693 0.371482 6.152749 0
M  V30 43 H 0.244907 0.430783 2.526224 0
M  V30 44 H 0.857696 0.588269 0.272680 0
M  V30 45 H 3.960327 1.645359 -2.930739 0
M  V30 46 H 3.248224 1.302514 -5.209763 0
M  V30 47 H 0.965686 0.428549 -5.726798 0
M  V30 48 H -3.762555 -0.152832 -5.426780 0
M  V30 49 H -4.528894 -2.406108 -3.941674 0
M  V30 50 H -3.862162 -4.576477 -1.069594 0
M  V30 51 H -4.827361 -4.558144 -4.732400 0
M  V30 52 H -6.459160 -6.012157 -5.721846 0
M  V30 53 H -7.622668 -7.683618 -4.238743 0
M  V30 54 H -7.076235 -7.761285 -1.901137 0
M  V30 55 H -1.566030 -3.854820 -1.275733 0
M  V30 56 H -0.081035 -2.100305 -1.968004 0
M  V30 57 H 0.153965 0.260486 -1.601263 0
M  V30 58 H 4.129942 1.865361 1.674907 0
M  V30 59 H 4.613164 2.124888 4.011228 0
M  V30 60 H 1.959462 1.752681 7.788027 0
M  V30 61 H 1.324099 2.845194 6.469165 0
M  V30 62 H 3.225411 4.302589 6.632922 0
M  V30 63 H 2.751873 3.981223 8.343242 0
M  V30 64 H 5.493546 1.361004 8.117546 0
M  V30 65 H 3.810768 1.346935 8.727987 0
M  V30 66 H 3.728391 -0.160495 6.930208 0
M  V30 67 H 4.926919 0.733533 5.938858 0
M  V30 END ATOM
M  V30 BEGIN BOND
M  V30 1 1 1 2
M  V30 2 2 2 3
M  V30 3 1 3 4
M  V30 4 1 4 5
M  V30 5 1 5 6
M  V30 6 2 6 7
M  V30 7 1 6 8
M  V30 8 2 8 9
M  V30 9 1 9 10
M  V30 10 2 10 11
M  V30 11 1 11 12
M  V30 12 1 12 13
M  V30 13 1 13 14
M  V30 14 2 14 15
M  V30 15 1 15 16
M  V30 16 2 16 17
M  V30 17 1 17 18
M  V30 18 1 18 19
M  V30 19 1 19 20
M  V30 20 2 20 21
M  V30 21 1 21 22
M  V30 22 2 22 23
M  V30 23 1 23 24
M  V30 24 2 24 25
M  V30 25 1 25 26
M  V30 26 2 18 27
M  V30 27 1 27 28
M  V30 28 2 28 29
M  V30 29 2 12 30
M  V30 30 2 4 31
M  V30 31 1 31 32
M  V30 32 2 32 33
M  V30 33 1 33 34
M  V30 34 1 34 35
M  V30 35 1 35 36
M  V30 36 1 36 37
M  V30 37 1 37 38
M  V30 38 1 38 39
M  V30 39 1 33 2
M  V30 40 1 39 34
M  V30 41 1 30 8
M  V30 42 1 29 13
M  V30 43 1 29 16
M  V30 44 1 25 20
M  V30 45 1 1 40
M  V30 46 1 1 41
M  V30 47 1 1 42
M  V30 48 1 3 43
M  V30 49 1 5 44
M  V30 50 1 9 45
M  V30 51 1 10 46
M  V30 52 1 11 47
M  V30 53 1 15 48
M  V30 54 1 17 49
M  V30 55 1 19 50
M  V30 56 1 21 51
M  V30 57 1 22 52
M  V30 58 1 23 53
M  V30 59 1 24 54
M  V30 60 1 27 55
M  V30 61 1 28 56
M  V30 62 1 30 57
M  V30 63 1 31 58
M  V30 64 1 32 59
M  V30 65 1 35 60
M  V30 66 1 35 61
M  V30 67 1 36 62
M  V30 68 1 36 63
M  V30 69 1 38 64
M  V30 70 1 38 65
M  V30 71 1 39 66
M  V30 72 1 39 67
M  V30 END BOND
M  V30 END CTAB
M  END
>  <Dataset>  (216) 
ChEMBL_Kinases

>  <Ligand_Instance>  (216) 
nan

>  <PDB_ID>  (216) 
nan

>  <Standardized_SMILES>  (216) 
Cc1cc(NC(=O)c2cccc(-n3ncc4cc(Nc5ccccc5F)ccc43)c2)ccc1N1CCOCC1

>  <Name>  (216) 
nan

>  <Pocket>  (216) 
nan

>  <ATP_Site>  (216) 
nan

>  <Peripheral>  (216) 
nan

>  <Num_H_Atoms_ProtBoundConf>  (216) 
nan

>  <Num_Resolved_Atoms>  (216) 
nan

>  <Num_Not_Resolved_Atoms>  (216) 
nan

$$$$
CHEMBL3698674
     RDKit          3D

  0  0  0  0  0  0  0  0  0  0999 V3000
M  V30 BEGIN CTAB
M  V30 COUNTS 64 69 0 0 0
M  V30 BEGIN ATOM
M  V30 1 C 4.360960 -4.493292 3.530599 0
M  V30 2 C 3.700460 -5.219129 2.565007 0
M  V30 3 C 3.039783 -4.603423 1.547686 0
M  V30 4 C 3.005424 -3.235208 1.443846 0
M  V30 5 C 3.657170 -2.482470 2.394654 0
M  V30 6 C 4.332792 -3.114273 3.434898 0
M  V30 7 C 3.413742 -1.192087 1.971628 0
M  V30 8 C 3.873989 -0.046406 2.618498 0
M  V30 9 N 3.538651 1.144142 2.062069 0
M  V30 10 C 2.786708 1.169102 0.924835 0
M  V30 11 N 2.299521 2.274181 0.179182 0
M  V30 12 C 0.902765 2.506041 0.292498 0
M  V30 13 C 0.122626 1.655768 1.089759 0
M  V30 14 C -1.265370 1.824613 1.226481 0
M  V30 15 C -1.841518 2.881694 0.531110 0
M  V30 16 N -3.244238 3.057952 0.652043 0
M  V30 17 C -4.019884 2.134573 1.457456 0
M  V30 18 C -5.504679 2.330555 1.257253 0
M  V30 19 N -5.839467 2.371820 -0.156357 0
M  V30 20 C -5.085370 3.382009 -0.839048 0
M  V30 21 C -4.054300 4.068028 0.061546 0
M  V30 22 C -1.043335 3.693898 -0.240099 0
M  V30 23 N 0.298563 3.521638 -0.365208 0
M  V30 24 N 2.363076 0.042267 0.332715 0
M  V30 25 C 2.651439 -1.207159 0.821088 0
M  V30 26 N 2.405003 -2.517843 0.507916 0
M  V30 27 C 1.616392 -2.710005 -0.660759 0
M  V30 28 C 1.325494 -4.092172 -1.081417 0
M  V30 29 C 0.561065 -4.138117 -2.421300 0
M  V30 30 C -0.926688 -4.279728 -2.162959 0
M  V30 31 C -1.546183 -3.036252 -1.613816 0
M  V30 32 C -0.876904 -2.724566 -0.294418 0
M  V30 33 C 0.348101 -1.908926 -0.522390 0
M  V30 34 H 4.895787 -4.908732 4.351062 0
M  V30 35 H 3.747042 -6.282993 2.676034 0
M  V30 36 H 2.563718 -5.254389 0.845951 0
M  V30 37 H 4.824081 -2.494999 4.149054 0
M  V30 38 H 4.460788 -0.072637 3.505568 0
M  V30 39 H 2.870019 2.903282 -0.421963 0
M  V30 40 H 0.548850 0.814780 1.650881 0
M  V30 41 H -1.818736 1.137954 1.853801 0
M  V30 42 H -3.814089 2.216447 2.542580 0
M  V30 43 H -3.720880 1.115658 1.123475 0
M  V30 44 H -5.997930 1.470751 1.752174 0
M  V30 45 H -5.846537 3.243964 1.755270 0
M  V30 46 H -5.570467 1.462948 -0.561993 0
M  V30 47 H -4.548193 3.046439 -1.740046 0
M  V30 48 H -5.792269 4.182802 -1.162406 0
M  V30 49 H -4.586469 4.656146 0.835460 0
M  V30 50 H -3.526852 4.785505 -0.600770 0
M  V30 51 H -1.515539 4.523079 -0.782190 0
M  V30 52 H 2.145258 -2.206692 -1.560189 0
M  V30 53 H 0.740523 -4.723695 -0.426158 0
M  V30 54 H 2.320603 -4.536371 -1.398755 0
M  V30 55 H 0.828200 -5.070857 -2.966366 0
M  V30 56 H 0.815821 -3.301833 -3.079361 0
M  V30 57 H -1.068783 -5.167060 -1.519889 0
M  V30 58 H -1.407894 -4.488789 -3.136808 0
M  V30 59 H -1.367742 -2.212317 -2.312747 0
M  V30 60 H -2.631841 -3.252091 -1.480588 0
M  V30 61 H -0.721997 -3.654527 0.271599 0
M  V30 62 H -1.636761 -2.155155 0.332976 0
M  V30 63 H 0.221548 -1.146013 -1.320209 0
M  V30 64 H 0.445416 -1.273214 0.413276 0
M  V30 END ATOM
M  V30 BEGIN BOND
M  V30 1 2 1 2
M  V30 2 1 2 3
M  V30 3 2 3 4
M  V30 4 1 4 5
M  V30 5 2 5 6
M  V30 6 1 5 7
M  V30 7 2 7 8
M  V30 8 1 8 9
M  V30 9 2 9 10
M  V30 10 1 10 11
M  V30 11 1 11 12
M  V30 12 2 12 13
M  V30 13 1 13 14
M  V30 14 2 14 15
M  V30 15 1 15 16
M  V30 16 1 16 17
M  V30 17 1 17 18
M  V30 18 1 18 19
M  V30 19 1 19 20
M  V30 20 1 20 21
M  V30 21 1 15 22
M  V30 22 2 22 23
M  V30 23 1 10 24
M  V30 24 2 24 25
M  V30 25 1 25 26
M  V30 26 1 26 27
M  V30 27 1 27 28
M  V30 28 1 28 29
M  V30 29 1 29 30
M  V30 30 1 30 31
M  V30 31 1 31 32
M  V30 32 1 32 33
M  V30 33 1 6 1
M  V30 34 1 25 7
M  V30 35 1 33 27
M  V30 36 1 26 4
M  V30 37 1 23 12
M  V30 38 1 21 16
M  V30 39 1 1 34
M  V30 40 1 2 35
M  V30 41 1 3 36
M  V30 42 1 6 37
M  V30 43 1 8 38
M  V30 44 1 11 39
M  V30 45 1 13 40
M  V30 46 1 14 41
M  V30 47 1 17 42
M  V30 48 1 17 43
M  V30 49 1 18 44
M  V30 50 1 18 45
M  V30 51 1 19 46
M  V30 52 1 20 47
M  V30 53 1 20 48
M  V30 54 1 21 49
M  V30 55 1 21 50
M  V30 56 1 22 51
M  V30 57 1 27 52
M  V30 58 1 28 53
M  V30 59 1 28 54
M  V30 60 1 29 55
M  V30 61 1 29 56
M  V30 62 1 30 57
M  V30 63 1 30 58
M  V30 64 1 31 59
M  V30 65 1 31 60
M  V30 66 1 32 61
M  V30 67 1 32 62
M  V30 68 1 33 63
M  V30 69 1 33 64
M  V30 END BOND
M  V30 END CTAB
M  END
>  <Dataset>  (217) 
ChEMBL_Kinases

>  <Ligand_Instance>  (217) 
nan

>  <PDB_ID>  (217) 
nan

>  <Standardized_SMILES>  (217) 
c1ccc2c(c1)c1cnc(Nc3ccc(N4CCNCC4)cn3)nc1n2C1CCCCCC1

>  <Name>  (217) 
nan

>  <Pocket>  (217) 
nan

>  <ATP_Site>  (217) 
nan

>  <Peripheral>  (217) 
nan

>  <Num_H_Atoms_ProtBoundConf>  (217) 
nan

>  <Num_Resolved_Atoms>  (217) 
nan

>  <Num_Not_Resolved_Atoms>  (217) 
nan

$$$$
CHEMBL3698673
     RDKit          3D

  0  0  0  0  0  0  0  0  0  0999 V3000
M  V30 BEGIN CTAB
M  V30 COUNTS 59 64 0 0 0
M  V30 BEGIN ATOM
M  V30 1 C 5.254970 -4.138501 2.739509 0
M  V30 2 C 4.316409 -5.120477 2.466404 0
M  V30 3 C 3.239426 -4.786079 1.637970 0
M  V30 4 C 3.164970 -3.521293 1.142376 0
M  V30 5 C 4.118931 -2.565434 1.435031 0
M  V30 6 C 5.206369 -2.868588 2.259696 0
M  V30 7 C 3.738844 -1.415999 0.777726 0
M  V30 8 C 4.281396 -0.151564 0.695898 0
M  V30 9 N 3.702368 0.822144 -0.026345 0
M  V30 10 C 2.547317 0.571467 -0.702834 0
M  V30 11 N 1.680902 1.342864 -1.519959 0
M  V30 12 C 0.455941 1.690089 -0.871144 0
M  V30 13 C 0.188648 1.300966 0.432126 0
M  V30 14 C -1.002411 1.593577 1.105710 0
M  V30 15 C -1.955454 2.324640 0.385141 0
M  V30 16 N -3.172118 2.634569 1.042628 0
M  V30 17 C -3.369042 2.515164 2.461991 0
M  V30 18 C -4.240912 1.288127 2.646543 0
M  V30 19 N -5.473334 1.385636 1.910085 0
M  V30 20 C -5.627979 2.602070 1.170872 0
M  V30 21 C -4.408053 3.092129 0.446648 0
M  V30 22 C -1.674836 2.702782 -0.905562 0
M  V30 23 N -0.512211 2.382504 -1.474204 0
M  V30 24 N 2.033563 -0.665857 -0.611490 0
M  V30 25 C 2.569543 -1.676826 0.095554 0
M  V30 26 N 2.230618 -2.979692 0.332498 0
M  V30 27 C 1.020978 -3.568403 -0.252095 0
M  V30 28 C -0.158987 -2.656256 -0.226114 0
M  V30 29 C -0.702701 -2.222286 -1.532628 0
M  V30 30 O -0.369123 -2.981113 -2.628384 0
M  V30 31 C -0.045313 -4.292680 -2.328257 0
M  V30 32 C 1.277264 -4.232882 -1.578367 0
M  V30 33 H 6.102216 -4.394898 3.388628 0
M  V30 34 H 4.460787 -6.078111 2.899944 0
M  V30 35 H 2.498979 -5.538845 1.415049 0
M  V30 36 H 5.934986 -2.098150 2.468859 0
M  V30 37 H 5.193250 0.113102 1.204686 0
M  V30 38 H 1.808776 1.685344 -2.500796 0
M  V30 39 H 0.927998 0.727296 1.007304 0
M  V30 40 H -1.114369 1.239994 2.131684 0
M  V30 41 H -2.466594 2.400378 3.061131 0
M  V30 42 H -3.939683 3.357157 2.916464 0
M  V30 43 H -4.496261 1.234227 3.727793 0
M  V30 44 H -3.710894 0.367411 2.391807 0
M  V30 45 H -5.568983 0.546199 1.315807 0
M  V30 46 H -6.421994 2.430147 0.413643 0
M  V30 47 H -6.027071 3.377667 1.863469 0
M  V30 48 H -4.466779 2.834653 -0.631258 0
M  V30 49 H -4.406487 4.199337 0.506691 0
M  V30 50 H -2.431635 3.273304 -1.449653 0
M  V30 51 H 0.785399 -4.425090 0.450812 0
M  V30 52 H -1.004251 -3.081461 0.389959 0
M  V30 53 H 0.130366 -1.716749 0.332844 0
M  V30 54 H -1.832256 -2.219006 -1.499315 0
M  V30 55 H -0.461304 -1.149555 -1.769148 0
M  V30 56 H -0.833168 -4.661264 -1.643972 0
M  V30 57 H 0.051260 -4.854785 -3.264213 0
M  V30 58 H 2.040990 -3.702732 -2.179864 0
M  V30 59 H 1.599608 -5.285304 -1.465830 0
M  V30 END ATOM
M  V30 BEGIN BOND
M  V30 1 2 1 2
M  V30 2 1 2 3
M  V30 3 2 3 4
M  V30 4 1 4 5
M  V30 5 2 5 6
M  V30 6 1 5 7
M  V30 7 2 7 8
M  V30 8 1 8 9
M  V30 9 2 9 10
M  V30 10 1 10 11
M  V30 11 1 11 12
M  V30 12 2 12 13
M  V30 13 1 13 14
M  V30 14 2 14 15
M  V30 15 1 15 16
M  V30 16 1 16 17
M  V30 17 1 17 18
M  V30 18 1 18 19
M  V30 19 1 19 20
M  V30 20 1 20 21
M  V30 21 1 15 22
M  V30 22 2 22 23
M  V30 23 1 10 24
M  V30 24 2 24 25
M  V30 25 1 25 26
M  V30 26 1 26 27
M  V30 27 1 27 28
M  V30 28 1 28 29
M  V30 29 1 29 30
M  V30 30 1 30 31
M  V30 31 1 31 32
M  V30 32 1 6 1
M  V30 33 1 25 7
M  V30 34 1 32 27
M  V30 35 1 26 4
M  V30 36 1 23 12
M  V30 37 1 21 16
M  V30 38 1 1 33
M  V30 39 1 2 34
M  V30 40 1 3 35
M  V30 41 1 6 36
M  V30 42 1 8 37
M  V30 43 1 11 38
M  V30 44 1 13 39
M  V30 45 1 14 40
M  V30 46 1 17 41
M  V30 47 1 17 42
M  V30 48 1 18 43
M  V30 49 1 18 44
M  V30 50 1 19 45
M  V30 51 1 20 46
M  V30 52 1 20 47
M  V30 53 1 21 48
M  V30 54 1 21 49
M  V30 55 1 22 50
M  V30 56 1 27 51
M  V30 57 1 28 52
M  V30 58 1 28 53
M  V30 59 1 29 54
M  V30 60 1 29 55
M  V30 61 1 31 56
M  V30 62 1 31 57
M  V30 63 1 32 58
M  V30 64 1 32 59
M  V30 END BOND
M  V30 END CTAB
M  END
>  <Dataset>  (218) 
ChEMBL_Kinases

>  <Ligand_Instance>  (218) 
nan

>  <PDB_ID>  (218) 
nan

>  <Standardized_SMILES>  (218) 
c1ccc2c(c1)c1cnc(Nc3ccc(N4CCNCC4)cn3)nc1n2C1CCOCC1

>  <Name>  (218) 
nan

>  <Pocket>  (218) 
nan

>  <ATP_Site>  (218) 
nan

>  <Peripheral>  (218) 
nan

>  <Num_H_Atoms_ProtBoundConf>  (218) 
nan

>  <Num_Resolved_Atoms>  (218) 
nan

>  <Num_Not_Resolved_Atoms>  (218) 
nan

$$$$
CHEMBL4467651
     RDKit          3D

  0  0  0  0  0  0  0  0  0  0999 V3000
M  V30 BEGIN CTAB
M  V30 COUNTS 35 36 0 0 0
M  V30 BEGIN ATOM
M  V30 1 C -1.483130 -3.270030 5.303406 0
M  V30 2 C -0.661388 -2.361608 4.446679 0
M  V30 3 C -0.804136 -2.432162 3.126099 0
M  V30 4 C -0.006788 -1.548165 2.251993 0
M  V30 5 N -0.237420 -1.714074 0.992783 0
M  V30 6 O 0.475505 -0.918546 0.124818 0
M  V30 7 C -0.241704 -0.479853 -0.978892 0
M  V30 8 O -1.402525 -0.952142 -0.878800 0
M  V30 9 C 0.307831 0.367906 -2.022211 0
M  V30 10 C 1.627933 0.737425 -1.868802 0
M  V30 11 C 2.165065 1.552755 -2.867571 0
M  V30 12 C 1.393929 1.952771 -3.940001 0
M  V30 13 C 0.076895 1.556764 -4.049407 0
M  V30 14 C -0.502125 0.740615 -3.072911 0
M  V30 15 C -1.915547 0.262428 -3.105212 0
M  V30 16 C 0.935208 -0.599811 2.836289 0
M  V30 17 C 1.705650 0.259543 1.904139 0
M  V30 18 C 1.039924 -0.569031 4.158327 0
M  V30 19 C 0.278754 -1.416602 5.054783 0
M  V30 20 O 0.379429 -1.384908 6.290419 0
M  V30 21 H -1.262394 -3.068233 6.367548 0
M  V30 22 H -1.242309 -4.318023 5.063385 0
M  V30 23 H -2.550831 -3.034581 5.125412 0
M  V30 24 H -1.512403 -3.148053 2.734423 0
M  V30 25 H 2.207405 0.419994 -1.036044 0
M  V30 26 H 3.212701 1.887422 -2.811921 0
M  V30 27 H 1.757005 2.583859 -4.742741 0
M  V30 28 H -0.606710 1.821952 -4.857427 0
M  V30 29 H -2.400551 0.700688 -2.193429 0
M  V30 30 H -2.468140 0.682956 -3.965354 0
M  V30 31 H -2.018099 -0.826185 -3.128613 0
M  V30 32 H 2.423768 -0.325879 1.269309 0
M  V30 33 H 2.390143 0.861903 2.570211 0
M  V30 34 H 1.099087 0.977698 1.338026 0
M  V30 35 H 1.734130 0.129752 4.590576 0
M  V30 END ATOM
M  V30 BEGIN BOND
M  V30 1 1 1 2
M  V30 2 2 2 3
M  V30 3 1 3 4
M  V30 4 2 4 5
M  V30 5 1 5 6
M  V30 6 1 6 7
M  V30 7 2 7 8
M  V30 8 1 7 9
M  V30 9 2 9 10
M  V30 10 1 10 11
M  V30 11 2 11 12
M  V30 12 1 12 13
M  V30 13 2 13 14
M  V30 14 1 14 15
M  V30 15 1 4 16
M  V30 16 1 16 17
M  V30 17 2 16 18
M  V30 18 1 18 19
M  V30 19 2 19 20
M  V30 20 1 19 2
M  V30 21 1 14 9
M  V30 22 1 1 21
M  V30 23 1 1 22
M  V30 24 1 1 23
M  V30 25 1 3 24
M  V30 26 1 10 25
M  V30 27 1 11 26
M  V30 28 1 12 27
M  V30 29 1 13 28
M  V30 30 1 15 29
M  V30 31 1 15 30
M  V30 32 1 15 31
M  V30 33 1 17 32
M  V30 34 1 17 33
M  V30 35 1 17 34
M  V30 36 1 18 35
M  V30 END BOND
M  V30 END CTAB
M  END
>  <Dataset>  (219) 
ChEMBL_Kinases

>  <Ligand_Instance>  (219) 
nan

>  <PDB_ID>  (219) 
nan

>  <Standardized_SMILES>  (219) 
CC1=C/C(=N/OC(=O)c2ccccc2C)C(C)=CC1=O

>  <Name>  (219) 
nan

>  <Pocket>  (219) 
nan

>  <ATP_Site>  (219) 
nan

>  <Peripheral>  (219) 
nan

>  <Num_H_Atoms_ProtBoundConf>  (219) 
nan

>  <Num_Resolved_Atoms>  (219) 
nan

>  <Num_Not_Resolved_Atoms>  (219) 
nan

$$$$
CHEMBL2380831
     RDKit          3D

  0  0  0  0  0  0  0  0  0  0999 V3000
M  V30 BEGIN CTAB
M  V30 COUNTS 49 53 0 0 0
M  V30 BEGIN ATOM
M  V30 1 O -0.708494 -4.409348 1.705695 0
M  V30 2 C -1.935659 -4.172100 1.531940 0
M  V30 3 N -2.156202 -2.995962 0.782034 0
M  V30 4 C -1.027529 -2.261521 0.337568 0
M  V30 5 C -0.566489 -1.281074 1.197244 0
M  V30 6 C 0.533911 -0.542225 0.798560 0
M  V30 7 C 1.172347 -0.754135 -0.413134 0
M  V30 8 N 2.333927 0.068313 -0.771223 0
M  V30 9 C 2.946690 1.116861 -0.114988 0
M  V30 10 C 4.156505 0.583881 0.372419 0
M  V30 11 C 5.003547 1.379178 1.157298 0
M  V30 12 N 4.693955 2.662122 1.467418 0
M  V30 13 C 3.532747 3.192250 1.001649 0
M  V30 14 N 3.181537 4.457037 1.273292 0
M  V30 15 C 2.048798 5.024302 0.823367 0
M  V30 16 O 1.739972 6.212284 1.095134 0
M  V30 17 C 1.221519 4.219575 0.029490 0
M  V30 18 C 0.097768 4.834729 -0.470947 0
M  V30 19 C -0.689029 4.072461 -1.304172 0
M  V30 20 C -0.411377 2.748703 -1.656790 0
M  V30 21 C 0.738456 2.267909 -1.082129 0
M  V30 22 C 1.574353 2.929540 -0.249382 0
M  V30 23 C 2.720504 2.405116 0.236008 0
M  V30 24 C 0.717631 -1.727704 -1.271047 0
M  V30 25 C -0.380383 -2.459024 -0.864097 0
M  V30 26 C -2.887691 -5.112482 2.110240 0
M  V30 27 C -2.344038 -6.174552 2.796094 0
M  V30 28 F -1.015105 -6.397895 2.964620 0
M  V30 29 C -3.190329 -7.125568 3.383414 0
M  V30 30 C -4.566847 -7.053052 3.309658 0
M  V30 31 C -5.082802 -5.990090 2.623803 0
M  V30 32 C -4.260800 -5.064504 2.052131 0
M  V30 33 F -4.814871 -4.037323 1.388205 0
M  V30 34 H -3.154781 -2.748411 0.606301 0
M  V30 35 H -1.050276 -1.097584 2.150974 0
M  V30 36 H 0.924236 0.228028 1.434836 0
M  V30 37 H 2.774586 -0.180099 -1.691116 0
M  V30 38 H 4.642005 -0.400600 0.275445 0
M  V30 39 H 5.949287 1.107242 1.592871 0
M  V30 40 H 3.805841 5.059426 1.866743 0
M  V30 41 H -0.134441 5.853869 -0.212919 0
M  V30 42 H -1.573432 4.584306 -1.683568 0
M  V30 43 H -1.143295 2.320513 -2.321189 0
M  V30 44 H 0.829626 1.313006 -1.506121 0
M  V30 45 H 1.213255 -1.895481 -2.216590 0
M  V30 46 H -0.748224 -3.221388 -1.519469 0
M  V30 47 H -2.774002 -7.964198 3.924862 0
M  V30 48 H -5.178487 -7.807302 3.776668 0
M  V30 49 H -6.165515 -5.874484 2.528498 0
M  V30 END ATOM
M  V30 BEGIN BOND
M  V30 1 2 1 2
M  V30 2 1 2 3
M  V30 3 1 3 4
M  V30 4 2 4 5
M  V30 5 1 5 6
M  V30 6 2 6 7
M  V30 7 1 7 8
M  V30 8 1 8 9
M  V30 9 2 9 10
M  V30 10 1 10 11
M  V30 11 2 11 12
M  V30 12 1 12 13
M  V30 13 1 13 14
M  V30 14 1 14 15
M  V30 15 2 15 16
M  V30 16 1 15 17
M  V30 17 2 17 18
M  V30 18 1 18 19
M  V30 19 2 19 20
M  V30 20 1 20 21
M  V30 21 2 21 22
M  V30 22 1 22 23
M  V30 23 1 7 24
M  V30 24 2 24 25
M  V30 25 1 2 26
M  V30 26 2 26 27
M  V30 27 1 27 28
M  V30 28 1 27 29
M  V30 29 2 29 30
M  V30 30 1 30 31
M  V30 31 2 31 32
M  V30 32 1 32 33
M  V30 33 1 25 4
M  V30 34 1 32 26
M  V30 35 1 23 9
M  V30 36 2 23 13
M  V30 37 1 22 17
M  V30 38 1 3 34
M  V30 39 1 5 35
M  V30 40 1 6 36
M  V30 41 1 8 37
M  V30 42 1 10 38
M  V30 43 1 11 39
M  V30 44 1 14 40
M  V30 45 1 18 41
M  V30 46 1 19 42
M  V30 47 1 20 43
M  V30 48 1 21 44
M  V30 49 1 24 45
M  V30 50 1 25 46
M  V30 51 1 29 47
M  V30 52 1 30 48
M  V30 53 1 31 49
M  V30 END BOND
M  V30 END CTAB
M  END
>  <Dataset>  (220) 
ChEMBL_Kinases

>  <Ligand_Instance>  (220) 
nan

>  <PDB_ID>  (220) 
nan

>  <Standardized_SMILES>  (220) 
O=C(Nc1ccc(Nc2ccnc3[nH]c(=O)c4ccccc4c23)cc1)c1c(F)cccc1F

>  <Name>  (220) 
nan

>  <Pocket>  (220) 
nan

>  <ATP_Site>  (220) 
nan

>  <Peripheral>  (220) 
nan

>  <Num_H_Atoms_ProtBoundConf>  (220) 
nan

>  <Num_Resolved_Atoms>  (220) 
nan

>  <Num_Not_Resolved_Atoms>  (220) 
nan

$$$$
CHEMBL2380832
     RDKit          3D

  0  0  0  0  0  0  0  0  0  0999 V3000
M  V30 BEGIN CTAB
M  V30 COUNTS 49 53 0 0 0
M  V30 BEGIN ATOM
M  V30 1 O -2.077977 -3.948028 2.729795 0
M  V30 2 C -2.716484 -3.855323 1.655826 0
M  V30 3 N -2.042139 -3.070417 0.671180 0
M  V30 4 C -0.791243 -2.412048 0.759105 0
M  V30 5 C -0.801270 -1.108759 1.219768 0
M  V30 6 C 0.433370 -0.487580 1.296447 0
M  V30 7 C 1.630766 -1.079536 0.949698 0
M  V30 8 N 2.853451 -0.319077 1.076543 0
M  V30 9 C 3.153852 0.983520 1.463492 0
M  V30 10 C 3.749338 0.869183 2.737683 0
M  V30 11 C 4.118014 2.007006 3.451697 0
M  V30 12 N 3.917028 3.237282 2.947025 0
M  V30 13 C 3.357314 3.374270 1.738422 0
M  V30 14 N 3.146046 4.584093 1.199744 0
M  V30 15 C 2.597918 4.769431 -0.012959 0
M  V30 16 O 2.408306 5.916185 -0.492104 0
M  V30 17 C 2.242728 3.618122 -0.728737 0
M  V30 18 C 1.736459 3.825310 -1.991912 0
M  V30 19 C 1.447283 2.697510 -2.714731 0
M  V30 20 C 1.633229 1.387327 -2.256212 0
M  V30 21 C 2.142048 1.346466 -0.981514 0
M  V30 22 C 2.454879 2.390069 -0.184425 0
M  V30 23 C 3.002310 2.249833 1.045602 0
M  V30 24 C 1.631640 -2.366427 0.495875 0
M  V30 25 C 0.407254 -2.994738 0.415498 0
M  V30 26 C -4.013157 -4.437483 1.323959 0
M  V30 27 C -4.721962 -4.339464 0.143690 0
M  V30 28 C -5.942631 -4.971862 0.033712 0
M  V30 29 C -6.481023 -5.703740 1.072142 0
M  V30 30 F -7.689468 -6.300525 0.893005 0
M  V30 31 C -5.790953 -5.815624 2.260700 0
M  V30 32 F -6.331616 -6.537492 3.272081 0
M  V30 33 C -4.580946 -5.185239 2.361290 0
M  V30 34 H -2.410679 -2.876241 -0.286348 0
M  V30 35 H -1.710165 -0.605052 1.502144 0
M  V30 36 H 0.445120 0.546877 1.659816 0
M  V30 37 H 3.730102 -0.869836 0.809008 0
M  V30 38 H 4.010479 -0.010279 3.347572 0
M  V30 39 H 4.575297 2.041405 4.421887 0
M  V30 40 H 3.417440 5.440529 1.740831 0
M  V30 41 H 1.588068 4.825765 -2.360701 0
M  V30 42 H 1.044859 2.900005 -3.712162 0
M  V30 43 H 1.349606 0.653008 -2.970601 0
M  V30 44 H 2.284907 0.317630 -0.829728 0
M  V30 45 H 2.561795 -2.835134 0.223392 0
M  V30 46 H 0.396753 -4.032834 0.050703 0
M  V30 47 H -4.226594 -3.748435 -0.614109 0
M  V30 48 H -6.456015 -4.861894 -0.914670 0
M  V30 49 H -4.090437 -5.315213 3.327182 0
M  V30 END ATOM
M  V30 BEGIN BOND
M  V30 1 2 1 2
M  V30 2 1 2 3
M  V30 3 1 3 4
M  V30 4 2 4 5
M  V30 5 1 5 6
M  V30 6 2 6 7
M  V30 7 1 7 8
M  V30 8 1 8 9
M  V30 9 2 9 10
M  V30 10 1 10 11
M  V30 11 2 11 12
M  V30 12 1 12 13
M  V30 13 1 13 14
M  V30 14 1 14 15
M  V30 15 2 15 16
M  V30 16 1 15 17
M  V30 17 2 17 18
M  V30 18 1 18 19
M  V30 19 2 19 20
M  V30 20 1 20 21
M  V30 21 2 21 22
M  V30 22 1 22 23
M  V30 23 1 7 24
M  V30 24 2 24 25
M  V30 25 1 2 26
M  V30 26 2 26 27
M  V30 27 1 27 28
M  V30 28 2 28 29
M  V30 29 1 29 30
M  V30 30 1 29 31
M  V30 31 1 31 32
M  V30 32 2 31 33
M  V30 33 1 25 4
M  V30 34 1 33 26
M  V30 35 1 23 9
M  V30 36 2 23 13
M  V30 37 1 22 17
M  V30 38 1 3 34
M  V30 39 1 5 35
M  V30 40 1 6 36
M  V30 41 1 8 37
M  V30 42 1 10 38
M  V30 43 1 11 39
M  V30 44 1 14 40
M  V30 45 1 18 41
M  V30 46 1 19 42
M  V30 47 1 20 43
M  V30 48 1 21 44
M  V30 49 1 24 45
M  V30 50 1 25 46
M  V30 51 1 27 47
M  V30 52 1 28 48
M  V30 53 1 33 49
M  V30 END BOND
M  V30 END CTAB
M  END
>  <Dataset>  (221) 
ChEMBL_Kinases

>  <Ligand_Instance>  (221) 
nan

>  <PDB_ID>  (221) 
nan

>  <Standardized_SMILES>  (221) 
O=C(Nc1ccc(Nc2ccnc3[nH]c(=O)c4ccccc4c23)cc1)c1ccc(F)c(F)c1

>  <Name>  (221) 
nan

>  <Pocket>  (221) 
nan

>  <ATP_Site>  (221) 
nan

>  <Peripheral>  (221) 
nan

>  <Num_H_Atoms_ProtBoundConf>  (221) 
nan

>  <Num_Resolved_Atoms>  (221) 
nan

>  <Num_Not_Resolved_Atoms>  (221) 
nan

$$$$
CHEMBL2380833
     RDKit          3D

  0  0  0  0  0  0  0  0  0  0999 V3000
M  V30 BEGIN CTAB
M  V30 COUNTS 49 53 0 0 0
M  V30 BEGIN ATOM
M  V30 1 O -0.386237 -4.996316 1.641649 0
M  V30 2 C -1.479592 -4.701839 1.070453 0
M  V30 3 N -1.489533 -3.453768 0.413138 0
M  V30 4 C -0.456469 -2.480439 0.297459 0
M  V30 5 C -0.356144 -1.491909 1.255289 0
M  V30 6 C 0.661164 -0.568928 1.102971 0
M  V30 7 C 1.566832 -0.595483 0.047918 0
M  V30 8 N 2.604617 0.422391 -0.024785 0
M  V30 9 C 2.929255 1.519882 0.743172 0
M  V30 10 C 4.109681 1.162041 1.432158 0
M  V30 11 C 4.686051 2.040133 2.363499 0
M  V30 12 N 4.130714 3.237482 2.620381 0
M  V30 13 C 3.015801 3.602693 1.979721 0
M  V30 14 N 2.443858 4.788906 2.211606 0
M  V30 15 C 1.328914 5.205537 1.586684 0
M  V30 16 O 0.807618 6.324972 1.824391 0
M  V30 17 C 0.766844 4.329172 0.649066 0
M  V30 18 C -0.339718 4.806758 -0.015535 0
M  V30 19 C -0.853619 3.969437 -0.980833 0
M  V30 20 C -0.332104 2.711526 -1.310195 0
M  V30 21 C 0.767042 2.384160 -0.556275 0
M  V30 22 C 1.343531 3.130637 0.415291 0
M  V30 23 C 2.454795 2.748723 1.069371 0
M  V30 24 C 1.468892 -1.578432 -0.906567 0
M  V30 25 C 0.449689 -2.492630 -0.742584 0
M  V30 26 C -2.670945 -5.544620 1.057378 0
M  V30 27 C -3.879618 -5.261615 0.448164 0
M  V30 28 C -4.924448 -6.160085 0.520108 0
M  V30 29 F -6.057112 -5.772481 -0.114892 0
M  V30 30 C -4.810111 -7.359994 1.192035 0
M  V30 31 C -3.603233 -7.640596 1.799305 0
M  V30 32 F -3.565155 -8.840452 2.442108 0
M  V30 33 C -2.556362 -6.740376 1.727225 0
M  V30 34 H -2.312398 -3.069384 -0.101957 0
M  V30 35 H -1.037706 -1.436021 2.088187 0
M  V30 36 H 0.778924 0.233867 1.839716 0
M  V30 37 H 3.259760 0.301085 -0.860993 0
M  V30 38 H 4.737843 0.255781 1.394147 0
M  V30 39 H 5.571421 1.869559 2.935114 0
M  V30 40 H 2.864872 5.451718 2.913497 0
M  V30 41 H -0.753535 5.755326 0.213515 0
M  V30 42 H -1.734611 4.365184 -1.496763 0
M  V30 43 H -0.878361 2.215370 -2.095220 0
M  V30 44 H 1.062936 1.468947 -0.975279 0
M  V30 45 H 2.173372 -1.597751 -1.725889 0
M  V30 46 H 0.366970 -3.270291 -1.491785 0
M  V30 47 H -3.929190 -4.313635 -0.067142 0
M  V30 48 H -5.700205 -7.995217 1.185151 0
M  V30 49 H -1.652090 -7.046472 2.232425 0
M  V30 END ATOM
M  V30 BEGIN BOND
M  V30 1 2 1 2
M  V30 2 1 2 3
M  V30 3 1 3 4
M  V30 4 2 4 5
M  V30 5 1 5 6
M  V30 6 2 6 7
M  V30 7 1 7 8
M  V30 8 1 8 9
M  V30 9 2 9 10
M  V30 10 1 10 11
M  V30 11 2 11 12
M  V30 12 1 12 13
M  V30 13 1 13 14
M  V30 14 1 14 15
M  V30 15 2 15 16
M  V30 16 1 15 17
M  V30 17 2 17 18
M  V30 18 1 18 19
M  V30 19 2 19 20
M  V30 20 1 20 21
M  V30 21 2 21 22
M  V30 22 1 22 23
M  V30 23 1 7 24
M  V30 24 2 24 25
M  V30 25 1 2 26
M  V30 26 2 26 27
M  V30 27 1 27 28
M  V30 28 1 28 29
M  V30 29 2 28 30
M  V30 30 1 30 31
M  V30 31 1 31 32
M  V30 32 2 31 33
M  V30 33 1 25 4
M  V30 34 1 33 26
M  V30 35 1 23 9
M  V30 36 2 23 13
M  V30 37 1 22 17
M  V30 38 1 3 34
M  V30 39 1 5 35
M  V30 40 1 6 36
M  V30 41 1 8 37
M  V30 42 1 10 38
M  V30 43 1 11 39
M  V30 44 1 14 40
M  V30 45 1 18 41
M  V30 46 1 19 42
M  V30 47 1 20 43
M  V30 48 1 21 44
M  V30 49 1 24 45
M  V30 50 1 25 46
M  V30 51 1 27 47
M  V30 52 1 30 48
M  V30 53 1 33 49
M  V30 END BOND
M  V30 END CTAB
M  END
>  <Dataset>  (222) 
ChEMBL_Kinases

>  <Ligand_Instance>  (222) 
nan

>  <PDB_ID>  (222) 
nan

>  <Standardized_SMILES>  (222) 
O=C(Nc1ccc(Nc2ccnc3[nH]c(=O)c4ccccc4c23)cc1)c1cc(F)cc(F)c1

>  <Name>  (222) 
nan

>  <Pocket>  (222) 
nan

>  <ATP_Site>  (222) 
nan

>  <Peripheral>  (222) 
nan

>  <Num_H_Atoms_ProtBoundConf>  (222) 
nan

>  <Num_Resolved_Atoms>  (222) 
nan

>  <Num_Not_Resolved_Atoms>  (222) 
nan

$$$$
CHEMBL3698670
     RDKit          3D

  0  0  0  0  0  0  0  0  0  0999 V3000
M  V30 BEGIN CTAB
M  V30 COUNTS 57 62 0 0 0
M  V30 BEGIN ATOM
M  V30 1 C 4.546859 -5.120963 2.595556 0
M  V30 2 C 3.461467 -5.862343 2.187001 0
M  V30 3 N 2.525454 -5.343680 1.361059 0
M  V30 4 C 2.605911 -4.083250 0.898921 0
M  V30 5 C 3.672699 -3.333894 1.292545 0
M  V30 6 C 4.663402 -3.799343 2.132974 0
M  V30 7 C 3.510939 -2.113337 0.684695 0
M  V30 8 C 4.230529 -0.939092 0.678903 0
M  V30 9 N 3.874841 0.167442 -0.007491 0
M  V30 10 C 2.733497 0.088417 -0.728256 0
M  V30 11 N 1.990735 1.001717 -1.567361 0
M  V30 12 C 0.781485 1.486466 -0.976840 0
M  V30 13 C 0.424999 1.094358 0.304664 0
M  V30 14 C -0.760156 1.524062 0.911870 0
M  V30 15 C -1.598157 2.366386 0.203824 0
M  V30 16 N -2.773681 2.775499 0.854801 0
M  V30 17 C -2.871529 2.877156 2.298597 0
M  V30 18 C -3.813463 1.768540 2.714848 0
M  V30 19 N -5.144367 2.173067 2.258357 0
M  V30 20 C -5.138955 2.179505 0.823497 0
M  V30 21 C -4.065352 3.133794 0.270096 0
M  V30 22 C -1.202744 2.727838 -1.062539 0
M  V30 23 N -0.059834 2.309334 -1.636737 0
M  V30 24 N 2.024771 -1.051370 -0.729446 0
M  V30 25 C 2.354168 -2.163692 -0.056753 0
M  V30 26 N 1.789936 -3.400844 0.081624 0
M  V30 27 C 0.539110 -3.778433 -0.572299 0
M  V30 28 C -0.547274 -2.811521 -0.145655 0
M  V30 29 C -1.435439 -2.735548 -1.345203 0
M  V30 30 C -0.454677 -2.757020 -2.497614 0
M  V30 31 C 0.588007 -3.731314 -2.055082 0
M  V30 32 H 5.283475 -5.588664 3.268639 0
M  V30 33 H 3.314480 -6.908911 2.513523 0
M  V30 34 H 5.508402 -3.208976 2.447349 0
M  V30 35 H 5.145129 -0.824920 1.238082 0
M  V30 36 H 2.219445 1.346956 -2.531177 0
M  V30 37 H 1.052213 0.436576 0.898559 0
M  V30 38 H -1.012015 1.201266 1.900844 0
M  V30 39 H -1.890554 2.776715 2.805537 0
M  V30 40 H -3.359111 3.836967 2.602852 0
M  V30 41 H -3.798609 1.606832 3.810731 0
M  V30 42 H -3.541403 0.866092 2.149259 0
M  V30 43 H -5.772508 1.386329 2.561468 0
M  V30 44 H -6.097406 2.486962 0.413663 0
M  V30 45 H -4.918113 1.128808 0.502199 0
M  V30 46 H -4.333814 4.139531 0.632357 0
M  V30 47 H -4.072802 3.033658 -0.827317 0
M  V30 48 H -1.862242 3.384594 -1.607793 0
M  V30 49 H 0.226673 -4.776547 -0.191725 0
M  V30 50 H -1.079522 -3.171778 0.758247 0
M  V30 51 H -0.084307 -1.827343 -0.008286 0
M  V30 52 H -2.122122 -3.592118 -1.469063 0
M  V30 53 H -2.008987 -1.781664 -1.305178 0
M  V30 54 H -0.976637 -3.066455 -3.421559 0
M  V30 55 H -0.069701 -1.743477 -2.688121 0
M  V30 56 H 1.594759 -3.561738 -2.488218 0
M  V30 57 H 0.264108 -4.740383 -2.446339 0
M  V30 END ATOM
M  V30 BEGIN BOND
M  V30 1 2 1 2
M  V30 2 1 2 3
M  V30 3 2 3 4
M  V30 4 1 4 5
M  V30 5 2 5 6
M  V30 6 1 5 7
M  V30 7 2 7 8
M  V30 8 1 8 9
M  V30 9 2 9 10
M  V30 10 1 10 11
M  V30 11 1 11 12
M  V30 12 2 12 13
M  V30 13 1 13 14
M  V30 14 2 14 15
M  V30 15 1 15 16
M  V30 16 1 16 17
M  V30 17 1 17 18
M  V30 18 1 18 19
M  V30 19 1 19 20
M  V30 20 1 20 21
M  V30 21 1 15 22
M  V30 22 2 22 23
M  V30 23 1 10 24
M  V30 24 2 24 25
M  V30 25 1 25 26
M  V30 26 1 26 27
M  V30 27 1 27 28
M  V30 28 1 28 29
M  V30 29 1 29 30
M  V30 30 1 30 31
M  V30 31 1 6 1
M  V30 32 1 25 7
M  V30 33 1 31 27
M  V30 34 1 26 4
M  V30 35 1 23 12
M  V30 36 1 21 16
M  V30 37 1 1 32
M  V30 38 1 2 33
M  V30 39 1 6 34
M  V30 40 1 8 35
M  V30 41 1 11 36
M  V30 42 1 13 37
M  V30 43 1 14 38
M  V30 44 1 17 39
M  V30 45 1 17 40
M  V30 46 1 18 41
M  V30 47 1 18 42
M  V30 48 1 19 43
M  V30 49 1 20 44
M  V30 50 1 20 45
M  V30 51 1 21 46
M  V30 52 1 21 47
M  V30 53 1 22 48
M  V30 54 1 27 49
M  V30 55 1 28 50
M  V30 56 1 28 51
M  V30 57 1 29 52
M  V30 58 1 29 53
M  V30 59 1 30 54
M  V30 60 1 30 55
M  V30 61 1 31 56
M  V30 62 1 31 57
M  V30 END BOND
M  V30 END CTAB
M  END
>  <Dataset>  (223) 
ChEMBL_Kinases

>  <Ligand_Instance>  (223) 
nan

>  <PDB_ID>  (223) 
nan

>  <Standardized_SMILES>  (223) 
c1cnc2c(c1)c1cnc(Nc3ccc(N4CCNCC4)cn3)nc1n2C1CCCC1

>  <Name>  (223) 
nan

>  <Pocket>  (223) 
nan

>  <ATP_Site>  (223) 
nan

>  <Peripheral>  (223) 
nan

>  <Num_H_Atoms_ProtBoundConf>  (223) 
nan

>  <Num_Resolved_Atoms>  (223) 
nan

>  <Num_Not_Resolved_Atoms>  (223) 
nan

$$$$
CHEMBL2380835
     RDKit          3D

  0  0  0  0  0  0  0  0  0  0999 V3000
M  V30 BEGIN CTAB
M  V30 COUNTS 52 56 0 0 0
M  V30 BEGIN ATOM
M  V30 1 O 3.859256 -2.607780 0.051397 0
M  V30 2 C 2.815167 -3.289161 -0.119707 0
M  V30 3 N 1.675100 -2.502618 -0.246130 0
M  V30 4 C 1.260562 -1.147024 -0.256791 0
M  V30 5 C 0.924181 -0.473038 0.891122 0
M  V30 6 C 0.493628 0.832348 1.007141 0
M  V30 7 C 0.416157 1.471955 -0.212968 0
M  V30 8 N -0.033957 2.871269 -0.321733 0
M  V30 9 C -0.375356 3.422472 0.930724 0
M  V30 10 C 0.687402 4.241459 1.283225 0
M  V30 11 C 0.597722 4.829968 2.557060 0
M  V30 12 N -0.408150 4.680479 3.461574 0
M  V30 13 C -1.413871 3.865177 3.031657 0
M  V30 14 N -2.469322 3.648483 3.834513 0
M  V30 15 C -3.526251 2.863079 3.486519 0
M  V30 16 O -4.442621 2.759283 4.365830 0
M  V30 17 C -3.499231 2.258722 2.218193 0
M  V30 18 C -4.617492 1.537785 1.888489 0
M  V30 19 C -4.610544 1.021523 0.615021 0
M  V30 20 C -3.578180 1.190278 -0.302336 0
M  V30 21 C -2.533500 1.936425 0.190457 0
M  V30 22 C -2.428150 2.490285 1.431467 0
M  V30 23 C -1.396302 3.261169 1.805090 0
M  V30 24 C 0.728256 0.896710 -1.424747 0
M  V30 25 C 1.160274 -0.437639 -1.463086 0
M  V30 26 C 2.798727 -4.739533 -0.178044 0
M  V30 27 C 4.000717 -5.329900 0.225067 0
M  V30 28 C 4.073847 -6.721072 0.219076 0
M  V30 29 C 3.011638 -7.485214 -0.166426 0
M  V30 30 C 1.795351 -6.931711 -0.575477 0
M  V30 31 C 0.584139 -7.678511 -1.021900 0
M  V30 32 F 0.758694 -9.025024 -0.983396 0
M  V30 33 F 0.355986 -7.217904 -2.332978 0
M  V30 34 F -0.497587 -7.224463 -0.285178 0
M  V30 35 C 1.759214 -5.552230 -0.556976 0
M  V30 36 F 0.615022 -4.977067 -0.949556 0
M  V30 37 H 0.715479 -2.863971 -0.374789 0
M  V30 38 H 1.018478 -1.061609 1.811952 0
M  V30 39 H 0.236488 1.336993 1.903683 0
M  V30 40 H -0.083161 3.388511 -1.225055 0
M  V30 41 H 1.594795 4.539575 0.788545 0
M  V30 42 H 1.365826 5.501279 2.965931 0
M  V30 43 H -2.458713 4.120016 4.774785 0
M  V30 44 H -5.421528 1.400975 2.591733 0
M  V30 45 H -5.511444 0.441233 0.358708 0
M  V30 46 H -3.763558 0.718254 -1.232177 0
M  V30 47 H -1.895965 2.026708 -0.648263 0
M  V30 48 H 0.671279 1.395285 -2.379631 0
M  V30 49 H 1.434667 -1.006328 -2.338324 0
M  V30 50 H 4.869135 -4.791357 0.537707 0
M  V30 51 H 4.998954 -7.211139 0.529459 0
M  V30 52 H 3.053083 -8.569948 -0.176770 0
M  V30 END ATOM
M  V30 BEGIN BOND
M  V30 1 2 1 2
M  V30 2 1 2 3
M  V30 3 1 3 4
M  V30 4 2 4 5
M  V30 5 1 5 6
M  V30 6 2 6 7
M  V30 7 1 7 8
M  V30 8 1 8 9
M  V30 9 2 9 10
M  V30 10 1 10 11
M  V30 11 2 11 12
M  V30 12 1 12 13
M  V30 13 1 13 14
M  V30 14 1 14 15
M  V30 15 2 15 16
M  V30 16 1 15 17
M  V30 17 2 17 18
M  V30 18 1 18 19
M  V30 19 2 19 20
M  V30 20 1 20 21
M  V30 21 2 21 22
M  V30 22 1 22 23
M  V30 23 1 7 24
M  V30 24 2 24 25
M  V30 25 1 2 26
M  V30 26 2 26 27
M  V30 27 1 27 28
M  V30 28 2 28 29
M  V30 29 1 29 30
M  V30 30 1 30 31
M  V30 31 1 31 32
M  V30 32 1 31 33
M  V30 33 1 31 34
M  V30 34 2 30 35
M  V30 35 1 35 36
M  V30 36 1 25 4
M  V30 37 1 35 26
M  V30 38 1 23 9
M  V30 39 2 23 13
M  V30 40 1 22 17
M  V30 41 1 3 37
M  V30 42 1 5 38
M  V30 43 1 6 39
M  V30 44 1 8 40
M  V30 45 1 10 41
M  V30 46 1 11 42
M  V30 47 1 14 43
M  V30 48 1 18 44
M  V30 49 1 19 45
M  V30 50 1 20 46
M  V30 51 1 21 47
M  V30 52 1 24 48
M  V30 53 1 25 49
M  V30 54 1 27 50
M  V30 55 1 28 51
M  V30 56 1 29 52
M  V30 END BOND
M  V30 END CTAB
M  END
>  <Dataset>  (224) 
ChEMBL_Kinases

>  <Ligand_Instance>  (224) 
nan

>  <PDB_ID>  (224) 
nan

>  <Standardized_SMILES>  (224) 
O=C(Nc1ccc(Nc2ccnc3[nH]c(=O)c4ccccc4c23)cc1)c1cccc(C(F)(F)F)c1F

>  <Name>  (224) 
nan

>  <Pocket>  (224) 
nan

>  <ATP_Site>  (224) 
nan

>  <Peripheral>  (224) 
nan

>  <Num_H_Atoms_ProtBoundConf>  (224) 
nan

>  <Num_Resolved_Atoms>  (224) 
nan

>  <Num_Not_Resolved_Atoms>  (224) 
nan

$$$$
CHEMBL3698669
     RDKit          3D

  0  0  0  0  0  0  0  0  0  0999 V3000
M  V30 BEGIN CTAB
M  V30 COUNTS 63 68 0 0 0
M  V30 BEGIN ATOM
M  V30 1 C 0.611616 -4.041335 6.442511 0
M  V30 2 C 1.351063 -3.101533 5.740619 0
M  V30 3 C 1.155578 -2.960267 4.385401 0
M  V30 4 C 1.732771 -2.130130 3.455415 0
M  V30 5 C 2.697317 -1.145017 3.492795 0
M  V30 6 N 3.053638 -0.492893 2.367193 0
M  V30 7 C 2.458098 -0.806830 1.180572 0
M  V30 8 N 2.736026 -0.200419 -0.077631 0
M  V30 9 C 2.012883 0.954854 -0.555441 0
M  V30 10 C 2.292100 1.537486 -1.778285 0
M  V30 11 C 1.594491 2.641519 -2.228838 0
M  V30 12 C 0.608145 3.128035 -1.394320 0
M  V30 13 N -0.170951 4.256254 -1.754734 0
M  V30 14 C -1.245213 4.802577 -0.910003 0
M  V30 15 C -2.116004 5.744821 -1.703019 0
M  V30 16 N -2.500671 5.232816 -2.977873 0
M  V30 17 C -1.355644 4.799926 -3.748853 0
M  V30 18 C -0.118025 5.075977 -2.923340 0
M  V30 19 C 0.319372 2.556479 -0.172019 0
M  V30 20 N 1.026828 1.472202 0.236560 0
M  V30 21 N 1.534576 -1.758113 1.176634 0
M  V30 22 C 1.137905 -2.445466 2.277119 0
M  V30 23 N 0.207830 -3.429706 2.378366 0
M  V30 24 C -0.602232 -4.004389 1.351984 0
M  V30 25 C -2.083937 -3.794076 1.521865 0
M  V30 26 C -2.808133 -3.578552 0.235137 0
M  V30 27 C -1.948696 -3.541451 -0.993374 0
M  V30 28 C -1.106344 -4.749932 -1.216388 0
M  V30 29 C -1.232609 -5.797085 -0.141917 0
M  V30 30 C -0.337593 -5.447795 1.054324 0
M  V30 31 C 0.239509 -3.730575 3.697402 0
M  V30 32 C -0.461372 -4.646918 4.463754 0
M  V30 33 N -0.276283 -4.791599 5.790083 0
M  V30 34 H 0.791876 -4.127587 7.518399 0
M  V30 35 H 2.081949 -2.473333 6.235892 0
M  V30 36 H 3.170707 -0.893806 4.429658 0
M  V30 37 H 3.480770 -0.573848 -0.706232 0
M  V30 38 H 3.084495 1.116787 -2.407873 0
M  V30 39 H 1.806368 3.098618 -3.177415 0
M  V30 40 H -0.721345 5.420789 -0.152229 0
M  V30 41 H -1.799937 4.020445 -0.377215 0
M  V30 42 H -3.067237 5.831449 -1.100134 0
M  V30 43 H -1.726126 6.783132 -1.729445 0
M  V30 44 H -2.952862 6.008284 -3.512328 0
M  V30 45 H -1.311571 5.294765 -4.740475 0
M  V30 46 H -1.415070 3.694006 -3.859345 0
M  V30 47 H 0.740613 4.848169 -3.587215 0
M  V30 48 H -0.013482 6.159469 -2.667793 0
M  V30 49 H -0.412014 2.845771 0.544906 0
M  V30 50 H -0.353880 -3.463318 0.392024 0
M  V30 51 H -2.293547 -2.922968 2.200159 0
M  V30 52 H -2.543144 -4.673053 2.020500 0
M  V30 53 H -3.374025 -2.618169 0.243937 0
M  V30 54 H -3.594723 -4.365687 0.039531 0
M  V30 55 H -1.397204 -2.565536 -1.113922 0
M  V30 56 H -2.685258 -3.509318 -1.851210 0
M  V30 57 H -1.345529 -5.291826 -2.177823 0
M  V30 58 H -0.018410 -4.509596 -1.326732 0
M  V30 59 H -0.858790 -6.768365 -0.523669 0
M  V30 60 H -2.273463 -5.944260 0.192042 0
M  V30 61 H 0.704696 -5.537220 0.701384 0
M  V30 62 H -0.583558 -6.153971 1.845015 0
M  V30 63 H -1.181804 -5.271255 3.996202 0
M  V30 END ATOM
M  V30 BEGIN BOND
M  V30 1 2 1 2
M  V30 2 1 2 3
M  V30 3 1 3 4
M  V30 4 2 4 5
M  V30 5 1 5 6
M  V30 6 2 6 7
M  V30 7 1 7 8
M  V30 8 1 8 9
M  V30 9 2 9 10
M  V30 10 1 10 11
M  V30 11 2 11 12
M  V30 12 1 12 13
M  V30 13 1 13 14
M  V30 14 1 14 15
M  V30 15 1 15 16
M  V30 16 1 16 17
M  V30 17 1 17 18
M  V30 18 1 12 19
M  V30 19 2 19 20
M  V30 20 1 7 21
M  V30 21 2 21 22
M  V30 22 1 22 23
M  V30 23 1 23 24
M  V30 24 1 24 25
M  V30 25 1 25 26
M  V30 26 1 26 27
M  V30 27 1 27 28
M  V30 28 1 28 29
M  V30 29 1 29 30
M  V30 30 1 23 31
M  V30 31 1 31 32
M  V30 32 2 32 33
M  V30 33 1 33 1
M  V30 34 2 31 3
M  V30 35 1 22 4
M  V30 36 1 30 24
M  V30 37 1 20 9
M  V30 38 1 18 13
M  V30 39 1 1 34
M  V30 40 1 2 35
M  V30 41 1 5 36
M  V30 42 1 8 37
M  V30 43 1 10 38
M  V30 44 1 11 39
M  V30 45 1 14 40
M  V30 46 1 14 41
M  V30 47 1 15 42
M  V30 48 1 15 43
M  V30 49 1 16 44
M  V30 50 1 17 45
M  V30 51 1 17 46
M  V30 52 1 18 47
M  V30 53 1 18 48
M  V30 54 1 19 49
M  V30 55 1 24 50
M  V30 56 1 25 51
M  V30 57 1 25 52
M  V30 58 1 26 53
M  V30 59 1 26 54
M  V30 60 1 27 55
M  V30 61 1 27 56
M  V30 62 1 28 57
M  V30 63 1 28 58
M  V30 64 1 29 59
M  V30 65 1 29 60
M  V30 66 1 30 61
M  V30 67 1 30 62
M  V30 68 1 32 63
M  V30 END BOND
M  V30 END CTAB
M  END
>  <Dataset>  (225) 
ChEMBL_Kinases

>  <Ligand_Instance>  (225) 
nan

>  <PDB_ID>  (225) 
nan

>  <Standardized_SMILES>  (225) 
c1cc2c3cnc(Nc4ccc(N5CCNCC5)cn4)nc3n(C3CCCCCC3)c2cn1

>  <Name>  (225) 
nan

>  <Pocket>  (225) 
nan

>  <ATP_Site>  (225) 
nan

>  <Peripheral>  (225) 
nan

>  <Num_H_Atoms_ProtBoundConf>  (225) 
nan

>  <Num_Resolved_Atoms>  (225) 
nan

>  <Num_Not_Resolved_Atoms>  (225) 
nan

$$$$
CHEMBL2380838
     RDKit          3D

  0  0  0  0  0  0  0  0  0  0999 V3000
M  V30 BEGIN CTAB
M  V30 COUNTS 53 57 0 0 0
M  V30 BEGIN ATOM
M  V30 1 C 4.997792 -2.857063 1.800622 0
M  V30 2 O 4.261539 -1.651806 1.811859 0
M  V30 3 C 4.758001 -0.579509 2.536756 0
M  V30 4 C 5.949121 -0.704023 3.227836 0
M  V30 5 C 6.524128 0.296362 3.973550 0
M  V30 6 C 5.847531 1.494856 4.019246 0
M  V30 7 C 4.662834 1.628643 3.335760 0
M  V30 8 F 4.049632 2.817516 3.417018 0
M  V30 9 C 4.074200 0.641284 2.586643 0
M  V30 10 C 2.842466 0.716151 1.851118 0
M  V30 11 O 2.441691 -0.292704 1.211056 0
M  V30 12 N 1.934636 1.796448 1.706594 0
M  V30 13 C 0.806409 1.489173 0.887100 0
M  V30 14 C 0.863216 1.715415 -0.471912 0
M  V30 15 C -0.156221 1.460080 -1.359447 0
M  V30 16 C -1.309146 0.939239 -0.821402 0
M  V30 17 N -2.506483 0.596765 -1.535470 0
M  V30 18 C -3.745435 0.010453 -1.245357 0
M  V30 19 C -4.651187 1.091512 -1.313262 0
M  V30 20 C -6.001375 0.870155 -1.000575 0
M  V30 21 N -6.422919 -0.352750 -0.642643 0
M  V30 22 C -5.581617 -1.371968 -0.579997 0
M  V30 23 N -5.984656 -2.597139 -0.226271 0
M  V30 24 C -5.165492 -3.661079 -0.155431 0
M  V30 25 O -5.570128 -4.803399 0.183518 0
M  V30 26 C -3.820144 -3.440527 -0.480292 0
M  V30 27 C -2.999682 -4.546164 -0.457961 0
M  V30 28 C -1.695673 -4.334279 -0.833508 0
M  V30 29 C -1.165262 -3.099666 -1.227528 0
M  V30 30 C -2.103247 -2.098168 -1.196385 0
M  V30 31 C -3.399044 -2.198496 -0.840474 0
M  V30 32 C -4.268828 -1.186343 -0.880775 0
M  V30 33 C -1.381570 0.705909 0.544949 0
M  V30 34 C -0.351795 0.966373 1.424605 0
M  V30 35 H 6.025546 -2.611428 1.439202 0
M  V30 36 H 4.534077 -3.597538 1.110308 0
M  V30 37 H 4.961753 -3.289497 2.803082 0
M  V30 38 H 6.475802 -1.654006 3.185573 0
M  V30 39 H 7.453224 0.163004 4.498532 0
M  V30 40 H 6.254818 2.308521 4.588271 0
M  V30 41 H 2.176972 2.676633 2.198380 0
M  V30 42 H 1.762543 2.129494 -0.943458 0
M  V30 43 H -0.178405 1.609662 -2.412476 0
M  V30 44 H -2.391789 0.866926 -2.563207 0
M  V30 45 H -4.545457 2.149801 -1.572948 0
M  V30 46 H -6.797347 1.598128 -1.010509 0
M  V30 47 H -7.006677 -2.736973 0.011368 0
M  V30 48 H -3.390639 -5.502573 -0.158766 0
M  V30 49 H -1.075609 -5.231985 -0.801142 0
M  V30 50 H -0.128903 -3.147819 -1.483006 0
M  V30 51 H -1.575447 -1.276955 -1.578289 0
M  V30 52 H -2.273797 0.293625 1.022435 0
M  V30 53 H -0.427889 0.777746 2.484715 0
M  V30 END ATOM
M  V30 BEGIN BOND
M  V30 1 1 1 2
M  V30 2 1 2 3
M  V30 3 2 3 4
M  V30 4 1 4 5
M  V30 5 2 5 6
M  V30 6 1 6 7
M  V30 7 1 7 8
M  V30 8 2 7 9
M  V30 9 1 9 10
M  V30 10 2 10 11
M  V30 11 1 10 12
M  V30 12 1 12 13
M  V30 13 2 13 14
M  V30 14 1 14 15
M  V30 15 2 15 16
M  V30 16 1 16 17
M  V30 17 1 17 18
M  V30 18 2 18 19
M  V30 19 1 19 20
M  V30 20 2 20 21
M  V30 21 1 21 22
M  V30 22 1 22 23
M  V30 23 1 23 24
M  V30 24 2 24 25
M  V30 25 1 24 26
M  V30 26 2 26 27
M  V30 27 1 27 28
M  V30 28 2 28 29
M  V30 29 1 29 30
M  V30 30 2 30 31
M  V30 31 1 31 32
M  V30 32 1 16 33
M  V30 33 2 33 34
M  V30 34 1 9 3
M  V30 35 1 34 13
M  V30 36 1 32 18
M  V30 37 2 32 22
M  V30 38 1 31 26
M  V30 39 1 1 35
M  V30 40 1 1 36
M  V30 41 1 1 37
M  V30 42 1 4 38
M  V30 43 1 5 39
M  V30 44 1 6 40
M  V30 45 1 12 41
M  V30 46 1 14 42
M  V30 47 1 15 43
M  V30 48 1 17 44
M  V30 49 1 19 45
M  V30 50 1 20 46
M  V30 51 1 23 47
M  V30 52 1 27 48
M  V30 53 1 28 49
M  V30 54 1 29 50
M  V30 55 1 30 51
M  V30 56 1 33 52
M  V30 57 1 34 53
M  V30 END BOND
M  V30 END CTAB
M  END
>  <Dataset>  (226) 
ChEMBL_Kinases

>  <Ligand_Instance>  (226) 
nan

>  <PDB_ID>  (226) 
nan

>  <Standardized_SMILES>  (226) 
COc1cccc(F)c1C(=O)Nc1ccc(Nc2ccnc3[nH]c(=O)c4ccccc4c23)cc1

>  <Name>  (226) 
nan

>  <Pocket>  (226) 
nan

>  <ATP_Site>  (226) 
nan

>  <Peripheral>  (226) 
nan

>  <Num_H_Atoms_ProtBoundConf>  (226) 
nan

>  <Num_Resolved_Atoms>  (226) 
nan

>  <Num_Not_Resolved_Atoms>  (226) 
nan

$$$$
CHEMBL2380839
     RDKit          3D

  0  0  0  0  0  0  0  0  0  0999 V3000
M  V30 BEGIN CTAB
M  V30 COUNTS 53 57 0 0 0
M  V30 BEGIN ATOM
M  V30 1 C 5.484043 -0.164365 -3.505299 0
M  V30 2 O 4.788292 -0.309277 -2.293700 0
M  V30 3 C 5.435050 -0.823820 -1.194635 0
M  V30 4 C 6.757928 -1.195511 -1.280619 0
M  V30 5 C 7.425889 -1.712157 -0.195873 0
M  V30 6 C 6.698325 -1.832717 0.965795 0
M  V30 7 C 5.382460 -1.460216 1.041812 0
M  V30 8 C 4.694823 -0.937757 -0.042606 0
M  V30 9 C 3.307145 -0.584872 0.179275 0
M  V30 10 O 2.772355 -0.756789 1.313595 0
M  V30 11 N 2.366817 -0.042422 -0.704616 0
M  V30 12 C 1.026188 0.260751 -0.361231 0
M  V30 13 C 0.663863 1.497804 0.124027 0
M  V30 14 C -0.608773 1.885060 0.481043 0
M  V30 15 C -1.578227 0.922693 0.324791 0
M  V30 16 N -2.997057 1.114250 0.632839 0
M  V30 17 C -4.137473 0.298906 0.633063 0
M  V30 18 C -4.861490 0.749372 -0.487637 0
M  V30 19 C -6.049393 0.094883 -0.840739 0
M  V30 20 N -6.478636 -0.948322 -0.107891 0
M  V30 21 C -5.814226 -1.394474 0.961733 0
M  V30 22 N -6.217964 -2.428861 1.712305 0
M  V30 23 C -5.558864 -2.877777 2.793627 0
M  V30 24 O -5.968806 -3.854215 3.470252 0
M  V30 25 C -4.382300 -2.200913 3.135562 0
M  V30 26 C -3.741113 -2.629644 4.277500 0
M  V30 27 C -2.617668 -1.918238 4.638174 0
M  V30 28 C -2.112939 -0.835346 3.947038 0
M  V30 29 C -2.841141 -0.511430 2.829501 0
M  V30 30 C -3.951490 -1.143898 2.383477 0
M  V30 31 C -4.660870 -0.752643 1.303400 0
M  V30 32 C -1.256869 -0.348692 -0.164829 0
M  V30 33 C 0.034175 -0.688759 -0.508999 0
M  V30 34 H 4.844593 0.396434 -4.245712 0
M  V30 35 H 6.402279 0.453940 -3.421726 0
M  V30 36 H 5.717058 -1.143998 -3.973868 0
M  V30 37 H 7.261901 -1.069341 -2.229654 0
M  V30 38 H 8.461446 -1.982035 -0.334975 0
M  V30 39 H 7.193984 -2.235664 1.836460 0
M  V30 40 H 4.889292 -1.596781 2.017039 0
M  V30 41 H 2.677557 0.151764 -1.678667 0
M  V30 42 H 1.431420 2.249425 0.244600 0
M  V30 43 H -0.935795 2.825205 0.859378 0
M  V30 44 H -3.172598 2.125700 0.930186 0
M  V30 45 H -4.719768 1.554131 -1.219754 0
M  V30 46 H -6.717673 0.306144 -1.657012 0
M  V30 47 H -7.109006 -2.911090 1.425993 0
M  V30 48 H -4.130525 -3.473469 4.822054 0
M  V30 49 H -2.140118 -2.293369 5.546467 0
M  V30 50 H -1.228472 -0.412825 4.389571 0
M  V30 51 H -2.378260 0.355066 2.470034 0
M  V30 52 H -2.018351 -1.106494 -0.288278 0
M  V30 53 H 0.255049 -1.677327 -0.884668 0
M  V30 END ATOM
M  V30 BEGIN BOND
M  V30 1 1 1 2
M  V30 2 1 2 3
M  V30 3 2 3 4
M  V30 4 1 4 5
M  V30 5 2 5 6
M  V30 6 1 6 7
M  V30 7 2 7 8
M  V30 8 1 8 9
M  V30 9 2 9 10
M  V30 10 1 9 11
M  V30 11 1 11 12
M  V30 12 2 12 13
M  V30 13 1 13 14
M  V30 14 2 14 15
M  V30 15 1 15 16
M  V30 16 1 16 17
M  V30 17 2 17 18
M  V30 18 1 18 19
M  V30 19 2 19 20
M  V30 20 1 20 21
M  V30 21 1 21 22
M  V30 22 1 22 23
M  V30 23 2 23 24
M  V30 24 1 23 25
M  V30 25 2 25 26
M  V30 26 1 26 27
M  V30 27 2 27 28
M  V30 28 1 28 29
M  V30 29 2 29 30
M  V30 30 1 30 31
M  V30 31 1 15 32
M  V30 32 2 32 33
M  V30 33 1 8 3
M  V30 34 1 33 12
M  V30 35 1 31 17
M  V30 36 2 31 21
M  V30 37 1 30 25
M  V30 38 1 1 34
M  V30 39 1 1 35
M  V30 40 1 1 36
M  V30 41 1 4 37
M  V30 42 1 5 38
M  V30 43 1 6 39
M  V30 44 1 7 40
M  V30 45 1 11 41
M  V30 46 1 13 42
M  V30 47 1 14 43
M  V30 48 1 16 44
M  V30 49 1 18 45
M  V30 50 1 19 46
M  V30 51 1 22 47
M  V30 52 1 26 48
M  V30 53 1 27 49
M  V30 54 1 28 50
M  V30 55 1 29 51
M  V30 56 1 32 52
M  V30 57 1 33 53
M  V30 END BOND
M  V30 END CTAB
M  END
>  <Dataset>  (227) 
ChEMBL_Kinases

>  <Ligand_Instance>  (227) 
nan

>  <PDB_ID>  (227) 
nan

>  <Standardized_SMILES>  (227) 
COc1ccccc1C(=O)Nc1ccc(Nc2ccnc3[nH]c(=O)c4ccccc4c23)cc1

>  <Name>  (227) 
nan

>  <Pocket>  (227) 
nan

>  <ATP_Site>  (227) 
nan

>  <Peripheral>  (227) 
nan

>  <Num_H_Atoms_ProtBoundConf>  (227) 
nan

>  <Num_Resolved_Atoms>  (227) 
nan

>  <Num_Not_Resolved_Atoms>  (227) 
nan

$$$$
CHEMBL2380577
     RDKit          3D

  0  0  0  0  0  0  0  0  0  0999 V3000
M  V30 BEGIN CTAB
M  V30 COUNTS 37 39 0 0 0
M  V30 BEGIN ATOM
M  V30 1 C -2.755760 -4.915756 1.672660 0
M  V30 2 C -1.764742 -3.822143 1.335656 0
M  V30 3 O -0.544501 -4.185649 1.996611 0
M  V30 4 C 0.594015 -3.412508 1.913440 0
M  V30 5 C 1.781687 -3.757353 2.551085 0
M  V30 6 C 2.913138 -2.968765 2.455684 0
M  V30 7 C 2.909520 -1.784997 1.709600 0
M  V30 8 N 3.816995 -0.837911 1.435122 0
M  V30 9 N 3.270359 0.100037 0.651354 0
M  V30 10 C 1.974311 -0.229979 0.399943 0
M  V30 11 C 1.009332 0.512821 -0.409195 0
M  V30 12 C 0.153209 -0.057632 -1.352802 0
M  V30 13 C -0.726982 0.724726 -2.071519 0
M  V30 14 C -0.786894 2.090442 -1.879385 0
M  V30 15 C 0.044794 2.688238 -0.954703 0
M  V30 16 S 0.048754 4.424730 -0.631893 0
M  V30 17 N -1.072742 4.799701 0.623678 0
M  V30 18 O -0.209952 5.207346 -1.886525 0
M  V30 19 O 1.433276 4.801679 -0.122523 0
M  V30 20 C 0.935293 1.893605 -0.228139 0
M  V30 21 C 1.740216 -1.418343 1.064744 0
M  V30 22 C 0.622866 -2.232561 1.181267 0
M  V30 23 H -2.691374 -5.779166 0.982173 0
M  V30 24 H -3.756813 -4.426983 1.685807 0
M  V30 25 H -2.548526 -5.263919 2.709099 0
M  V30 26 H -1.601680 -3.820606 0.229904 0
M  V30 27 H -2.105658 -2.827753 1.618228 0
M  V30 28 H 1.808560 -4.668259 3.133728 0
M  V30 29 H 3.837752 -3.259657 2.966231 0
M  V30 30 H 4.806392 -0.849190 1.792660 0
M  V30 31 H 0.220368 -1.131280 -1.484220 0
M  V30 32 H -1.373276 0.233566 -2.794943 0
M  V30 33 H -1.466343 2.724613 -2.428635 0
M  V30 34 H -1.583811 3.918760 0.906976 0
M  V30 35 H -0.616486 5.184889 1.471468 0
M  V30 36 H 1.594328 2.374022 0.505810 0
M  V30 37 H -0.311977 -1.985189 0.694525 0
M  V30 END ATOM
M  V30 BEGIN BOND
M  V30 1 1 1 2
M  V30 2 1 2 3
M  V30 3 1 3 4
M  V30 4 2 4 5
M  V30 5 1 5 6
M  V30 6 2 6 7
M  V30 7 1 7 8
M  V30 8 1 8 9
M  V30 9 2 9 10
M  V30 10 1 10 11
M  V30 11 2 11 12
M  V30 12 1 12 13
M  V30 13 2 13 14
M  V30 14 1 14 15
M  V30 15 1 15 16
M  V30 16 1 16 17
M  V30 17 2 16 18
M  V30 18 2 16 19
M  V30 19 2 15 20
M  V30 20 1 10 21
M  V30 21 2 21 22
M  V30 22 1 22 4
M  V30 23 1 21 7
M  V30 24 1 20 11
M  V30 25 1 1 23
M  V30 26 1 1 24
M  V30 27 1 1 25
M  V30 28 1 2 26
M  V30 29 1 2 27
M  V30 30 1 5 28
M  V30 31 1 6 29
M  V30 32 1 8 30
M  V30 33 1 12 31
M  V30 34 1 13 32
M  V30 35 1 14 33
M  V30 36 1 17 34
M  V30 37 1 17 35
M  V30 38 1 20 36
M  V30 39 1 22 37
M  V30 END BOND
M  V30 END CTAB
M  END
>  <Dataset>  (228) 
ChEMBL_Kinases

>  <Ligand_Instance>  (228) 
nan

>  <PDB_ID>  (228) 
nan

>  <Standardized_SMILES>  (228) 
CCOc1ccc2[nH]nc(-c3cccc(S(N)(=O)=O)c3)c2c1

>  <Name>  (228) 
nan

>  <Pocket>  (228) 
nan

>  <ATP_Site>  (228) 
nan

>  <Peripheral>  (228) 
nan

>  <Num_H_Atoms_ProtBoundConf>  (228) 
nan

>  <Num_Resolved_Atoms>  (228) 
nan

>  <Num_Not_Resolved_Atoms>  (228) 
nan

$$$$
CHEMBL2380843
     RDKit          3D

  0  0  0  0  0  0  0  0  0  0999 V3000
M  V30 BEGIN CTAB
M  V30 COUNTS 37 40 0 0 0
M  V30 BEGIN ATOM
M  V30 1 N -1.097636 -5.585196 2.310344 0
M  V30 2 C -0.307743 -4.453712 1.943458 0
M  V30 3 C -0.752394 -3.705487 0.873259 0
M  V30 4 C 0.014278 -2.609159 0.518899 0
M  V30 5 C 1.171748 -2.237643 1.167072 0
M  V30 6 N 1.917575 -1.078785 0.737020 0
M  V30 7 C 1.727583 -0.125893 -0.262528 0
M  V30 8 C 2.690757 -0.423284 -1.250462 0
M  V30 9 C 2.734638 0.307969 -2.437834 0
M  V30 10 N 1.879376 1.306405 -2.686256 0
M  V30 11 C 0.957651 1.607026 -1.756059 0
M  V30 12 N 0.069255 2.597328 -1.936056 0
M  V30 13 C -0.871243 2.953012 -1.044541 0
M  V30 14 O -1.682567 3.879464 -1.251395 0
M  V30 15 C -0.901197 2.222555 0.152171 0
M  V30 16 C -1.826451 2.626554 1.084133 0
M  V30 17 C -1.814035 1.948518 2.282446 0
M  V30 18 C -0.936949 0.902942 2.596046 0
M  V30 19 C -0.074938 0.611564 1.569716 0
M  V30 20 C -0.009307 1.208978 0.360798 0
M  V30 21 C 0.904882 0.900811 -0.586168 0
M  V30 22 C 1.592908 -2.995755 2.226278 0
M  V30 23 C 0.848688 -4.072125 2.581458 0
M  V30 24 H -1.666805 -5.427859 3.172610 0
M  V30 25 H -0.894523 -6.330432 1.579042 0
M  V30 26 H -1.662377 -3.920419 0.292567 0
M  V30 27 H -0.327270 -2.006756 -0.328659 0
M  V30 28 H 2.807462 -0.894155 1.301251 0
M  V30 29 H 3.491157 -1.181150 -1.287805 0
M  V30 30 H 3.424414 0.164348 -3.250908 0
M  V30 31 H 0.091463 3.150637 -2.834551 0
M  V30 32 H -2.504727 3.424521 0.863525 0
M  V30 33 H -2.559010 2.289242 2.998363 0
M  V30 34 H -1.080026 0.500618 3.582964 0
M  V30 35 H 0.546775 -0.122253 1.985421 0
M  V30 36 H 2.503832 -2.716418 2.748407 0
M  V30 37 H 1.192403 -4.672439 3.428945 0
M  V30 END ATOM
M  V30 BEGIN BOND
M  V30 1 1 1 2
M  V30 2 2 2 3
M  V30 3 1 3 4
M  V30 4 2 4 5
M  V30 5 1 5 6
M  V30 6 1 6 7
M  V30 7 2 7 8
M  V30 8 1 8 9
M  V30 9 2 9 10
M  V30 10 1 10 11
M  V30 11 1 11 12
M  V30 12 1 12 13
M  V30 13 2 13 14
M  V30 14 1 13 15
M  V30 15 2 15 16
M  V30 16 1 16 17
M  V30 17 2 17 18
M  V30 18 1 18 19
M  V30 19 2 19 20
M  V30 20 1 20 21
M  V30 21 1 5 22
M  V30 22 2 22 23
M  V30 23 1 23 2
M  V30 24 1 21 7
M  V30 25 2 21 11
M  V30 26 1 20 15
M  V30 27 1 1 24
M  V30 28 1 1 25
M  V30 29 1 3 26
M  V30 30 1 4 27
M  V30 31 1 6 28
M  V30 32 1 8 29
M  V30 33 1 9 30
M  V30 34 1 12 31
M  V30 35 1 16 32
M  V30 36 1 17 33
M  V30 37 1 18 34
M  V30 38 1 19 35
M  V30 39 1 22 36
M  V30 40 1 23 37
M  V30 END BOND
M  V30 END CTAB
M  END
>  <Dataset>  (229) 
ChEMBL_Kinases

>  <Ligand_Instance>  (229) 
nan

>  <PDB_ID>  (229) 
nan

>  <Standardized_SMILES>  (229) 
Nc1ccc(Nc2ccnc3[nH]c(=O)c4ccccc4c23)cc1

>  <Name>  (229) 
nan

>  <Pocket>  (229) 
nan

>  <ATP_Site>  (229) 
nan

>  <Peripheral>  (229) 
nan

>  <Num_H_Atoms_ProtBoundConf>  (229) 
nan

>  <Num_Resolved_Atoms>  (229) 
nan

>  <Num_Not_Resolved_Atoms>  (229) 
nan

$$$$
CHEMBL4466764
     RDKit          3D

  0  0  0  0  0  0  0  0  0  0999 V3000
M  V30 BEGIN CTAB
M  V30 COUNTS 48 51 0 0 0
M  V30 BEGIN ATOM
M  V30 1 N 1.654666 -6.280413 1.156368 0
M  V30 2 C 2.830906 -5.500794 0.971702 0
M  V30 3 O 3.875194 -6.183544 1.039699 0
M  V30 4 C 2.785251 -4.063514 0.731306 0
M  V30 5 C 3.988299 -3.411407 0.566949 0
M  V30 6 C 3.898339 -2.050074 0.341336 0
M  V30 7 Cl 5.348803 -1.110925 0.117377 0
M  V30 8 C 2.682312 -1.365408 0.280750 0
M  V30 9 C 2.363004 -0.036672 0.070968 0
M  V30 10 Cl 3.461567 1.279357 -0.200677 0
M  V30 11 C 0.974268 -0.027456 0.132120 0
M  V30 12 C 0.219128 1.188583 -0.038984 0
M  V30 13 C -0.404425 2.216473 -0.165742 0
M  V30 14 C -1.159454 3.485562 -0.303757 0
M  V30 15 C -0.172584 4.647621 -0.486742 0
M  V30 16 O 0.822749 4.451236 0.438719 0
M  V30 17 C 0.417683 4.270726 1.737466 0
M  V30 18 C -0.929125 3.676242 1.940737 0
M  V30 19 O -1.818807 3.819503 0.886845 0
M  V30 20 N 0.468262 -1.244951 0.360398 0
M  V30 21 C -0.905707 -1.649255 0.490612 0 CFG=1
M  V30 22 C -1.351227 -1.929948 1.891371 0
M  V30 23 C -2.716812 -2.578255 1.815885 0
M  V30 24 C -3.186439 -2.692290 0.402491 0
M  V30 25 N -3.109900 -1.500215 -0.377002 0
M  V30 26 C -1.900640 -0.731899 -0.138755 0
M  V30 27 C 1.517664 -2.086454 0.455006 0
M  V30 28 N 1.595866 -3.424331 0.677192 0
M  V30 29 H 0.638005 -6.050750 1.249025 0
M  V30 30 H 0.666319 -5.960198 1.239259 0
M  V30 31 H 4.954637 -3.884895 0.603188 0
M  V30 32 H -1.828247 3.351720 -1.152646 0
M  V30 33 H -0.735523 5.584029 -0.310524 0
M  V30 34 H 0.290803 4.589361 -1.487423 0
M  V30 35 H 0.571540 5.191653 2.373807 0
M  V30 36 H 1.164159 3.548191 2.184194 0
M  V30 37 H -0.880862 2.597193 2.259514 0
M  V30 38 H -1.404346 4.197145 2.810269 0
M  V30 39 H -0.983418 -2.605809 -0.080848 0
M  V30 40 H -1.485224 -0.931775 2.392485 0
M  V30 41 H -0.610491 -2.543013 2.439519 0
M  V30 42 H -2.564143 -3.637220 2.177860 0
M  V30 43 H -3.462672 -2.128953 2.495748 0
M  V30 44 H -2.765987 -3.594308 -0.118984 0
M  V30 45 H -4.287788 -2.936648 0.472123 0
M  V30 46 H -3.964746 -0.936845 -0.304972 0
M  V30 47 H -1.582718 -0.267704 -1.087455 0
M  V30 48 H -2.234115 0.084120 0.546948 0
M  V30 END ATOM
M  V30 BEGIN BOND
M  V30 1 1 1 2
M  V30 2 2 2 3
M  V30 3 1 2 4
M  V30 4 2 4 5
M  V30 5 1 5 6
M  V30 6 1 6 7
M  V30 7 2 6 8
M  V30 8 1 8 9
M  V30 9 1 9 10
M  V30 10 2 9 11
M  V30 11 1 11 12
M  V30 12 3 12 13
M  V30 13 1 13 14
M  V30 14 1 14 15
M  V30 15 1 15 16
M  V30 16 1 16 17
M  V30 17 1 17 18
M  V30 18 1 18 19
M  V30 19 1 11 20
M  V30 20 1 20 21
M  V30 21 1 21 22
M  V30 22 1 22 23
M  V30 23 1 23 24
M  V30 24 1 24 25
M  V30 25 1 25 26
M  V30 26 1 20 27
M  V30 27 2 27 28
M  V30 28 1 28 4
M  V30 29 1 27 8
M  V30 30 1 19 14
M  V30 31 1 26 21
M  V30 32 1 1 29
M  V30 33 1 1 30
M  V30 34 1 5 31
M  V30 35 1 14 32
M  V30 36 1 15 33
M  V30 37 1 15 34
M  V30 38 1 17 35
M  V30 39 1 17 36
M  V30 40 1 18 37
M  V30 41 1 18 38
M  V30 42 1 21 39 CFG=3
M  V30 43 1 22 40
M  V30 44 1 22 41
M  V30 45 1 23 42
M  V30 46 1 23 43
M  V30 47 1 24 44
M  V30 48 1 24 45
M  V30 49 1 25 46
M  V30 50 1 26 47
M  V30 51 1 26 48
M  V30 END BOND
M  V30 END CTAB
M  END
>  <Dataset>  (230) 
ChEMBL_Kinases

>  <Ligand_Instance>  (230) 
nan

>  <PDB_ID>  (230) 
nan

>  <Standardized_SMILES>  (230) 
NC(=O)c1cc(Cl)c2c(Cl)c(C#CC3COCCO3)n([C@H]3CCCNC3)c2n1

>  <Name>  (230) 
nan

>  <Pocket>  (230) 
nan

>  <ATP_Site>  (230) 
nan

>  <Peripheral>  (230) 
nan

>  <Num_H_Atoms_ProtBoundConf>  (230) 
nan

>  <Num_Resolved_Atoms>  (230) 
nan

>  <Num_Not_Resolved_Atoms>  (230) 
nan

$$$$
CHEMBL3698668
     RDKit          3D

  0  0  0  0  0  0  0  0  0  0999 V3000
M  V30 BEGIN CTAB
M  V30 COUNTS 57 62 0 0 0
M  V30 BEGIN ATOM
M  V30 1 C 1.453993 -2.312522 -2.241326 0
M  V30 2 C 2.613900 -1.399398 -2.437725 0
M  V30 3 N 3.239760 -0.999626 -1.215277 0
M  V30 4 C 4.423746 -1.387810 -0.750886 0
M  V30 5 C 5.411988 -2.240248 -1.216691 0
M  V30 6 N 6.533336 -2.439035 -0.504186 0
M  V30 7 C 6.735654 -1.821296 0.679913 0
M  V30 8 C 5.769447 -0.958351 1.182981 0
M  V30 9 C 4.605802 -0.736480 0.468772 0
M  V30 10 C 3.485020 0.058915 0.720263 0
M  V30 11 C 3.122065 0.897635 1.740220 0
M  V30 12 N 1.922648 1.548842 1.686391 0
M  V30 13 C 1.097097 1.356941 0.615586 0
M  V30 14 N -0.162993 2.023975 0.531523 0
M  V30 15 C -1.281300 1.348445 1.094978 0
M  V30 16 C -1.122303 0.102889 1.690122 0
M  V30 17 C -2.196864 -0.565850 2.241338 0
M  V30 18 C -3.463832 -0.016854 2.218104 0
M  V30 19 N -4.656221 -0.576145 2.737935 0
M  V30 20 C -5.958249 0.095307 2.657616 0
M  V30 21 C -7.079633 -0.911156 2.781907 0
M  V30 22 N -6.745452 -2.079113 1.987463 0
M  V30 23 C -5.599233 -2.773170 2.509160 0
M  V30 24 C -4.753969 -1.859211 3.405802 0
M  V30 25 C -3.571843 1.219372 1.617478 0
M  V30 26 N -2.522553 1.868928 1.080951 0
M  V30 27 N 1.471228 0.529037 -0.376614 0
M  V30 28 C 2.650326 -0.137261 -0.365898 0
M  V30 29 C 3.494272 -1.676345 -3.617617 0
M  V30 30 C 2.436567 -0.943076 -4.458417 0
M  V30 31 C 2.179107 -0.133316 -3.193197 0
M  V30 32 H 1.344238 -3.076270 -3.050454 0
M  V30 33 H 1.466481 -2.799792 -1.232962 0
M  V30 34 H 0.505275 -1.708379 -2.246036 0
M  V30 35 H 5.267975 -2.746558 -2.167174 0
M  V30 36 H 7.645948 -1.980184 1.262378 0
M  V30 37 H 5.919349 -0.464400 2.118798 0
M  V30 38 H 3.787249 1.034846 2.574854 0
M  V30 39 H -0.305320 2.952293 0.092645 0
M  V30 40 H -0.155432 -0.368714 1.734372 0
M  V30 41 H -2.125756 -1.543383 2.719146 0
M  V30 42 H -6.047408 0.947096 3.332252 0
M  V30 43 H -6.004894 0.459441 1.594979 0
M  V30 44 H -7.989205 -0.414913 2.403907 0
M  V30 45 H -7.228024 -1.198088 3.850844 0
M  V30 46 H -7.543896 -2.722939 1.959692 0
M  V30 47 H -4.979116 -3.199544 1.694249 0
M  V30 48 H -5.954396 -3.601340 3.151976 0
M  V30 49 H -5.330761 -1.744235 4.361512 0
M  V30 50 H -3.791698 -2.360051 3.562822 0
M  V30 51 H -4.473742 1.803151 1.503828 0
M  V30 52 H 4.386568 -1.031725 -3.607381 0
M  V30 53 H 3.593080 -2.710393 -3.956866 0
M  V30 54 H 2.875227 -0.365367 -5.298122 0
M  V30 55 H 1.588111 -1.604128 -4.759473 0
M  V30 56 H 2.946245 0.676661 -3.157243 0
M  V30 57 H 1.134405 0.169139 -3.022121 0
M  V30 END ATOM
M  V30 BEGIN BOND
M  V30 1 1 1 2
M  V30 2 1 2 3
M  V30 3 1 3 4
M  V30 4 2 4 5
M  V30 5 1 5 6
M  V30 6 2 6 7
M  V30 7 1 7 8
M  V30 8 2 8 9
M  V30 9 1 9 10
M  V30 10 2 10 11
M  V30 11 1 11 12
M  V30 12 2 12 13
M  V30 13 1 13 14
M  V30 14 1 14 15
M  V30 15 2 15 16
M  V30 16 1 16 17
M  V30 17 2 17 18
M  V30 18 1 18 19
M  V30 19 1 19 20
M  V30 20 1 20 21
M  V30 21 1 21 22
M  V30 22 1 22 23
M  V30 23 1 23 24
M  V30 24 1 18 25
M  V30 25 2 25 26
M  V30 26 1 13 27
M  V30 27 2 27 28
M  V30 28 1 2 29
M  V30 29 1 29 30
M  V30 30 1 30 31
M  V30 31 1 31 2
M  V30 32 1 28 3
M  V30 33 1 9 4
M  V30 34 1 28 10
M  V30 35 1 26 15
M  V30 36 1 24 19
M  V30 37 1 1 32
M  V30 38 1 1 33
M  V30 39 1 1 34
M  V30 40 1 5 35
M  V30 41 1 7 36
M  V30 42 1 8 37
M  V30 43 1 11 38
M  V30 44 1 14 39
M  V30 45 1 16 40
M  V30 46 1 17 41
M  V30 47 1 20 42
M  V30 48 1 20 43
M  V30 49 1 21 44
M  V30 50 1 21 45
M  V30 51 1 22 46
M  V30 52 1 23 47
M  V30 53 1 23 48
M  V30 54 1 24 49
M  V30 55 1 24 50
M  V30 56 1 25 51
M  V30 57 1 29 52
M  V30 58 1 29 53
M  V30 59 1 30 54
M  V30 60 1 30 55
M  V30 61 1 31 56
M  V30 62 1 31 57
M  V30 END BOND
M  V30 END CTAB
M  END
>  <Dataset>  (231) 
ChEMBL_Kinases

>  <Ligand_Instance>  (231) 
nan

>  <PDB_ID>  (231) 
nan

>  <Standardized_SMILES>  (231) 
CC1(n2c3cnccc3c3cnc(Nc4ccc(N5CCNCC5)cn4)nc32)CCC1

>  <Name>  (231) 
nan

>  <Pocket>  (231) 
nan

>  <ATP_Site>  (231) 
nan

>  <Peripheral>  (231) 
nan

>  <Num_H_Atoms_ProtBoundConf>  (231) 
nan

>  <Num_Resolved_Atoms>  (231) 
nan

>  <Num_Not_Resolved_Atoms>  (231) 
nan

$$$$
CHEMBL2380846
     RDKit          3D

  0  0  0  0  0  0  0  0  0  0999 V3000
M  V30 BEGIN CTAB
M  V30 COUNTS 48 52 0 0 0
M  V30 BEGIN ATOM
M  V30 1 O -0.901859 -4.215871 3.081644 0
M  V30 2 C -1.828812 -4.192377 2.219686 0
M  V30 3 N -1.618473 -3.302790 1.130329 0
M  V30 4 C -0.494749 -2.444468 0.901960 0
M  V30 5 C -0.570224 -1.171220 1.431286 0
M  V30 6 C 0.538092 -0.383721 1.183299 0
M  V30 7 C 1.635090 -0.818939 0.468733 0
M  V30 8 N 2.763987 0.091595 0.258033 0
M  V30 9 C 3.005156 1.400191 0.608527 0
M  V30 10 C 3.964361 1.343942 1.642121 0
M  V30 11 C 4.386119 2.523109 2.274549 0
M  V30 12 N 3.899868 3.725474 1.923536 0
M  V30 13 C 2.990586 3.802096 0.941282 0
M  V30 14 N 2.489532 4.984364 0.562232 0
M  V30 15 C 1.585311 5.120912 -0.422534 0
M  V30 16 O 1.128354 6.239070 -0.757120 0
M  V30 17 C 1.176034 3.942809 -1.060980 0
M  V30 18 C 0.294768 4.110483 -2.104233 0
M  V30 19 C -0.065111 2.965383 -2.778044 0
M  V30 20 C 0.406436 1.685400 -2.465310 0
M  V30 21 C 1.275064 1.679043 -1.401691 0
M  V30 22 C 1.682374 2.747433 -0.676460 0
M  V30 23 C 2.583993 2.657868 0.326074 0
M  V30 24 C 1.664872 -2.094904 -0.038884 0
M  V30 25 N 0.581857 -2.855733 0.206801 0
M  V30 26 C -3.046090 -4.989327 2.276338 0
M  V30 27 C -4.074953 -4.989193 1.356918 0
M  V30 28 C -5.183059 -5.792074 1.519586 0
M  V30 29 C -5.272177 -6.615636 2.622360 0
M  V30 30 C -4.259253 -6.635408 3.555735 0
M  V30 31 C -3.145467 -5.825894 3.388614 0
M  V30 32 H -2.280978 -3.171483 0.349875 0
M  V30 33 H -1.425899 -0.824357 1.991507 0
M  V30 34 H 0.509356 0.634453 1.590824 0
M  V30 35 H 3.571608 -0.345983 -0.288401 0
M  V30 36 H 4.504301 0.502029 2.104026 0
M  V30 37 H 5.110159 2.595490 3.071277 0
M  V30 38 H 2.794355 5.870989 1.034634 0
M  V30 39 H -0.078432 5.086726 -2.360932 0
M  V30 40 H -0.765367 3.125402 -3.597718 0
M  V30 41 H 0.010476 0.918083 -3.109593 0
M  V30 42 H 1.574606 0.674508 -1.359043 0
M  V30 43 H 2.525981 -2.433077 -0.598489 0
M  V30 44 H -3.954387 -4.326522 0.513267 0
M  V30 45 H -5.956190 -5.745059 0.761329 0
M  V30 46 H -6.181171 -7.226542 2.687303 0
M  V30 47 H -4.420713 -7.309986 4.379979 0
M  V30 48 H -2.385307 -5.883502 4.150493 0
M  V30 END ATOM
M  V30 BEGIN BOND
M  V30 1 2 1 2
M  V30 2 1 2 3
M  V30 3 1 3 4
M  V30 4 2 4 5
M  V30 5 1 5 6
M  V30 6 2 6 7
M  V30 7 1 7 8
M  V30 8 1 8 9
M  V30 9 2 9 10
M  V30 10 1 10 11
M  V30 11 2 11 12
M  V30 12 1 12 13
M  V30 13 1 13 14
M  V30 14 1 14 15
M  V30 15 2 15 16
M  V30 16 1 15 17
M  V30 17 2 17 18
M  V30 18 1 18 19
M  V30 19 2 19 20
M  V30 20 1 20 21
M  V30 21 2 21 22
M  V30 22 1 22 23
M  V30 23 1 7 24
M  V30 24 2 24 25
M  V30 25 1 2 26
M  V30 26 2 26 27
M  V30 27 1 27 28
M  V30 28 2 28 29
M  V30 29 1 29 30
M  V30 30 2 30 31
M  V30 31 1 25 4
M  V30 32 1 31 26
M  V30 33 1 23 9
M  V30 34 2 23 13
M  V30 35 1 22 17
M  V30 36 1 3 32
M  V30 37 1 5 33
M  V30 38 1 6 34
M  V30 39 1 8 35
M  V30 40 1 10 36
M  V30 41 1 11 37
M  V30 42 1 14 38
M  V30 43 1 18 39
M  V30 44 1 19 40
M  V30 45 1 20 41
M  V30 46 1 21 42
M  V30 47 1 24 43
M  V30 48 1 27 44
M  V30 49 1 28 45
M  V30 50 1 29 46
M  V30 51 1 30 47
M  V30 52 1 31 48
M  V30 END BOND
M  V30 END CTAB
M  END
>  <Dataset>  (232) 
ChEMBL_Kinases

>  <Ligand_Instance>  (232) 
nan

>  <PDB_ID>  (232) 
nan

>  <Standardized_SMILES>  (232) 
O=C(Nc1ccc(Nc2ccnc3[nH]c(=O)c4ccccc4c23)cn1)c1ccccc1

>  <Name>  (232) 
nan

>  <Pocket>  (232) 
nan

>  <ATP_Site>  (232) 
nan

>  <Peripheral>  (232) 
nan

>  <Num_H_Atoms_ProtBoundConf>  (232) 
nan

>  <Num_Resolved_Atoms>  (232) 
nan

>  <Num_Not_Resolved_Atoms>  (232) 
nan

$$$$
CHEMBL2380847
     RDKit          3D

  0  0  0  0  0  0  0  0  0  0999 V3000
M  V30 BEGIN CTAB
M  V30 COUNTS 48 52 0 0 0
M  V30 BEGIN ATOM
M  V30 1 O -1.175495 -5.089028 0.621893 0
M  V30 2 C -1.989316 -4.415263 1.302340 0
M  V30 3 N -1.641647 -3.088059 1.603510 0
M  V30 4 C -0.515305 -2.324178 1.283384 0
M  V30 5 C -0.425818 -1.018781 1.715392 0
M  V30 6 C 0.663862 -0.227777 1.424728 0
M  V30 7 C 1.719880 -0.710947 0.683761 0
M  V30 8 N 2.883683 0.110784 0.364683 0
M  V30 9 C 3.181170 1.419838 0.673089 0
M  V30 10 C 4.187514 1.341599 1.658594 0
M  V30 11 C 4.677951 2.517529 2.247535 0
M  V30 12 N 4.226658 3.739288 1.911314 0
M  V30 13 C 3.258647 3.827877 0.958741 0
M  V30 14 N 2.769332 5.016475 0.573336 0
M  V30 15 C 1.822059 5.154858 -0.370444 0
M  V30 16 O 1.385101 6.281203 -0.703674 0
M  V30 17 C 1.344185 3.978669 -0.966260 0
M  V30 18 C 0.425521 4.154786 -1.963388 0
M  V30 19 C 0.000972 3.005959 -2.596551 0
M  V30 20 C 0.446313 1.713069 -2.284769 0
M  V30 21 C 1.363807 1.710019 -1.261868 0
M  V30 22 C 1.840256 2.775472 -0.573758 0
M  V30 23 C 2.785264 2.684388 0.385221 0
M  V30 24 N 1.639256 -1.981296 0.259913 0
M  V30 25 C 0.569340 -2.744432 0.550272 0
M  V30 26 C -3.200444 -5.091190 1.699804 0
M  V30 27 C -3.390732 -6.404391 1.319998 0
M  V30 28 C -4.536789 -7.125093 1.666281 0
M  V30 29 C -5.520807 -6.532006 2.407610 0
M  V30 30 C -5.368917 -5.220752 2.807148 0
M  V30 31 C -4.228344 -4.552387 2.444620 0
M  V30 32 H -2.406076 -2.632413 2.177686 0
M  V30 33 H -1.244011 -0.588990 2.309826 0
M  V30 34 H 0.675474 0.771839 1.785895 0
M  V30 35 H 3.628375 -0.390839 -0.209738 0
M  V30 36 H 4.724063 0.506636 2.112958 0
M  V30 37 H 5.439716 2.598182 3.005517 0
M  V30 38 H 3.170173 5.853905 1.054661 0
M  V30 39 H 0.067667 5.120409 -2.225895 0
M  V30 40 H -0.732317 3.173622 -3.384842 0
M  V30 41 H 0.003427 0.963032 -2.885777 0
M  V30 42 H 1.641830 0.698098 -1.211696 0
M  V30 43 H 0.603791 -3.741580 0.165388 0
M  V30 44 H -2.658864 -6.962737 0.725679 0
M  V30 45 H -4.681210 -8.161176 1.363599 0
M  V30 46 H -6.434541 -7.042392 2.707202 0
M  V30 47 H -6.121243 -4.711372 3.394403 0
M  V30 48 H -4.129390 -3.527672 2.767406 0
M  V30 END ATOM
M  V30 BEGIN BOND
M  V30 1 2 1 2
M  V30 2 1 2 3
M  V30 3 1 3 4
M  V30 4 2 4 5
M  V30 5 1 5 6
M  V30 6 2 6 7
M  V30 7 1 7 8
M  V30 8 1 8 9
M  V30 9 2 9 10
M  V30 10 1 10 11
M  V30 11 2 11 12
M  V30 12 1 12 13
M  V30 13 1 13 14
M  V30 14 1 14 15
M  V30 15 2 15 16
M  V30 16 1 15 17
M  V30 17 2 17 18
M  V30 18 1 18 19
M  V30 19 2 19 20
M  V30 20 1 20 21
M  V30 21 2 21 22
M  V30 22 1 22 23
M  V30 23 1 7 24
M  V30 24 2 24 25
M  V30 25 1 2 26
M  V30 26 2 26 27
M  V30 27 1 27 28
M  V30 28 2 28 29
M  V30 29 1 29 30
M  V30 30 2 30 31
M  V30 31 1 25 4
M  V30 32 1 31 26
M  V30 33 1 23 9
M  V30 34 2 23 13
M  V30 35 1 22 17
M  V30 36 1 3 32
M  V30 37 1 5 33
M  V30 38 1 6 34
M  V30 39 1 8 35
M  V30 40 1 10 36
M  V30 41 1 11 37
M  V30 42 1 14 38
M  V30 43 1 18 39
M  V30 44 1 19 40
M  V30 45 1 20 41
M  V30 46 1 21 42
M  V30 47 1 25 43
M  V30 48 1 27 44
M  V30 49 1 28 45
M  V30 50 1 29 46
M  V30 51 1 30 47
M  V30 52 1 31 48
M  V30 END BOND
M  V30 END CTAB
M  END
>  <Dataset>  (233) 
ChEMBL_Kinases

>  <Ligand_Instance>  (233) 
nan

>  <PDB_ID>  (233) 
nan

>  <Standardized_SMILES>  (233) 
O=C(Nc1ccc(Nc2ccnc3[nH]c(=O)c4ccccc4c23)nc1)c1ccccc1

>  <Name>  (233) 
nan

>  <Pocket>  (233) 
nan

>  <ATP_Site>  (233) 
nan

>  <Peripheral>  (233) 
nan

>  <Num_H_Atoms_ProtBoundConf>  (233) 
nan

>  <Num_Resolved_Atoms>  (233) 
nan

>  <Num_Not_Resolved_Atoms>  (233) 
nan

$$$$
CHEMBL2380848
     RDKit          3D

  0  0  0  0  0  0  0  0  0  0999 V3000
M  V30 BEGIN CTAB
M  V30 COUNTS 47 51 0 0 0
M  V30 BEGIN ATOM
M  V30 1 O -2.696737 -2.197819 2.098168 0
M  V30 2 C -2.805632 -3.084678 1.210299 0
M  V30 3 N -1.723271 -3.380094 0.334681 0
M  V30 4 C -0.488076 -2.677015 0.443053 0
M  V30 5 N -0.342759 -1.533132 -0.288997 0
M  V30 6 C 0.824418 -0.828894 -0.214585 0
M  V30 7 C 1.826531 -1.305167 0.607965 0
M  V30 8 N 3.080261 -0.545480 0.686396 0
M  V30 9 C 3.502427 0.656096 0.108055 0
M  V30 10 C 4.433156 0.286987 -0.886848 0
M  V30 11 C 5.008425 1.250337 -1.712481 0
M  V30 12 N 4.691912 2.550114 -1.581347 0
M  V30 13 C 3.819958 2.925185 -0.648456 0
M  V30 14 N 3.471629 4.208735 -0.473238 0
M  V30 15 C 2.602995 4.635603 0.459408 0
M  V30 16 O 2.303168 5.845201 0.586324 0
M  V30 17 C 2.037515 3.664789 1.295795 0
M  V30 18 C 1.201263 4.124803 2.274656 0
M  V30 19 C 0.701335 3.172801 3.128423 0
M  V30 20 C 0.989018 1.803887 3.059270 0
M  V30 21 C 1.838786 1.496964 2.026389 0
M  V30 22 C 2.379516 2.351507 1.131642 0
M  V30 23 C 3.253978 1.986532 0.167225 0
M  V30 24 C 1.701502 -2.454574 1.353772 0
M  V30 25 N 0.522696 -3.093283 1.227703 0
M  V30 26 C -4.081799 -3.781854 1.129476 0
M  V30 27 C -5.080679 -3.447992 2.002766 0
M  V30 28 C -6.330760 -4.046163 2.013844 0
M  V30 29 C -6.560878 -5.037256 1.077815 0
M  V30 30 C -5.595274 -5.419531 0.170224 0
M  V30 31 C -4.374151 -4.770230 0.228601 0
M  V30 32 H -1.812123 -4.113398 -0.400077 0
M  V30 33 H 0.976342 0.083995 -0.781283 0
M  V30 34 H 3.833879 -0.971901 1.307559 0
M  V30 35 H 4.839752 -0.695361 -1.176096 0
M  V30 36 H 5.720892 1.083277 -2.494027 0
M  V30 37 H 3.909725 4.906549 -1.106796 0
M  V30 38 H 0.967410 5.162147 2.349213 0
M  V30 39 H 0.031526 3.556441 3.905056 0
M  V30 40 H 0.504487 1.211697 3.818107 0
M  V30 41 H 2.011336 0.471553 2.155065 0
M  V30 42 H 2.506970 -2.798926 1.987934 0
M  V30 43 H -4.940755 -2.668306 2.760440 0
M  V30 44 H -7.098743 -3.755443 2.721504 0
M  V30 45 H -7.551253 -5.516457 1.080940 0
M  V30 46 H -5.806450 -6.189168 -0.539814 0
M  V30 47 H -3.613382 -5.067345 -0.482126 0
M  V30 END ATOM
M  V30 BEGIN BOND
M  V30 1 2 1 2
M  V30 2 1 2 3
M  V30 3 1 3 4
M  V30 4 2 4 5
M  V30 5 1 5 6
M  V30 6 2 6 7
M  V30 7 1 7 8
M  V30 8 1 8 9
M  V30 9 2 9 10
M  V30 10 1 10 11
M  V30 11 2 11 12
M  V30 12 1 12 13
M  V30 13 1 13 14
M  V30 14 1 14 15
M  V30 15 2 15 16
M  V30 16 1 15 17
M  V30 17 2 17 18
M  V30 18 1 18 19
M  V30 19 2 19 20
M  V30 20 1 20 21
M  V30 21 2 21 22
M  V30 22 1 22 23
M  V30 23 1 7 24
M  V30 24 2 24 25
M  V30 25 1 2 26
M  V30 26 2 26 27
M  V30 27 1 27 28
M  V30 28 2 28 29
M  V30 29 1 29 30
M  V30 30 2 30 31
M  V30 31 1 25 4
M  V30 32 1 31 26
M  V30 33 1 23 9
M  V30 34 2 23 13
M  V30 35 1 22 17
M  V30 36 1 3 32
M  V30 37 1 6 33
M  V30 38 1 8 34
M  V30 39 1 10 35
M  V30 40 1 11 36
M  V30 41 1 14 37
M  V30 42 1 18 38
M  V30 43 1 19 39
M  V30 44 1 20 40
M  V30 45 1 21 41
M  V30 46 1 24 42
M  V30 47 1 27 43
M  V30 48 1 28 44
M  V30 49 1 29 45
M  V30 50 1 30 46
M  V30 51 1 31 47
M  V30 END BOND
M  V30 END CTAB
M  END
>  <Dataset>  (234) 
ChEMBL_Kinases

>  <Ligand_Instance>  (234) 
nan

>  <PDB_ID>  (234) 
nan

>  <Standardized_SMILES>  (234) 
O=C(Nc1ncc(Nc2ccnc3[nH]c(=O)c4ccccc4c23)cn1)c1ccccc1

>  <Name>  (234) 
nan

>  <Pocket>  (234) 
nan

>  <ATP_Site>  (234) 
nan

>  <Peripheral>  (234) 
nan

>  <Num_H_Atoms_ProtBoundConf>  (234) 
nan

>  <Num_Resolved_Atoms>  (234) 
nan

>  <Num_Not_Resolved_Atoms>  (234) 
nan

$$$$
CHEMBL4466696
     RDKit          3D

  0  0  0  0  0  0  0  0  0  0999 V3000
M  V30 BEGIN CTAB
M  V30 COUNTS 43 46 0 0 0
M  V30 BEGIN ATOM
M  V30 1 C 0.709137 -5.233546 3.168515 0
M  V30 2 N 1.455526 -3.987409 3.145220 0
M  V30 3 C 0.988796 -2.833782 2.634400 0
M  V30 4 C 1.956409 -1.859996 2.778644 0
M  V30 5 C 1.840676 -0.467823 2.351287 0
M  V30 6 C 2.880264 0.407213 2.552816 0
M  V30 7 C 2.688502 1.702764 2.119621 0
M  V30 8 N 3.658354 2.651567 2.271639 0
M  V30 9 C 3.466713 3.906910 1.849435 0
M  V30 10 C 2.275696 4.260406 1.249974 0
M  V30 11 N 1.316118 3.333072 1.096463 0
M  V30 12 C 1.497538 2.052125 1.521308 0
M  V30 13 C 0.444085 1.152297 1.320659 0
M  V30 14 N -0.766174 1.563021 0.698488 0
M  V30 15 C -1.865952 0.640851 0.483798 0
M  V30 16 C -1.454400 -0.518964 -0.401583 0 CFG=2
M  V30 17 C -0.828155 -0.066658 -1.676933 0
M  V30 18 N -1.637415 -0.340904 -2.842188 0
M  V30 19 C -2.173329 -1.663420 -2.905378 0
M  V30 20 C -2.067520 -2.323159 -1.549499 0
M  V30 21 O -2.523979 -1.400879 -0.602011 0
M  V30 22 N 0.698123 -0.073230 1.761141 0
M  V30 23 C 3.030630 -2.466012 3.397345 0
M  V30 24 N 2.679327 -3.753787 3.598916 0
M  V30 25 H 0.058704 -5.316533 4.058335 0
M  V30 26 H 0.008967 -5.229415 2.282946 0
M  V30 27 H 1.401773 -6.090675 3.047604 0
M  V30 28 H 0.005053 -2.691938 2.180107 0
M  V30 29 H 3.807815 0.114146 3.024466 0
M  V30 30 H 4.258920 4.634254 1.986571 0
M  V30 31 H 2.094933 5.280769 0.896248 0
M  V30 32 H -0.843859 2.558468 0.396205 0
M  V30 33 H -2.184438 0.252693 1.478750 0
M  V30 34 H -2.744832 1.162986 0.058225 0
M  V30 35 H -0.692328 -1.113615 0.141914 0
M  V30 36 H -0.740425 1.050714 -1.624531 0
M  V30 37 H 0.186579 -0.477930 -1.852580 0
M  V30 38 H -2.306703 0.421054 -3.086319 0
M  V30 39 H -3.258687 -1.637979 -3.193444 0
M  V30 40 H -1.681074 -2.271220 -3.700447 0
M  V30 41 H -2.620854 -3.275578 -1.492801 0
M  V30 42 H -0.982729 -2.501154 -1.369904 0
M  V30 43 H 3.939180 -1.929084 3.635370 0
M  V30 END ATOM
M  V30 BEGIN BOND
M  V30 1 1 1 2
M  V30 2 1 2 3
M  V30 3 2 3 4
M  V30 4 1 4 5
M  V30 5 2 5 6
M  V30 6 1 6 7
M  V30 7 2 7 8
M  V30 8 1 8 9
M  V30 9 2 9 10
M  V30 10 1 10 11
M  V30 11 2 11 12
M  V30 12 1 12 13
M  V30 13 1 13 14
M  V30 14 1 14 15
M  V30 15 1 15 16
M  V30 16 1 16 17
M  V30 17 1 17 18
M  V30 18 1 18 19
M  V30 19 1 19 20
M  V30 20 1 20 21
M  V30 21 2 13 22
M  V30 22 1 4 23
M  V30 23 2 23 24
M  V30 24 1 24 2
M  V30 25 1 22 5
M  V30 26 1 12 7
M  V30 27 1 21 16
M  V30 28 1 1 25
M  V30 29 1 1 26
M  V30 30 1 1 27
M  V30 31 1 3 28
M  V30 32 1 6 29
M  V30 33 1 9 30
M  V30 34 1 10 31
M  V30 35 1 14 32
M  V30 36 1 15 33
M  V30 37 1 15 34
M  V30 38 1 16 35 CFG=1
M  V30 39 1 17 36
M  V30 40 1 17 37
M  V30 41 1 18 38
M  V30 42 1 19 39
M  V30 43 1 19 40
M  V30 44 1 20 41
M  V30 45 1 20 42
M  V30 46 1 23 43
M  V30 END BOND
M  V30 END CTAB
M  END
>  <Dataset>  (235) 
ChEMBL_Kinases

>  <Ligand_Instance>  (235) 
nan

>  <PDB_ID>  (235) 
nan

>  <Standardized_SMILES>  (235) 
Cn1cc(-c2cc3nccnc3c(NC[C@@H]3CNCCO3)n2)cn1

>  <Name>  (235) 
nan

>  <Pocket>  (235) 
nan

>  <ATP_Site>  (235) 
nan

>  <Peripheral>  (235) 
nan

>  <Num_H_Atoms_ProtBoundConf>  (235) 
nan

>  <Num_Resolved_Atoms>  (235) 
nan

>  <Num_Not_Resolved_Atoms>  (235) 
nan

$$$$
CHEMBL4466664
     RDKit          3D

  0  0  0  0  0  0  0  0  0  0999 V3000
M  V30 BEGIN CTAB
M  V30 COUNTS 38 41 0 0 0
M  V30 BEGIN ATOM
M  V30 1 O 3.176199 -1.903109 3.565588 0
M  V30 2 C 2.392961 -1.624044 2.646291 0
M  V30 3 N 1.715525 -2.607826 1.870214 0
M  V30 4 C 0.890136 -1.893146 0.894779 0
M  V30 5 C 1.368943 -2.289281 -0.468572 0
M  V30 6 C 0.907088 -3.682651 -0.759671 0
M  V30 7 C -0.574833 -3.863598 -0.690503 0
M  V30 8 C -1.303083 -2.711540 -0.040986 0
M  V30 9 C -0.531245 -2.268166 1.160144 0
M  V30 10 N 1.142549 -0.476676 1.167704 0
M  V30 11 C 2.010231 -0.288399 2.178420 0
M  V30 12 C 2.348337 0.996181 2.553452 0
M  V30 13 Cl 3.487168 1.193128 3.880727 0
M  V30 14 C 1.778591 2.061164 1.871367 0
M  V30 15 C 0.886544 1.838409 0.832754 0
M  V30 16 N 0.417310 3.056479 0.264483 0
M  V30 17 C -0.968630 3.378434 0.268568 0
M  V30 18 C -2.026937 2.653754 0.776141 0
M  V30 19 C -3.206173 3.372998 0.547419 0
M  V30 20 O -2.809168 4.470894 -0.072718 0
M  V30 21 N -1.526161 4.490958 -0.241422 0
M  V30 22 C 0.580546 0.543762 0.495322 0
M  V30 23 O -0.234671 0.446267 -0.455711 0
M  V30 24 H 1.707361 -3.650868 1.876963 0
M  V30 25 H 1.095184 -1.560744 -1.251722 0
M  V30 26 H 2.488390 -2.318938 -0.450171 0
M  V30 27 H 1.271951 -3.951873 -1.780517 0
M  V30 28 H 1.367446 -4.359332 -0.005434 0
M  V30 29 H -0.982019 -3.955357 -1.727047 0
M  V30 30 H -0.830502 -4.833788 -0.180913 0
M  V30 31 H -2.269229 -3.138662 0.351990 0
M  V30 32 H -1.590176 -1.929209 -0.742346 0
M  V30 33 H -1.110764 -1.427515 1.639131 0
M  V30 34 H -0.623071 -3.098207 1.913961 0
M  V30 35 H 2.118291 3.029768 2.253163 0
M  V30 36 H 1.094825 3.706979 -0.152459 0
M  V30 37 H -1.970143 1.693011 1.269417 0
M  V30 38 H -4.214053 3.079614 0.824374 0
M  V30 END ATOM
M  V30 BEGIN BOND
M  V30 1 2 1 2
M  V30 2 1 2 3
M  V30 3 1 3 4
M  V30 4 1 4 5
M  V30 5 1 5 6
M  V30 6 1 6 7
M  V30 7 1 7 8
M  V30 8 1 8 9
M  V30 9 1 4 10
M  V30 10 1 10 11
M  V30 11 2 11 12
M  V30 12 1 12 13
M  V30 13 1 12 14
M  V30 14 2 14 15
M  V30 15 1 15 16
M  V30 16 1 16 17
M  V30 17 1 17 18
M  V30 18 2 18 19
M  V30 19 1 19 20
M  V30 20 1 20 21
M  V30 21 1 15 22
M  V30 22 2 22 23
M  V30 23 1 11 2
M  V30 24 2 21 17
M  V30 25 1 9 4
M  V30 26 1 22 10
M  V30 27 1 3 24
M  V30 28 1 5 25
M  V30 29 1 5 26
M  V30 30 1 6 27
M  V30 31 1 6 28
M  V30 32 1 7 29
M  V30 33 1 7 30
M  V30 34 1 8 31
M  V30 35 1 8 32
M  V30 36 1 9 33
M  V30 37 1 9 34
M  V30 38 1 14 35
M  V30 39 1 16 36
M  V30 40 1 18 37
M  V30 41 1 19 38
M  V30 END BOND
M  V30 END CTAB
M  END
>  <Dataset>  (236) 
ChEMBL_Kinases

>  <Ligand_Instance>  (236) 
nan

>  <PDB_ID>  (236) 
nan

>  <Standardized_SMILES>  (236) 
O=C1NC2(CCCCC2)n2c1c(Cl)cc(Nc1ccon1)c2=O

>  <Name>  (236) 
nan

>  <Pocket>  (236) 
nan

>  <ATP_Site>  (236) 
nan

>  <Peripheral>  (236) 
nan

>  <Num_H_Atoms_ProtBoundConf>  (236) 
nan

>  <Num_Resolved_Atoms>  (236) 
nan

>  <Num_Not_Resolved_Atoms>  (236) 
nan

$$$$
CHEMBL4466208
     RDKit          3D

  0  0  0  0  0  0  0  0  0  0999 V3000
M  V30 BEGIN CTAB
M  V30 COUNTS 46 49 0 0 0
M  V30 BEGIN ATOM
M  V30 1 C 0.026168 -3.665858 6.150748 0
M  V30 2 C 0.434713 -2.852155 4.973896 0
M  V30 3 N 1.464547 -3.116485 4.144295 0
M  V30 4 C 1.522250 -2.154917 3.198052 0
M  V30 5 C 2.560836 -2.217246 2.174660 0
M  V30 6 C 2.302161 -2.348946 0.825962 0
M  V30 7 C 3.296885 -2.405774 -0.121013 0
M  V30 8 C 4.605654 -2.322124 0.358497 0
M  V30 9 F 5.600130 -2.377541 -0.577779 0
M  V30 10 C 4.898739 -2.190299 1.697433 0
M  V30 11 C 3.857447 -2.137896 2.611390 0
M  V30 12 C 0.481068 -1.269481 3.467146 0
M  V30 13 C 0.307627 -0.117702 2.585896 0
M  V30 14 C 1.312857 0.834518 2.500519 0
M  V30 15 C 1.180479 1.941467 1.672662 0
M  V30 16 N 0.030847 2.042055 0.960237 0
M  V30 17 C -0.943991 1.110318 1.048631 0
M  V30 18 N -2.078236 1.393077 0.222012 0
M  V30 19 C -2.134589 0.917789 -1.102252 0
M  V30 20 O -1.136273 0.233537 -1.516489 0
M  V30 21 C -3.285355 1.207156 -1.934629 0
M  V30 22 C -3.256174 0.676747 -3.320308 0
M  V30 23 N -2.129302 1.199006 -4.070506 0
M  V30 24 C -2.088967 2.324391 -4.829075 0
M  V30 25 N -0.845391 2.461197 -5.366099 0
M  V30 26 N -0.130391 1.421673 -4.935434 0
M  V30 27 N -0.916716 0.709636 -4.182417 0
M  V30 28 C -0.857426 -0.004873 1.856470 0
M  V30 29 N -0.141075 -1.736885 4.546220 0
M  V30 30 H -1.022300 -3.475791 6.434632 0
M  V30 31 H 0.069137 -4.757072 5.900109 0
M  V30 32 H 0.742798 -3.551850 7.007062 0
M  V30 33 H 1.253833 -2.404807 0.562261 0
M  V30 34 H 3.012881 -2.508896 -1.148728 0
M  V30 35 H 5.929020 -2.130766 2.004426 0
M  V30 36 H 4.142539 -2.034223 3.649737 0
M  V30 37 H 2.208581 0.662051 3.119500 0
M  V30 38 H 1.985297 2.671851 1.626315 0
M  V30 39 H -2.884079 1.954550 0.580503 0
M  V30 40 H -4.226681 0.939655 -1.415491 0
M  V30 41 H -3.327036 2.332378 -2.035999 0
M  V30 42 H -3.215652 -0.412238 -3.411333 0
M  V30 43 H -4.175968 1.025218 -3.836941 0
M  V30 44 H -2.921469 3.012313 -4.985401 0
M  V30 45 H -1.665424 -0.702574 1.878844 0
M  V30 46 H -0.955702 -1.220653 4.919683 0
M  V30 END ATOM
M  V30 BEGIN BOND
M  V30 1 1 1 2
M  V30 2 2 2 3
M  V30 3 1 3 4
M  V30 4 1 4 5
M  V30 5 2 5 6
M  V30 6 1 6 7
M  V30 7 2 7 8
M  V30 8 1 8 9
M  V30 9 1 8 10
M  V30 10 2 10 11
M  V30 11 2 4 12
M  V30 12 1 12 13
M  V30 13 2 13 14
M  V30 14 1 14 15
M  V30 15 2 15 16
M  V30 16 1 16 17
M  V30 17 1 17 18
M  V30 18 1 18 19
M  V30 19 2 19 20
M  V30 20 1 19 21
M  V30 21 1 21 22
M  V30 22 1 22 23
M  V30 23 1 23 24
M  V30 24 2 24 25
M  V30 25 1 25 26
M  V30 26 2 26 27
M  V30 27 2 17 28
M  V30 28 1 12 29
M  V30 29 1 29 2
M  V30 30 1 11 5
M  V30 31 1 28 13
M  V30 32 1 27 23
M  V30 33 1 1 30
M  V30 34 1 1 31
M  V30 35 1 1 32
M  V30 36 1 6 33
M  V30 37 1 7 34
M  V30 38 1 10 35
M  V30 39 1 11 36
M  V30 40 1 14 37
M  V30 41 1 15 38
M  V30 42 1 18 39
M  V30 43 1 21 40
M  V30 44 1 21 41
M  V30 45 1 22 42
M  V30 46 1 22 43
M  V30 47 1 24 44
M  V30 48 1 28 45
M  V30 49 1 29 46
M  V30 END BOND
M  V30 END CTAB
M  END
>  <Dataset>  (237) 
ChEMBL_Kinases

>  <Ligand_Instance>  (237) 
nan

>  <PDB_ID>  (237) 
nan

>  <Standardized_SMILES>  (237) 
Cc1nc(-c2ccc(F)cc2)c(-c2ccnc(NC(=O)CCn3cnnn3)c2)[nH]1

>  <Name>  (237) 
nan

>  <Pocket>  (237) 
nan

>  <ATP_Site>  (237) 
nan

>  <Peripheral>  (237) 
nan

>  <Num_H_Atoms_ProtBoundConf>  (237) 
nan

>  <Num_Resolved_Atoms>  (237) 
nan

>  <Num_Not_Resolved_Atoms>  (237) 
nan

$$$$
CHEMBL2380840
     RDKit          3D

  0  0  0  0  0  0  0  0  0  0999 V3000
M  V30 BEGIN CTAB
M  V30 COUNTS 23 25 0 0 0
M  V30 BEGIN ATOM
M  V30 1 O 0.009256 -0.111193 4.186047 0
M  V30 2 C 0.245442 -0.277098 2.979709 0
M  V30 3 N 0.866834 -1.376962 2.519218 0
M  V30 4 C 1.117322 -1.545603 1.209964 0
M  V30 5 N 1.740070 -2.666634 0.825022 0
M  V30 6 C 2.000419 -2.850590 -0.500373 0
M  V30 7 C 1.647149 -1.919983 -1.487251 0
M  V30 8 C 1.007650 -0.777942 -1.054612 0
M  V30 9 Cl 0.639365 0.267665 -2.392414 0
M  V30 10 C 0.760978 -0.622680 0.278990 0
M  V30 11 C 0.127978 0.514039 0.681399 0
M  V30 12 C -0.282182 1.516084 -0.144169 0
M  V30 13 C -0.922688 2.664110 0.271366 0
M  V30 14 C -1.131421 2.740803 1.623454 0
M  V30 15 C -0.752693 1.784002 2.514837 0
M  V30 16 C -0.120179 0.671824 2.016423 0
M  V30 17 H 1.158729 -2.112357 3.197612 0
M  V30 18 H 2.497437 -3.765245 -0.726092 0
M  V30 19 H 1.929645 -2.227009 -2.485731 0
M  V30 20 H -0.166886 1.546699 -1.189491 0
M  V30 21 H -1.267388 3.484229 -0.332651 0
M  V30 22 H -1.635761 3.624313 2.034372 0
M  V30 23 H -0.954429 1.916369 3.583483 0
M  V30 END ATOM
M  V30 BEGIN BOND
M  V30 1 2 1 2
M  V30 2 1 2 3
M  V30 3 1 3 4
M  V30 4 2 4 5
M  V30 5 1 5 6
M  V30 6 2 6 7
M  V30 7 1 7 8
M  V30 8 1 8 9
M  V30 9 2 8 10
M  V30 10 1 10 11
M  V30 11 2 11 12
M  V30 12 1 12 13
M  V30 13 2 13 14
M  V30 14 1 14 15
M  V30 15 2 15 16
M  V30 16 1 16 2
M  V30 17 1 10 4
M  V30 18 1 16 11
M  V30 19 1 3 17
M  V30 20 1 6 18
M  V30 21 1 7 19
M  V30 22 1 12 20
M  V30 23 1 13 21
M  V30 24 1 14 22
M  V30 25 1 15 23
M  V30 END BOND
M  V30 END CTAB
M  END
>  <Dataset>  (238) 
ChEMBL_Kinases

>  <Ligand_Instance>  (238) 
nan

>  <PDB_ID>  (238) 
nan

>  <Standardized_SMILES>  (238) 
O=c1[nH]c2nccc(Cl)c2c2ccccc12

>  <Name>  (238) 
nan

>  <Pocket>  (238) 
nan

>  <ATP_Site>  (238) 
nan

>  <Peripheral>  (238) 
nan

>  <Num_H_Atoms_ProtBoundConf>  (238) 
nan

>  <Num_Resolved_Atoms>  (238) 
nan

>  <Num_Not_Resolved_Atoms>  (238) 
nan

$$$$
CHEMBL3698671
     RDKit          3D

  0  0  0  0  0  0  0  0  0  0999 V3000
M  V30 BEGIN CTAB
M  V30 COUNTS 58 63 0 0 0
M  V30 BEGIN ATOM
M  V30 1 C 5.376152 -4.973904 1.892339 0
M  V30 2 C 4.487487 -5.896526 1.349355 0
M  V30 3 N 3.448608 -5.531425 0.575189 0
M  V30 4 C 3.236766 -4.212674 0.297161 0
M  V30 5 C 4.124001 -3.275371 0.837717 0
M  V30 6 C 5.194715 -3.630076 1.633538 0
M  V30 7 C 3.702927 -2.030338 0.418178 0
M  V30 8 C 4.102966 -0.721989 0.576701 0
M  V30 9 N 3.439249 0.308876 0.005454 0
M  V30 10 C 2.346447 0.083866 -0.750013 0
M  V30 11 N 1.556272 1.071190 -1.406927 0
M  V30 12 C 0.461350 1.621895 -0.684512 0
M  V30 13 C 0.176279 1.214403 0.602841 0
M  V30 14 C -0.888518 1.755849 1.292248 0
M  V30 15 C -1.718888 2.713030 0.762166 0
M  V30 16 N -2.809219 3.262485 1.479169 0
M  V30 17 C -3.198595 2.946151 2.835582 0
M  V30 18 C -4.510993 2.195044 2.705964 0
M  V30 19 N -5.553983 3.024878 2.157165 0
M  V30 20 C -5.173120 3.783417 1.018690 0
M  V30 21 C -3.741001 4.246284 0.979818 0
M  V30 22 C -1.424220 3.109560 -0.519158 0
M  V30 23 C -0.364846 2.583146 -1.229639 0
M  V30 24 N 1.945238 -1.190495 -0.912631 0
M  V30 25 C 2.582920 -2.236195 -0.358481 0
M  V30 26 N 2.296537 -3.549889 -0.435405 0
M  V30 27 C 1.238784 -4.265868 -1.118527 0
M  V30 28 C 0.403590 -5.118563 -0.196837 0
M  V30 29 C -1.034308 -4.693880 -0.347940 0
M  V30 30 C -1.047522 -4.110196 -1.748450 0
M  V30 31 C 0.218424 -3.256288 -1.650818 0
M  V30 32 H 6.217310 -5.254410 2.517720 0
M  V30 33 H 4.681190 -6.935780 1.587535 0
M  V30 34 H 5.841346 -2.837816 2.016991 0
M  V30 35 H 4.978929 -0.531757 1.181253 0
M  V30 36 H 1.719938 1.420220 -2.376168 0
M  V30 37 H 0.822653 0.462711 1.028475 0
M  V30 38 H -1.011692 1.360854 2.284037 0
M  V30 39 H -2.488346 2.244725 3.293591 0
M  V30 40 H -3.368149 3.848321 3.463762 0
M  V30 41 H -4.812551 1.912791 3.739560 0
M  V30 42 H -4.338808 1.267179 2.145258 0
M  V30 43 H -6.310876 2.348433 1.852660 0
M  V30 44 H -5.804794 4.719925 1.043399 0
M  V30 45 H -5.415235 3.312352 0.044306 0
M  V30 46 H -3.670363 5.134891 1.676202 0
M  V30 47 H -3.536278 4.590697 -0.048777 0
M  V30 48 H -1.985273 3.849376 -1.062759 0
M  V30 49 H -0.128559 2.891018 -2.237141 0
M  V30 50 H 1.650763 -4.856485 -1.964859 0
M  V30 51 H 0.653399 -4.991016 0.874078 0
M  V30 52 H 0.467839 -6.171884 -0.543641 0
M  V30 53 H -1.757795 -5.516424 -0.221034 0
M  V30 54 H -1.208920 -3.840308 0.328601 0
M  V30 55 H -1.899910 -3.433558 -1.876377 0
M  V30 56 H -0.950886 -4.884280 -2.524493 0
M  V30 57 H 0.014563 -2.578843 -0.806293 0
M  V30 58 H 0.511613 -2.795179 -2.588560 0
M  V30 END ATOM
M  V30 BEGIN BOND
M  V30 1 2 1 2
M  V30 2 1 2 3
M  V30 3 2 3 4
M  V30 4 1 4 5
M  V30 5 2 5 6
M  V30 6 1 5 7
M  V30 7 2 7 8
M  V30 8 1 8 9
M  V30 9 2 9 10
M  V30 10 1 10 11
M  V30 11 1 11 12
M  V30 12 2 12 13
M  V30 13 1 13 14
M  V30 14 2 14 15
M  V30 15 1 15 16
M  V30 16 1 16 17
M  V30 17 1 17 18
M  V30 18 1 18 19
M  V30 19 1 19 20
M  V30 20 1 20 21
M  V30 21 1 15 22
M  V30 22 2 22 23
M  V30 23 1 10 24
M  V30 24 2 24 25
M  V30 25 1 25 26
M  V30 26 1 26 27
M  V30 27 1 27 28
M  V30 28 1 28 29
M  V30 29 1 29 30
M  V30 30 1 30 31
M  V30 31 1 6 1
M  V30 32 1 25 7
M  V30 33 1 31 27
M  V30 34 1 26 4
M  V30 35 1 23 12
M  V30 36 1 21 16
M  V30 37 1 1 32
M  V30 38 1 2 33
M  V30 39 1 6 34
M  V30 40 1 8 35
M  V30 41 1 11 36
M  V30 42 1 13 37
M  V30 43 1 14 38
M  V30 44 1 17 39
M  V30 45 1 17 40
M  V30 46 1 18 41
M  V30 47 1 18 42
M  V30 48 1 19 43
M  V30 49 1 20 44
M  V30 50 1 20 45
M  V30 51 1 21 46
M  V30 52 1 21 47
M  V30 53 1 22 48
M  V30 54 1 23 49
M  V30 55 1 27 50
M  V30 56 1 28 51
M  V30 57 1 28 52
M  V30 58 1 29 53
M  V30 59 1 29 54
M  V30 60 1 30 55
M  V30 61 1 30 56
M  V30 62 1 31 57
M  V30 63 1 31 58
M  V30 END BOND
M  V30 END CTAB
M  END
>  <Dataset>  (239) 
ChEMBL_Kinases

>  <Ligand_Instance>  (239) 
nan

>  <PDB_ID>  (239) 
nan

>  <Standardized_SMILES>  (239) 
c1cnc2c(c1)c1cnc(Nc3ccc(N4CCNCC4)cc3)nc1n2C1CCCC1

>  <Name>  (239) 
nan

>  <Pocket>  (239) 
nan

>  <ATP_Site>  (239) 
nan

>  <Peripheral>  (239) 
nan

>  <Num_H_Atoms_ProtBoundConf>  (239) 
nan

>  <Num_Resolved_Atoms>  (239) 
nan

>  <Num_Not_Resolved_Atoms>  (239) 
nan

$$$$
CHEMBL2380578
     RDKit          3D

  0  0  0  0  0  0  0  0  0  0999 V3000
M  V30 BEGIN CTAB
M  V30 COUNTS 38 40 0 0 0
M  V30 BEGIN ATOM
M  V30 1 C 0.627820 -1.624862 3.804114 0
M  V30 2 C -0.688967 -0.950074 4.110258 0
M  V30 3 O -1.732516 -1.614943 3.450593 0
M  V30 4 C -1.757814 -1.703274 2.075154 0
M  V30 5 C -0.900718 -1.230308 1.106450 0
M  V30 6 C -1.137809 -1.445522 -0.230417 0
M  V30 7 C -0.363362 -1.028349 -1.293648 0
M  V30 8 C 0.882939 -0.269441 -1.340966 0
M  V30 9 C 1.887063 -0.730687 -2.198660 0
M  V30 10 C 3.050137 0.014509 -2.214576 0
M  V30 11 C 3.320708 1.154546 -1.479699 0
M  V30 12 C 2.287709 1.573499 -0.639788 0
M  V30 13 S 2.558601 3.017714 0.327307 0
M  V30 14 N 3.257630 2.542344 1.851086 0
M  V30 15 O 3.361901 4.047100 -0.372047 0
M  V30 16 O 1.175009 3.543503 0.685395 0
M  V30 17 C 1.094936 0.863703 -0.581884 0
M  V30 18 N -1.010558 -1.481287 -2.386305 0
M  V30 19 N -2.117930 -2.138728 -2.023229 0
M  V30 20 C -2.238096 -2.141546 -0.682381 0
M  V30 21 C -3.105678 -2.621181 0.275527 0
M  V30 22 C -2.871709 -2.406638 1.638590 0
M  V30 23 C -3.881235 -2.977608 2.508563 0
M  V30 24 N -4.671425 -3.423076 3.214027 0
M  V30 25 H 1.044981 -2.136488 4.702379 0
M  V30 26 H 1.324425 -0.853334 3.430798 0
M  V30 27 H 0.490050 -2.410635 3.052434 0
M  V30 28 H -0.659282 0.136936 3.817515 0
M  V30 29 H -0.842763 -1.028089 5.226232 0
M  V30 30 H -0.063703 -0.691704 1.506357 0
M  V30 31 H 1.794163 -1.602234 -2.817807 0
M  V30 32 H 3.850077 -0.329703 -2.880103 0
M  V30 33 H 4.276674 1.650167 -1.582080 0
M  V30 34 H 2.687861 1.712837 2.153116 0
M  V30 35 H 3.026860 3.313156 2.517455 0
M  V30 36 H 0.316892 1.222106 0.083455 0
M  V30 37 H -2.832382 -2.607450 -2.635245 0
M  V30 38 H -3.965769 -3.166088 -0.095793 0
M  V30 END ATOM
M  V30 BEGIN BOND
M  V30 1 1 1 2
M  V30 2 1 2 3
M  V30 3 1 3 4
M  V30 4 2 4 5
M  V30 5 1 5 6
M  V30 6 1 6 7
M  V30 7 1 7 8
M  V30 8 2 8 9
M  V30 9 1 9 10
M  V30 10 2 10 11
M  V30 11 1 11 12
M  V30 12 1 12 13
M  V30 13 1 13 14
M  V30 14 2 13 15
M  V30 15 2 13 16
M  V30 16 2 12 17
M  V30 17 2 7 18
M  V30 18 1 18 19
M  V30 19 1 19 20
M  V30 20 1 20 21
M  V30 21 2 21 22
M  V30 22 1 22 23
M  V30 23 3 23 24
M  V30 24 1 22 4
M  V30 25 2 20 6
M  V30 26 1 17 8
M  V30 27 1 1 25
M  V30 28 1 1 26
M  V30 29 1 1 27
M  V30 30 1 2 28
M  V30 31 1 2 29
M  V30 32 1 5 30
M  V30 33 1 9 31
M  V30 34 1 10 32
M  V30 35 1 11 33
M  V30 36 1 14 34
M  V30 37 1 14 35
M  V30 38 1 17 36
M  V30 39 1 19 37
M  V30 40 1 21 38
M  V30 END BOND
M  V30 END CTAB
M  END
>  <Dataset>  (240) 
ChEMBL_Kinases

>  <Ligand_Instance>  (240) 
nan

>  <PDB_ID>  (240) 
nan

>  <Standardized_SMILES>  (240) 
CCOc1cc2c(-c3cccc(S(N)(=O)=O)c3)n[nH]c2cc1C#N

>  <Name>  (240) 
nan

>  <Pocket>  (240) 
nan

>  <ATP_Site>  (240) 
nan

>  <Peripheral>  (240) 
nan

>  <Num_H_Atoms_ProtBoundConf>  (240) 
nan

>  <Num_Resolved_Atoms>  (240) 
nan

>  <Num_Not_Resolved_Atoms>  (240) 
nan

$$$$
CHEMBL2380579
     RDKit          3D

  0  0  0  0  0  0  0  0  0  0999 V3000
M  V30 BEGIN CTAB
M  V30 COUNTS 40 42 0 0 0
M  V30 BEGIN ATOM
M  V30 1 C -0.846669 -2.356156 3.558858 0
M  V30 2 C 0.546804 -2.901714 3.538219 0
M  V30 3 O 0.753568 -3.842063 2.476293 0
M  V30 4 C 0.585397 -3.474714 1.154801 0
M  V30 5 C 0.224221 -2.258139 0.666626 0
M  V30 6 C 0.083320 -1.993670 -0.678724 0
M  V30 7 C -0.265936 -0.858327 -1.376485 0
M  V30 8 C -0.603780 0.459146 -0.846330 0
M  V30 9 C -1.706633 1.150241 -1.345618 0
M  V30 10 C -2.048383 2.413744 -0.852089 0
M  V30 11 C -1.246069 2.933402 0.142751 0
M  V30 12 C -0.139991 2.296790 0.678408 0
M  V30 13 N 0.650738 2.885724 1.706318 0
M  V30 14 C 1.725510 3.679164 1.190083 0
M  V30 15 C 2.734155 4.428605 2.015450 0
M  V30 16 O 1.801900 3.731031 -0.077033 0
M  V30 17 C 0.150357 1.043304 0.147897 0
M  V30 18 N -0.228235 -1.230914 -2.675324 0
M  V30 19 N 0.122639 -2.517254 -2.775276 0
M  V30 20 C 0.332578 -3.054121 -1.555660 0
M  V30 21 C 0.699853 -4.297149 -1.091764 0
M  V30 22 C 0.831389 -4.525961 0.263557 0
M  V30 23 C 1.214876 -5.838192 0.669405 0
M  V30 24 N 1.505353 -6.901618 0.997400 0
M  V30 25 H -1.347639 -2.685290 4.507009 0
M  V30 26 H -0.835703 -1.248163 3.609436 0
M  V30 27 H -1.496905 -2.734428 2.739205 0
M  V30 28 H 0.821097 -3.319847 4.506128 0
M  V30 29 H 1.243905 -2.052469 3.282546 0
M  V30 30 H 0.047395 -1.487220 1.390565 0
M  V30 31 H -2.327741 0.738502 -2.121609 0
M  V30 32 H -2.897000 2.979917 -1.215027 0
M  V30 33 H -1.468082 3.921745 0.566869 0
M  V30 34 H 0.588342 2.843428 2.759908 0
M  V30 35 H 3.727696 4.348910 1.546764 0
M  V30 36 H 2.737061 3.919161 3.001984 0
M  V30 37 H 2.430623 5.477452 2.182584 0
M  V30 38 H 1.016916 0.554840 0.573902 0
M  V30 39 H 0.221488 -3.041602 -3.693528 0
M  V30 40 H 0.865063 -5.034542 -1.862669 0
M  V30 END ATOM
M  V30 BEGIN BOND
M  V30 1 1 1 2
M  V30 2 1 2 3
M  V30 3 1 3 4
M  V30 4 2 4 5
M  V30 5 1 5 6
M  V30 6 1 6 7
M  V30 7 1 7 8
M  V30 8 2 8 9
M  V30 9 1 9 10
M  V30 10 2 10 11
M  V30 11 1 11 12
M  V30 12 1 12 13
M  V30 13 1 13 14
M  V30 14 1 14 15
M  V30 15 2 14 16
M  V30 16 2 12 17
M  V30 17 2 7 18
M  V30 18 1 18 19
M  V30 19 1 19 20
M  V30 20 1 20 21
M  V30 21 2 21 22
M  V30 22 1 22 23
M  V30 23 3 23 24
M  V30 24 1 22 4
M  V30 25 2 20 6
M  V30 26 1 17 8
M  V30 27 1 1 25
M  V30 28 1 1 26
M  V30 29 1 1 27
M  V30 30 1 2 28
M  V30 31 1 2 29
M  V30 32 1 5 30
M  V30 33 1 9 31
M  V30 34 1 10 32
M  V30 35 1 11 33
M  V30 36 1 13 34
M  V30 37 1 15 35
M  V30 38 1 15 36
M  V30 39 1 15 37
M  V30 40 1 17 38
M  V30 41 1 19 39
M  V30 42 1 21 40
M  V30 END BOND
M  V30 END CTAB
M  END
>  <Dataset>  (241) 
ChEMBL_Kinases

>  <Ligand_Instance>  (241) 
nan

>  <PDB_ID>  (241) 
nan

>  <Standardized_SMILES>  (241) 
CCOc1cc2c(-c3cccc(NC(C)=O)c3)n[nH]c2cc1C#N

>  <Name>  (241) 
nan

>  <Pocket>  (241) 
nan

>  <ATP_Site>  (241) 
nan

>  <Peripheral>  (241) 
nan

>  <Num_H_Atoms_ProtBoundConf>  (241) 
nan

>  <Num_Resolved_Atoms>  (241) 
nan

>  <Num_Not_Resolved_Atoms>  (241) 
nan

$$$$
CHEMBL2380580
     RDKit          3D

  0  0  0  0  0  0  0  0  0  0999 V3000
M  V30 BEGIN CTAB
M  V30 COUNTS 47 50 0 0 0
M  V30 BEGIN ATOM
M  V30 1 C -3.678944 0.639906 -0.629941 0
M  V30 2 C -2.279977 0.217782 -0.242999 0
M  V30 3 O -2.278114 -0.973481 0.522814 0
M  V30 4 C -1.008443 -1.413520 0.910624 0
M  V30 5 C 0.174909 -0.788179 0.606555 0
M  V30 6 C 1.384392 -1.296120 1.033038 0
M  V30 7 C 2.661408 -0.812078 0.827551 0
M  V30 8 C 3.145582 0.359046 0.114903 0
M  V30 9 C 4.234047 0.317653 -0.755703 0
M  V30 10 C 4.641243 1.470287 -1.400943 0
M  V30 11 C 4.008088 2.688043 -1.221053 0
M  V30 12 C 2.926841 2.764984 -0.366023 0
M  V30 13 S 2.055787 4.264230 -0.070393 0
M  V30 14 N 2.748140 5.120000 1.259608 0
M  V30 15 O 0.601033 3.999646 0.181683 0
M  V30 16 O 2.150171 5.116658 -1.279809 0
M  V30 17 C 2.524675 1.596283 0.279539 0
M  V30 18 N 3.484694 -1.655225 1.437558 0
M  V30 19 N 2.775601 -2.625410 2.002475 0
M  V30 20 C 1.456900 -2.451231 1.781456 0
M  V30 21 C 0.270004 -3.083104 2.089429 0
M  V30 22 C -0.955433 -2.571386 1.659198 0
M  V30 23 C -2.090194 -3.367528 2.077043 0
M  V30 24 C -3.162087 -2.668630 2.581341 0
M  V30 25 C -4.309793 -3.297777 3.017265 0
M  V30 26 C -4.316796 -4.687521 2.915247 0
M  V30 27 C -3.261478 -5.428748 2.414733 0
M  V30 28 C -2.131746 -4.739936 1.990886 0
M  V30 29 H -3.760607 1.724891 -0.796329 0
M  V30 30 H -4.395880 0.318512 0.167341 0
M  V30 31 H -3.987300 0.126027 -1.564827 0
M  V30 32 H -1.833222 1.065346 0.341669 0
M  V30 33 H -1.689726 0.149829 -1.166937 0
M  V30 34 H 0.120644 0.102587 0.029541 0
M  V30 35 H 4.747265 -0.624305 -0.913858 0
M  V30 36 H 5.490193 1.471901 -2.089248 0
M  V30 37 H 4.308238 3.604375 -1.714912 0
M  V30 38 H 3.195949 6.001475 0.941786 0
M  V30 39 H 3.485479 4.543146 1.725313 0
M  V30 40 H 1.672886 1.689585 0.944185 0
M  V30 41 H 3.154744 -3.428878 2.550246 0
M  V30 42 H 0.376375 -3.992632 2.682808 0
M  V30 43 H -3.160373 -1.586103 2.662379 0
M  V30 44 H -5.180431 -2.781496 3.422992 0
M  V30 45 H -5.172360 -5.254300 3.232830 0
M  V30 46 H -3.272415 -6.491280 2.339087 0
M  V30 47 H -1.279881 -5.277596 1.591447 0
M  V30 END ATOM
M  V30 BEGIN BOND
M  V30 1 1 1 2
M  V30 2 1 2 3
M  V30 3 1 3 4
M  V30 4 2 4 5
M  V30 5 1 5 6
M  V30 6 1 6 7
M  V30 7 1 7 8
M  V30 8 2 8 9
M  V30 9 1 9 10
M  V30 10 2 10 11
M  V30 11 1 11 12
M  V30 12 1 12 13
M  V30 13 1 13 14
M  V30 14 2 13 15
M  V30 15 2 13 16
M  V30 16 2 12 17
M  V30 17 2 7 18
M  V30 18 1 18 19
M  V30 19 1 19 20
M  V30 20 1 20 21
M  V30 21 2 21 22
M  V30 22 1 22 23
M  V30 23 2 23 24
M  V30 24 1 24 25
M  V30 25 2 25 26
M  V30 26 1 26 27
M  V30 27 2 27 28
M  V30 28 1 22 4
M  V30 29 1 28 23
M  V30 30 2 20 6
M  V30 31 1 17 8
M  V30 32 1 1 29
M  V30 33 1 1 30
M  V30 34 1 1 31
M  V30 35 1 2 32
M  V30 36 1 2 33
M  V30 37 1 5 34
M  V30 38 1 9 35
M  V30 39 1 10 36
M  V30 40 1 11 37
M  V30 41 1 14 38
M  V30 42 1 14 39
M  V30 43 1 17 40
M  V30 44 1 19 41
M  V30 45 1 21 42
M  V30 46 1 24 43
M  V30 47 1 25 44
M  V30 48 1 26 45
M  V30 49 1 27 46
M  V30 50 1 28 47
M  V30 END BOND
M  V30 END CTAB
M  END
>  <Dataset>  (242) 
ChEMBL_Kinases

>  <Ligand_Instance>  (242) 
nan

>  <PDB_ID>  (242) 
nan

>  <Standardized_SMILES>  (242) 
CCOc1cc2c(-c3cccc(S(N)(=O)=O)c3)n[nH]c2cc1-c1ccccc1

>  <Name>  (242) 
nan

>  <Pocket>  (242) 
nan

>  <ATP_Site>  (242) 
nan

>  <Peripheral>  (242) 
nan

>  <Num_H_Atoms_ProtBoundConf>  (242) 
nan

>  <Num_Resolved_Atoms>  (242) 
nan

>  <Num_Not_Resolved_Atoms>  (242) 
nan

$$$$
CHEMBL2380581
     RDKit          3D

  0  0  0  0  0  0  0  0  0  0999 V3000
M  V30 BEGIN CTAB
M  V30 COUNTS 44 47 0 0 0
M  V30 BEGIN ATOM
M  V30 1 C -0.064808 -1.453481 3.495049 0
M  V30 2 C -1.403183 -1.601083 2.846669 0
M  V30 3 O -1.399938 -2.391941 1.675250 0
M  V30 4 C -0.615072 -1.989298 0.607583 0
M  V30 5 C 0.213753 -0.902616 0.452526 0
M  V30 6 C 0.897032 -0.714172 -0.715356 0
M  V30 7 C 1.763027 0.307769 -1.044140 0
M  V30 8 C 2.173564 1.448550 -0.235061 0
M  V30 9 C 3.533765 1.731111 -0.246147 0
M  V30 10 C 4.064226 2.784113 0.475189 0
M  V30 11 C 3.246002 3.593539 1.235681 0
M  V30 12 C 1.878750 3.301548 1.240693 0
M  V30 13 S 0.825675 4.320880 2.202182 0
M  V30 14 N 0.635183 3.753130 3.805077 0
M  V30 15 O -0.541420 4.449198 1.564168 0
M  V30 16 O 1.409634 5.724368 2.218195 0
M  V30 17 C 1.342380 2.248678 0.520454 0
M  V30 18 N 2.158402 0.011744 -2.315483 0
M  V30 19 N 1.580900 -1.095059 -2.721560 0
M  V30 20 C 0.781705 -1.602182 -1.777116 0
M  V30 21 C -0.052059 -2.709918 -1.642635 0
M  V30 22 C -0.744739 -2.887712 -0.439180 0
M  V30 23 C -1.582750 -4.105857 -0.458067 0
M  V30 24 C -1.313588 -5.409430 -0.893114 0
M  V30 25 N -2.426589 -6.144714 -0.688495 0
M  V30 26 N -3.371178 -5.383898 -0.154405 0
M  V30 27 C -2.884815 -4.134496 -0.002263 0
M  V30 28 H 0.751020 -1.978207 2.944143 0
M  V30 29 H -0.050107 -1.945107 4.512351 0
M  V30 30 H 0.203813 -0.386478 3.732244 0
M  V30 31 H -1.754854 -0.564513 2.590294 0
M  V30 32 H -2.130995 -2.039873 3.562053 0
M  V30 33 H 0.230139 -0.276531 1.337042 0
M  V30 34 H 4.231181 1.140109 -0.818228 0
M  V30 35 H 5.138821 2.975964 0.442281 0
M  V30 36 H 3.617701 4.437165 1.822539 0
M  V30 37 H 1.506965 3.456317 4.251883 0
M  V30 38 H -0.200272 3.186534 3.979737 0
M  V30 39 H 0.302011 2.008181 0.510173 0
M  V30 40 H 1.705911 -1.558557 -3.667390 0
M  V30 41 H -0.116123 -3.377579 -2.488840 0
M  V30 42 H -0.345609 -5.673723 -1.306292 0
M  V30 43 H -4.279481 -5.850351 0.047347 0
M  V30 44 H -3.516093 -3.372943 0.420555 0
M  V30 END ATOM
M  V30 BEGIN BOND
M  V30 1 1 1 2
M  V30 2 1 2 3
M  V30 3 1 3 4
M  V30 4 2 4 5
M  V30 5 1 5 6
M  V30 6 1 6 7
M  V30 7 1 7 8
M  V30 8 2 8 9
M  V30 9 1 9 10
M  V30 10 2 10 11
M  V30 11 1 11 12
M  V30 12 1 12 13
M  V30 13 1 13 14
M  V30 14 2 13 15
M  V30 15 2 13 16
M  V30 16 2 12 17
M  V30 17 2 7 18
M  V30 18 1 18 19
M  V30 19 1 19 20
M  V30 20 1 20 21
M  V30 21 2 21 22
M  V30 22 1 22 23
M  V30 23 1 23 24
M  V30 24 2 24 25
M  V30 25 1 25 26
M  V30 26 1 26 27
M  V30 27 1 22 4
M  V30 28 2 27 23
M  V30 29 2 20 6
M  V30 30 1 17 8
M  V30 31 1 1 28
M  V30 32 1 1 29
M  V30 33 1 1 30
M  V30 34 1 2 31
M  V30 35 1 2 32
M  V30 36 1 5 33
M  V30 37 1 9 34
M  V30 38 1 10 35
M  V30 39 1 11 36
M  V30 40 1 14 37
M  V30 41 1 14 38
M  V30 42 1 17 39
M  V30 43 1 19 40
M  V30 44 1 21 41
M  V30 45 1 24 42
M  V30 46 1 26 43
M  V30 47 1 27 44
M  V30 END BOND
M  V30 END CTAB
M  END
>  <Dataset>  (243) 
ChEMBL_Kinases

>  <Ligand_Instance>  (243) 
nan

>  <PDB_ID>  (243) 
nan

>  <Standardized_SMILES>  (243) 
CCOc1cc2c(-c3cccc(S(N)(=O)=O)c3)n[nH]c2cc1-c1cn[nH]c1

>  <Name>  (243) 
nan

>  <Pocket>  (243) 
nan

>  <ATP_Site>  (243) 
nan

>  <Peripheral>  (243) 
nan

>  <Num_H_Atoms_ProtBoundConf>  (243) 
nan

>  <Num_Resolved_Atoms>  (243) 
nan

>  <Num_Not_Resolved_Atoms>  (243) 
nan

$$$$
CHEMBL2380582
     RDKit          3D

  0  0  0  0  0  0  0  0  0  0999 V3000
M  V30 BEGIN CTAB
M  V30 COUNTS 47 50 0 0 0
M  V30 BEGIN ATOM
M  V30 1 C -2.088040 0.985062 0.024503 0
M  V30 2 C -2.334028 -0.323434 -0.691453 0
M  V30 3 O -2.078208 -1.454219 0.116440 0
M  V30 4 C -0.805865 -1.643801 0.631489 0
M  V30 5 C 0.350378 -0.903906 0.510004 0
M  V30 6 C 1.504167 -1.321582 1.135760 0
M  V30 7 C 2.739579 -0.706953 1.119661 0
M  V30 8 C 3.131972 0.518325 0.448944 0
M  V30 9 C 4.329695 0.560797 -0.263305 0
M  V30 10 C 4.738257 1.713852 -0.917330 0
M  V30 11 C 3.949974 2.845396 -0.867184 0
M  V30 12 C 2.754295 2.849130 -0.172807 0
M  V30 13 S 1.709789 4.262349 -0.075245 0
M  V30 14 N 2.166780 5.202233 1.312710 0
M  V30 15 O 0.284241 3.842651 0.102687 0
M  V30 16 O 1.913977 5.136852 -1.284036 0
M  V30 17 C 2.386144 1.679728 0.463605 0
M  V30 18 N 3.522149 -1.499287 1.872982 0
M  V30 19 N 2.825599 -2.531481 2.325080 0
M  V30 20 C 1.541365 -2.474657 1.892267 0
M  V30 21 C 0.395136 -3.230985 2.027394 0
M  V30 22 C -0.775936 -2.811153 1.394941 0
M  V30 23 C -1.904768 -3.727342 1.638678 0
M  V30 24 C -2.012104 -5.099579 1.609685 0
M  V30 25 N -3.285388 -5.412726 1.913831 0
M  V30 26 N -3.986312 -4.299458 2.133446 0
M  V30 27 C -5.397625 -4.231761 2.487413 0
M  V30 28 C -3.152107 -3.232179 1.969179 0
M  V30 29 H -1.721550 0.797683 1.069049 0
M  V30 30 H -1.427877 1.681324 -0.528679 0
M  V30 31 H -3.072657 1.523869 0.135590 0
M  V30 32 H -3.355189 -0.330234 -1.114024 0
M  V30 33 H -1.660691 -0.307267 -1.594271 0
M  V30 34 H 0.196547 -0.027463 -0.105044 0
M  V30 35 H 4.961538 -0.320791 -0.312660 0
M  V30 36 H 5.669810 1.748606 -1.471912 0
M  V30 37 H 4.207939 3.787243 -1.357323 0
M  V30 38 H 2.090916 6.223008 1.152641 0
M  V30 39 H 3.132612 4.999884 1.638649 0
M  V30 40 H 1.447634 1.694051 1.004526 0
M  V30 41 H 3.145217 -3.326358 2.937258 0
M  V30 42 H 0.475085 -4.123678 2.628832 0
M  V30 43 H -1.159585 -5.724935 1.372153 0
M  V30 44 H -5.854523 -5.219092 2.309462 0
M  V30 45 H -5.528909 -4.017934 3.564433 0
M  V30 46 H -5.928120 -3.497698 1.847923 0
M  V30 47 H -3.451226 -2.196366 2.085655 0
M  V30 END ATOM
M  V30 BEGIN BOND
M  V30 1 1 1 2
M  V30 2 1 2 3
M  V30 3 1 3 4
M  V30 4 2 4 5
M  V30 5 1 5 6
M  V30 6 1 6 7
M  V30 7 1 7 8
M  V30 8 2 8 9
M  V30 9 1 9 10
M  V30 10 2 10 11
M  V30 11 1 11 12
M  V30 12 1 12 13
M  V30 13 1 13 14
M  V30 14 2 13 15
M  V30 15 2 13 16
M  V30 16 2 12 17
M  V30 17 2 7 18
M  V30 18 1 18 19
M  V30 19 1 19 20
M  V30 20 1 20 21
M  V30 21 2 21 22
M  V30 22 1 22 23
M  V30 23 1 23 24
M  V30 24 2 24 25
M  V30 25 1 25 26
M  V30 26 1 26 27
M  V30 27 1 26 28
M  V30 28 1 22 4
M  V30 29 2 28 23
M  V30 30 2 20 6
M  V30 31 1 17 8
M  V30 32 1 1 29
M  V30 33 1 1 30
M  V30 34 1 1 31
M  V30 35 1 2 32
M  V30 36 1 2 33
M  V30 37 1 5 34
M  V30 38 1 9 35
M  V30 39 1 10 36
M  V30 40 1 11 37
M  V30 41 1 14 38
M  V30 42 1 14 39
M  V30 43 1 17 40
M  V30 44 1 19 41
M  V30 45 1 21 42
M  V30 46 1 24 43
M  V30 47 1 27 44
M  V30 48 1 27 45
M  V30 49 1 27 46
M  V30 50 1 28 47
M  V30 END BOND
M  V30 END CTAB
M  END
>  <Dataset>  (244) 
ChEMBL_Kinases

>  <Ligand_Instance>  (244) 
nan

>  <PDB_ID>  (244) 
nan

>  <Standardized_SMILES>  (244) 
CCOc1cc2c(-c3cccc(S(N)(=O)=O)c3)n[nH]c2cc1-c1cnn(C)c1

>  <Name>  (244) 
nan

>  <Pocket>  (244) 
nan

>  <ATP_Site>  (244) 
nan

>  <Peripheral>  (244) 
nan

>  <Num_H_Atoms_ProtBoundConf>  (244) 
nan

>  <Num_Resolved_Atoms>  (244) 
nan

>  <Num_Not_Resolved_Atoms>  (244) 
nan

$$$$
CHEMBL2380583
     RDKit          3D

  0  0  0  0  0  0  0  0  0  0999 V3000
M  V30 BEGIN CTAB
M  V30 COUNTS 50 53 0 0 0
M  V30 BEGIN ATOM
M  V30 1 C -1.393172 -1.852899 3.551917 0
M  V30 2 C -0.717326 -3.027752 2.920350 0
M  V30 3 O -1.107969 -3.282741 1.598998 0
M  V30 4 C -0.923848 -2.352046 0.616215 0
M  V30 5 C -0.383556 -1.083341 0.618864 0
M  V30 6 C -0.316526 -0.339518 -0.539281 0
M  V30 7 C 0.197444 0.937784 -0.675522 0
M  V30 8 C 0.786935 1.815584 0.328060 0
M  V30 9 C 0.242862 2.018977 1.579534 0
M  V30 10 C 0.820224 2.855809 2.513403 0
M  V30 11 C 1.995906 3.537021 2.217244 0
M  V30 12 C 2.557538 4.417717 3.268989 0
M  V30 13 C 2.564388 3.363667 0.993772 0
M  V30 14 S 4.031187 4.231946 0.663896 0
M  V30 15 N 5.215406 3.751172 1.807151 0
M  V30 16 O 4.549227 3.810754 -0.702665 0
M  V30 17 O 3.830921 5.704960 0.599437 0
M  V30 18 C 1.951986 2.514199 0.085202 0
M  V30 19 N 0.036441 1.228101 -1.996898 0
M  V30 20 N -0.532928 0.194246 -2.598947 0
M  V30 21 C -0.778654 -0.813938 -1.748472 0
M  V30 22 C -1.318686 -2.071146 -1.773064 0
M  V30 23 C -1.396221 -2.843228 -0.607679 0
M  V30 24 C -2.007906 -4.166215 -0.834790 0
M  V30 25 C -2.946840 -4.652852 0.019451 0
M  V30 26 N -3.284578 -5.864679 -0.480847 0
M  V30 27 N -2.571393 -6.076892 -1.582916 0
M  V30 28 C -2.708625 -7.300513 -2.355739 0
M  V30 29 C -1.756192 -5.051918 -1.855313 0
M  V30 30 H -0.665846 -1.114674 3.893014 0
M  V30 31 H -2.045903 -1.370555 2.788729 0
M  V30 32 H -2.023746 -2.156976 4.415865 0
M  V30 33 H 0.384708 -2.834575 2.884007 0
M  V30 34 H -0.859740 -3.901028 3.588478 0
M  V30 35 H -0.048053 -0.797601 1.603811 0
M  V30 36 H -0.671320 1.507098 1.848076 0
M  V30 37 H 0.360565 2.996793 3.504374 0
M  V30 38 H 1.716800 4.894520 3.837316 0
M  V30 39 H 3.073555 3.765549 4.013268 0
M  V30 40 H 3.289560 5.137665 2.905746 0
M  V30 41 H 5.566315 4.528737 2.402710 0
M  V30 42 H 4.858420 2.986627 2.445949 0
M  V30 43 H 2.454447 2.421381 -0.866410 0
M  V30 44 H -0.770255 0.155248 -3.624262 0
M  V30 45 H -1.671021 -2.412812 -2.734804 0
M  V30 46 H -3.364856 -4.221690 0.904339 0
M  V30 47 H -3.055908 -8.139978 -1.714561 0
M  V30 48 H -3.478003 -7.183635 -3.146038 0
M  V30 49 H -1.723304 -7.579751 -2.741777 0
M  V30 50 H -1.060942 -4.924042 -2.668911 0
M  V30 END ATOM
M  V30 BEGIN BOND
M  V30 1 1 1 2
M  V30 2 1 2 3
M  V30 3 1 3 4
M  V30 4 2 4 5
M  V30 5 1 5 6
M  V30 6 1 6 7
M  V30 7 1 7 8
M  V30 8 2 8 9
M  V30 9 1 9 10
M  V30 10 2 10 11
M  V30 11 1 11 12
M  V30 12 1 11 13
M  V30 13 1 13 14
M  V30 14 1 14 15
M  V30 15 2 14 16
M  V30 16 2 14 17
M  V30 17 2 13 18
M  V30 18 2 7 19
M  V30 19 1 19 20
M  V30 20 1 20 21
M  V30 21 1 21 22
M  V30 22 2 22 23
M  V30 23 1 23 24
M  V30 24 1 24 25
M  V30 25 2 25 26
M  V30 26 1 26 27
M  V30 27 1 27 28
M  V30 28 1 27 29
M  V30 29 1 23 4
M  V30 30 2 29 24
M  V30 31 2 21 6
M  V30 32 1 18 8
M  V30 33 1 1 30
M  V30 34 1 1 31
M  V30 35 1 1 32
M  V30 36 1 2 33
M  V30 37 1 2 34
M  V30 38 1 5 35
M  V30 39 1 9 36
M  V30 40 1 10 37
M  V30 41 1 12 38
M  V30 42 1 12 39
M  V30 43 1 12 40
M  V30 44 1 15 41
M  V30 45 1 15 42
M  V30 46 1 18 43
M  V30 47 1 20 44
M  V30 48 1 22 45
M  V30 49 1 25 46
M  V30 50 1 28 47
M  V30 51 1 28 48
M  V30 52 1 28 49
M  V30 53 1 29 50
M  V30 END BOND
M  V30 END CTAB
M  END
>  <Dataset>  (245) 
ChEMBL_Kinases

>  <Ligand_Instance>  (245) 
nan

>  <PDB_ID>  (245) 
nan

>  <Standardized_SMILES>  (245) 
CCOc1cc2c(-c3ccc(C)c(S(N)(=O)=O)c3)n[nH]c2cc1-c1cnn(C)c1

>  <Name>  (245) 
nan

>  <Pocket>  (245) 
nan

>  <ATP_Site>  (245) 
nan

>  <Peripheral>  (245) 
nan

>  <Num_H_Atoms_ProtBoundConf>  (245) 
nan

>  <Num_Resolved_Atoms>  (245) 
nan

>  <Num_Not_Resolved_Atoms>  (245) 
nan

$$$$
CHEMBL2380584
     RDKit          3D

  0  0  0  0  0  0  0  0  0  0999 V3000
M  V30 BEGIN CTAB
M  V30 COUNTS 56 59 0 0 0
M  V30 BEGIN ATOM
M  V30 1 C 2.559110 -0.728443 -1.403063 0
M  V30 2 C 2.357339 -1.921840 -0.529847 0
M  V30 3 O 1.032508 -2.213018 -0.204347 0
M  V30 4 C 0.152630 -1.388361 0.468761 0
M  V30 5 C 0.533449 -0.128667 0.902953 0
M  V30 6 C -0.306322 0.737127 1.580699 0
M  V30 7 C -0.092837 2.009584 2.078239 0
M  V30 8 C 1.115209 2.833354 2.031847 0
M  V30 9 C 1.881446 2.978034 0.887421 0
M  V30 10 C 3.016706 3.741016 0.810661 0
M  V30 11 C 3.444667 4.413633 1.917746 0
M  V30 12 C 2.702978 4.290502 3.075443 0
M  V30 13 S 3.320759 5.190085 4.462812 0
M  V30 14 N 4.411669 4.210465 5.352638 0
M  V30 15 O 4.055988 6.413914 4.006430 0
M  V30 16 O 2.162656 5.672613 5.301947 0
M  V30 17 C 1.567648 3.523969 3.141842 0
M  V30 18 N -1.273204 2.346237 2.635818 0
M  V30 19 N -2.164337 1.363146 2.501503 0
M  V30 20 C -1.601498 0.328122 1.843165 0
M  V30 21 C -2.019380 -0.924445 1.424932 0
M  V30 22 C -1.166334 -1.779046 0.747635 0
M  V30 23 C -1.580878 -3.108322 0.293801 0
M  V30 24 C -0.946711 -4.307307 0.376563 0
M  V30 25 N -1.731600 -5.237282 -0.182607 0
M  V30 26 N -2.848068 -4.695378 -0.625178 0
M  V30 27 C -3.934167 -5.391214 -1.287070 0
M  V30 28 C -3.757204 -5.431284 -2.788403 0
M  V30 29 C -2.489987 -6.130094 -3.208182 0
M  V30 30 C -3.934552 -4.080639 -3.421000 0
M  V30 31 C -2.797612 -3.361418 -0.348144 0
M  V30 32 H 3.022477 -1.008138 -2.392612 0
M  V30 33 H 3.290530 0.013889 -0.972871 0
M  V30 34 H 1.604739 -0.237226 -1.688484 0
M  V30 35 H 2.919918 -1.868899 0.426183 0
M  V30 36 H 2.753216 -2.820814 -1.071094 0
M  V30 37 H 1.554556 0.158106 0.680012 0
M  V30 38 H 1.580774 2.462800 -0.016326 0
M  V30 39 H 3.574855 3.815853 -0.113186 0
M  V30 40 H 4.344460 5.011348 1.836230 0
M  V30 41 H 3.954287 3.766757 6.155783 0
M  V30 42 H 4.940596 3.597176 4.725026 0
M  V30 43 H 1.034980 3.466401 4.064289 0
M  V30 44 H -3.145910 1.364948 2.840338 0
M  V30 45 H -3.031776 -1.230804 1.636072 0
M  V30 46 H 0.029931 -4.391328 0.837477 0
M  V30 47 H -4.904377 -4.882244 -1.102587 0
M  V30 48 H -4.008641 -6.427122 -0.897685 0
M  V30 49 H -4.593378 -6.065962 -3.176401 0
M  V30 50 H -2.116511 -6.838165 -2.459811 0
M  V30 51 H -2.570960 -6.676590 -4.170909 0
M  V30 52 H -1.752061 -5.308531 -3.420691 0
M  V30 53 H -5.001201 -3.809744 -3.401742 0
M  V30 54 H -3.595781 -4.132977 -4.470268 0
M  V30 55 H -3.321678 -3.291322 -2.949803 0
M  V30 56 H -3.609612 -2.698324 -0.619110 0
M  V30 END ATOM
M  V30 BEGIN BOND
M  V30 1 1 1 2
M  V30 2 1 2 3
M  V30 3 1 3 4
M  V30 4 2 4 5
M  V30 5 1 5 6
M  V30 6 1 6 7
M  V30 7 1 7 8
M  V30 8 2 8 9
M  V30 9 1 9 10
M  V30 10 2 10 11
M  V30 11 1 11 12
M  V30 12 1 12 13
M  V30 13 1 13 14
M  V30 14 2 13 15
M  V30 15 2 13 16
M  V30 16 2 12 17
M  V30 17 2 7 18
M  V30 18 1 18 19
M  V30 19 1 19 20
M  V30 20 1 20 21
M  V30 21 2 21 22
M  V30 22 1 22 23
M  V30 23 1 23 24
M  V30 24 2 24 25
M  V30 25 1 25 26
M  V30 26 1 26 27
M  V30 27 1 27 28
M  V30 28 1 28 29
M  V30 29 1 28 30
M  V30 30 1 26 31
M  V30 31 1 22 4
M  V30 32 2 31 23
M  V30 33 2 20 6
M  V30 34 1 17 8
M  V30 35 1 1 32
M  V30 36 1 1 33
M  V30 37 1 1 34
M  V30 38 1 2 35
M  V30 39 1 2 36
M  V30 40 1 5 37
M  V30 41 1 9 38
M  V30 42 1 10 39
M  V30 43 1 11 40
M  V30 44 1 14 41
M  V30 45 1 14 42
M  V30 46 1 17 43
M  V30 47 1 19 44
M  V30 48 1 21 45
M  V30 49 1 24 46
M  V30 50 1 27 47
M  V30 51 1 27 48
M  V30 52 1 28 49
M  V30 53 1 29 50
M  V30 54 1 29 51
M  V30 55 1 29 52
M  V30 56 1 30 53
M  V30 57 1 30 54
M  V30 58 1 30 55
M  V30 59 1 31 56
M  V30 END BOND
M  V30 END CTAB
M  END
>  <Dataset>  (246) 
ChEMBL_Kinases

>  <Ligand_Instance>  (246) 
nan

>  <PDB_ID>  (246) 
nan

>  <Standardized_SMILES>  (246) 
CCOc1cc2c(-c3cccc(S(N)(=O)=O)c3)n[nH]c2cc1-c1cnn(CC(C)C)c1

>  <Name>  (246) 
nan

>  <Pocket>  (246) 
nan

>  <ATP_Site>  (246) 
nan

>  <Peripheral>  (246) 
nan

>  <Num_H_Atoms_ProtBoundConf>  (246) 
nan

>  <Num_Resolved_Atoms>  (246) 
nan

>  <Num_Not_Resolved_Atoms>  (246) 
nan

$$$$
CHEMBL2380830
     RDKit          3D

  0  0  0  0  0  0  0  0  0  0999 V3000
M  V30 BEGIN CTAB
M  V30 COUNTS 49 53 0 0 0
M  V30 BEGIN ATOM
M  V30 1 O -2.490317 -2.986616 2.600071 0
M  V30 2 C -2.919440 -3.455196 1.492115 0
M  V30 3 N -2.500520 -2.611938 0.455110 0
M  V30 4 C -1.725895 -1.458075 0.764177 0
M  V30 5 C -0.363952 -1.574771 0.789752 0
M  V30 6 C 0.371637 -0.446992 1.090687 0
M  V30 7 C -0.229151 0.765321 1.359303 0
M  V30 8 N 0.611029 1.925716 1.671613 0
M  V30 9 C 2.000200 2.096460 1.724591 0
M  V30 10 C 2.300257 2.194038 3.098233 0
M  V30 11 C 3.627217 2.301727 3.515357 0
M  V30 12 N 4.651273 2.315307 2.617830 0
M  V30 13 C 4.373512 2.226974 1.311069 0
M  V30 14 N 5.338486 2.238303 0.380282 0
M  V30 15 C 5.110070 2.160879 -0.939476 0
M  V30 16 O 6.044370 2.171273 -1.781030 0
M  V30 17 C 3.771163 2.066946 -1.343542 0
M  V30 18 C 3.557236 2.048859 -2.703183 0
M  V30 19 C 2.239650 2.021437 -3.101008 0
M  V30 20 C 1.146419 2.012991 -2.226651 0
M  V30 21 C 1.524661 2.031699 -0.907041 0
M  V30 22 C 2.787793 2.053174 -0.419293 0
M  V30 23 C 3.073998 2.124723 0.900877 0
M  V30 24 C -1.595802 0.915307 1.341564 0
M  V30 25 C -2.306757 -0.233057 1.036642 0
M  V30 26 C -3.710109 -4.673710 1.400447 0
M  V30 27 C -3.967952 -5.298767 2.627978 0
M  V30 28 C -4.705226 -6.461905 2.691978 0
M  V30 29 C -5.224604 -7.069550 1.568078 0
M  V30 30 F -5.950074 -8.212304 1.621089 0
M  V30 31 C -4.975121 -6.460373 0.356275 0
M  V30 32 C -4.235645 -5.298859 0.320216 0
M  V30 33 F -3.993252 -4.705054 -0.868079 0
M  V30 34 H -2.773400 -2.860295 -0.522102 0
M  V30 35 H 0.147461 -2.487550 0.589813 0
M  V30 36 H 1.449938 -0.468406 1.128108 0
M  V30 37 H 0.078510 2.824420 1.900036 0
M  V30 38 H 1.680685 2.205936 3.988065 0
M  V30 39 H 3.998036 2.382789 4.516607 0
M  V30 40 H 6.338770 2.311343 0.677951 0
M  V30 41 H 4.383352 2.056000 -3.388094 0
M  V30 42 H 2.098761 2.004996 -4.182516 0
M  V30 43 H 0.202005 1.993299 -2.728608 0
M  V30 44 H 0.605916 2.098739 -0.403168 0
M  V30 45 H -2.054814 1.869606 1.553456 0
M  V30 46 H -3.397746 -0.128116 1.018917 0
M  V30 47 H -3.589168 -4.878324 3.573043 0
M  V30 48 H -4.874933 -6.902996 3.663815 0
M  V30 49 H -5.335625 -6.852859 -0.585754 0
M  V30 END ATOM
M  V30 BEGIN BOND
M  V30 1 2 1 2
M  V30 2 1 2 3
M  V30 3 1 3 4
M  V30 4 2 4 5
M  V30 5 1 5 6
M  V30 6 2 6 7
M  V30 7 1 7 8
M  V30 8 1 8 9
M  V30 9 2 9 10
M  V30 10 1 10 11
M  V30 11 2 11 12
M  V30 12 1 12 13
M  V30 13 1 13 14
M  V30 14 1 14 15
M  V30 15 2 15 16
M  V30 16 1 15 17
M  V30 17 2 17 18
M  V30 18 1 18 19
M  V30 19 2 19 20
M  V30 20 1 20 21
M  V30 21 2 21 22
M  V30 22 1 22 23
M  V30 23 1 7 24
M  V30 24 2 24 25
M  V30 25 1 2 26
M  V30 26 2 26 27
M  V30 27 1 27 28
M  V30 28 2 28 29
M  V30 29 1 29 30
M  V30 30 1 29 31
M  V30 31 2 31 32
M  V30 32 1 32 33
M  V30 33 1 25 4
M  V30 34 1 32 26
M  V30 35 1 23 9
M  V30 36 2 23 13
M  V30 37 1 22 17
M  V30 38 1 3 34
M  V30 39 1 5 35
M  V30 40 1 6 36
M  V30 41 1 8 37
M  V30 42 1 10 38
M  V30 43 1 11 39
M  V30 44 1 14 40
M  V30 45 1 18 41
M  V30 46 1 19 42
M  V30 47 1 20 43
M  V30 48 1 21 44
M  V30 49 1 24 45
M  V30 50 1 25 46
M  V30 51 1 27 47
M  V30 52 1 28 48
M  V30 53 1 31 49
M  V30 END BOND
M  V30 END CTAB
M  END
>  <Dataset>  (247) 
ChEMBL_Kinases

>  <Ligand_Instance>  (247) 
nan

>  <PDB_ID>  (247) 
nan

>  <Standardized_SMILES>  (247) 
O=C(Nc1ccc(Nc2ccnc3[nH]c(=O)c4ccccc4c23)cc1)c1ccc(F)cc1F

>  <Name>  (247) 
nan

>  <Pocket>  (247) 
nan

>  <ATP_Site>  (247) 
nan

>  <Peripheral>  (247) 
nan

>  <Num_H_Atoms_ProtBoundConf>  (247) 
nan

>  <Num_Resolved_Atoms>  (247) 
nan

>  <Num_Not_Resolved_Atoms>  (247) 
nan

$$$$
CHEMBL2380586
     RDKit          3D

  0  0  0  0  0  0  0  0  0  0999 V3000
M  V30 BEGIN CTAB
M  V30 COUNTS 58 62 0 0 0
M  V30 BEGIN ATOM
M  V30 1 C 2.630513 -6.439284 2.824895 0
M  V30 2 N 1.890321 -5.255803 3.237334 0
M  V30 3 C 1.775669 -4.199504 2.417821 0
M  V30 4 C 1.034739 -3.203255 3.020769 0
M  V30 5 C 0.568297 -1.867863 2.665434 0
M  V30 6 C 0.803473 -0.871221 3.623430 0
M  V30 7 C 0.434783 0.446783 3.436152 0
M  V30 8 N 0.544028 1.563219 4.179771 0
M  V30 9 N 0.009625 2.561244 3.492019 0
M  V30 10 C -0.448431 2.110616 2.306038 0
M  V30 11 C -1.101042 2.924284 1.282435 0
M  V30 12 C -2.062779 3.783802 1.804717 0
M  V30 13 C -2.783643 4.635044 0.962662 0
M  V30 14 C -2.494242 4.577034 -0.390066 0
M  V30 15 C -1.551158 3.738532 -0.928044 0
M  V30 16 S -1.175886 3.654190 -2.626268 0
M  V30 17 N 0.065144 4.741997 -3.078848 0
M  V30 18 O -2.425966 3.971216 -3.427364 0
M  V30 19 O -0.759145 2.273841 -3.059151 0
M  V30 20 C -0.851236 2.906301 -0.076111 0
M  V30 21 C -0.188631 0.756623 2.243714 0
M  V30 22 C -0.417111 -0.229136 1.305677 0
M  V30 23 C -0.056010 -1.548740 1.476478 0
M  V30 24 N -0.306712 -2.537159 0.519144 0
M  V30 25 C -0.942170 -2.229845 -0.724178 0
M  V30 26 C -1.105120 -3.479823 -1.569389 0
M  V30 27 C 0.252373 -4.057482 -1.919247 0
M  V30 28 C 1.048695 -3.087083 -2.752990 0
M  V30 29 C 0.251963 -1.834088 -2.915499 0
M  V30 30 C -0.212233 -1.237785 -1.587529 0
M  V30 31 C 0.714522 -3.749993 4.270996 0
M  V30 32 N 1.244850 -4.993235 4.375690 0
M  V30 33 H 2.172412 -6.920947 1.935286 0
M  V30 34 H 3.645632 -6.080295 2.486102 0
M  V30 35 H 2.772524 -7.127970 3.677541 0
M  V30 36 H 2.164926 -4.042826 1.422576 0
M  V30 37 H 1.296232 -1.116816 4.565707 0
M  V30 38 H 0.973793 1.636480 5.133081 0
M  V30 39 H -2.309972 3.850098 2.860788 0
M  V30 40 H -3.545136 5.326680 1.311352 0
M  V30 41 H -3.005693 5.200812 -1.106128 0
M  V30 42 H 0.611963 4.346903 -3.864586 0
M  V30 43 H 0.624807 5.115695 -2.297890 0
M  V30 44 H -0.087438 2.208632 -0.397860 0
M  V30 45 H -0.902192 0.107605 0.423976 0
M  V30 46 H -0.033651 -3.527887 0.702072 0
M  V30 47 H -1.982586 -1.893697 -0.502666 0
M  V30 48 H -1.744803 -3.328034 -2.437933 0
M  V30 49 H -1.612948 -4.239900 -0.935802 0
M  V30 50 H 0.824269 -4.232930 -1.005461 0
M  V30 51 H 0.068664 -4.992110 -2.495358 0
M  V30 52 H 1.186630 -3.509955 -3.771026 0
M  V30 53 H 2.072857 -2.898279 -2.373750 0
M  V30 54 H -0.608765 -2.018014 -3.594948 0
M  V30 55 H 0.829552 -1.017359 -3.399232 0
M  V30 56 H -0.891829 -0.395798 -1.913523 0
M  V30 57 H 0.682950 -0.911747 -1.059414 0
M  V30 58 H 0.154929 -3.399620 5.133868 0
M  V30 END ATOM
M  V30 BEGIN BOND
M  V30 1 1 1 2
M  V30 2 1 2 3
M  V30 3 2 3 4
M  V30 4 1 4 5
M  V30 5 2 5 6
M  V30 6 1 6 7
M  V30 7 1 7 8
M  V30 8 1 8 9
M  V30 9 2 9 10
M  V30 10 1 10 11
M  V30 11 2 11 12
M  V30 12 1 12 13
M  V30 13 2 13 14
M  V30 14 1 14 15
M  V30 15 1 15 16
M  V30 16 1 16 17
M  V30 17 2 16 18
M  V30 18 2 16 19
M  V30 19 2 15 20
M  V30 20 1 10 21
M  V30 21 1 21 22
M  V30 22 2 22 23
M  V30 23 1 23 24
M  V30 24 1 24 25
M  V30 25 1 25 26
M  V30 26 1 26 27
M  V30 27 1 27 28
M  V30 28 1 28 29
M  V30 29 1 29 30
M  V30 30 1 4 31
M  V30 31 2 31 32
M  V30 32 1 32 2
M  V30 33 1 23 5
M  V30 34 1 30 25
M  V30 35 2 21 7
M  V30 36 1 20 11
M  V30 37 1 1 33
M  V30 38 1 1 34
M  V30 39 1 1 35
M  V30 40 1 3 36
M  V30 41 1 6 37
M  V30 42 1 8 38
M  V30 43 1 12 39
M  V30 44 1 13 40
M  V30 45 1 14 41
M  V30 46 1 17 42
M  V30 47 1 17 43
M  V30 48 1 20 44
M  V30 49 1 22 45
M  V30 50 1 24 46
M  V30 51 1 25 47
M  V30 52 1 26 48
M  V30 53 1 26 49
M  V30 54 1 27 50
M  V30 55 1 27 51
M  V30 56 1 28 52
M  V30 57 1 28 53
M  V30 58 1 29 54
M  V30 59 1 29 55
M  V30 60 1 30 56
M  V30 61 1 30 57
M  V30 62 1 31 58
M  V30 END BOND
M  V30 END CTAB
M  END
>  <Dataset>  (248) 
ChEMBL_Kinases

>  <Ligand_Instance>  (248) 
nan

>  <PDB_ID>  (248) 
nan

>  <Standardized_SMILES>  (248) 
Cn1cc(-c2cc3[nH]nc(-c4cccc(S(N)(=O)=O)c4)c3cc2NC2CCCCC2)cn1

>  <Name>  (248) 
nan

>  <Pocket>  (248) 
nan

>  <ATP_Site>  (248) 
nan

>  <Peripheral>  (248) 
nan

>  <Num_H_Atoms_ProtBoundConf>  (248) 
nan

>  <Num_Resolved_Atoms>  (248) 
nan

>  <Num_Not_Resolved_Atoms>  (248) 
nan

$$$$
CHEMBL2380587
     RDKit          3D

  0  0  0  0  0  0  0  0  0  0999 V3000
M  V30 BEGIN CTAB
M  V30 COUNTS 60 64 0 0 0
M  V30 BEGIN ATOM
M  V30 1 C 5.253716 -3.674117 2.202606 0
M  V30 2 C 4.923662 -2.233848 2.322941 0
M  V30 3 O 4.034428 -1.973268 3.192307 0
M  V30 4 N 5.478120 -1.122500 1.589030 0
M  V30 5 C 4.822221 0.063957 2.080546 0
M  V30 6 C 5.371563 0.745788 3.148846 0
M  V30 7 C 4.728905 1.888231 3.612735 0
M  V30 8 C 3.576504 2.248684 2.953450 0
M  V30 9 C 3.013565 1.571433 1.877660 0
M  V30 10 C 1.782993 2.139657 1.335588 0
M  V30 11 N 1.561120 3.435607 1.079880 0
M  V30 12 N 0.347448 3.626892 0.594114 0
M  V30 13 C -0.293687 2.449616 0.506715 0
M  V30 14 C -1.538752 2.044170 0.088484 0
M  V30 15 C -1.926899 0.698407 0.119442 0
M  V30 16 C -3.297936 0.561608 -0.328997 0
M  V30 17 C -4.547325 0.122917 0.108947 0
M  V30 18 N -5.458202 0.250399 -0.861253 0
M  V30 19 N -4.915226 0.752764 -1.949222 0
M  V30 20 C -5.617363 1.019810 -3.183302 0
M  V30 21 C -3.623842 0.942951 -1.642415 0
M  V30 22 C -1.006863 -0.203692 0.586007 0
M  V30 23 N -1.370313 -1.556393 0.588049 0
M  V30 24 C -2.373864 -2.514932 0.286726 0
M  V30 25 C -2.787783 -2.528694 -1.154011 0
M  V30 26 C -2.436620 -3.852422 -1.771800 0
M  V30 27 C -0.972822 -4.165315 -1.439006 0
M  V30 28 C -0.862476 -4.492905 0.046065 0
M  V30 29 C -2.058838 -3.923027 0.787423 0
M  V30 30 C 0.232068 0.206748 1.002125 0
M  V30 31 C 0.604430 1.522541 0.970128 0
M  V30 32 C 3.663867 0.439255 1.429323 0
M  V30 33 H 5.692455 -4.036313 3.160317 0
M  V30 34 H 5.917862 -3.919825 1.366938 0
M  V30 35 H 4.299929 -4.237687 2.065695 0
M  V30 36 H 6.207125 -1.455479 0.894285 0
M  V30 37 H 6.285477 0.383965 3.604595 0
M  V30 38 H 5.122032 2.442345 4.435693 0
M  V30 39 H 3.097720 3.156055 3.348733 0
M  V30 40 H -0.043995 4.558949 0.322233 0
M  V30 41 H -2.156341 2.889354 -0.257483 0
M  V30 42 H -4.554155 -0.236611 1.151648 0
M  V30 43 H -6.125880 2.004953 -3.170147 0
M  V30 44 H -4.899981 0.954650 -4.048807 0
M  V30 45 H -6.357710 0.219338 -3.381107 0
M  V30 46 H -2.966565 1.362495 -2.415349 0
M  V30 47 H -0.605186 -2.154806 0.959472 0
M  V30 48 H -3.281392 -2.226711 0.895873 0
M  V30 49 H -3.870039 -2.312827 -1.249604 0
M  V30 50 H -2.203146 -1.739780 -1.676426 0
M  V30 51 H -3.087948 -4.678222 -1.425399 0
M  V30 52 H -2.465572 -3.803957 -2.882830 0
M  V30 53 H -0.384798 -3.240280 -1.602373 0
M  V30 54 H -0.565657 -4.966108 -2.073212 0
M  V30 55 H 0.081763 -4.151930 0.498610 0
M  V30 56 H -0.916607 -5.593557 0.138661 0
M  V30 57 H -2.913798 -4.584415 0.602964 0
M  V30 58 H -1.823435 -3.899430 1.846061 0
M  V30 59 H 0.951749 -0.507206 1.369489 0
M  V30 60 H 3.216967 -0.062248 0.607210 0
M  V30 END ATOM
M  V30 BEGIN BOND
M  V30 1 1 1 2
M  V30 2 2 2 3
M  V30 3 1 2 4
M  V30 4 1 4 5
M  V30 5 2 5 6
M  V30 6 1 6 7
M  V30 7 2 7 8
M  V30 8 1 8 9
M  V30 9 1 9 10
M  V30 10 2 10 11
M  V30 11 1 11 12
M  V30 12 1 12 13
M  V30 13 2 13 14
M  V30 14 1 14 15
M  V30 15 1 15 16
M  V30 16 1 16 17
M  V30 17 2 17 18
M  V30 18 1 18 19
M  V30 19 1 19 20
M  V30 20 1 19 21
M  V30 21 2 15 22
M  V30 22 1 22 23
M  V30 23 1 23 24
M  V30 24 1 24 25
M  V30 25 1 25 26
M  V30 26 1 26 27
M  V30 27 1 27 28
M  V30 28 1 28 29
M  V30 29 1 22 30
M  V30 30 2 30 31
M  V30 31 2 9 32
M  V30 32 1 32 5
M  V30 33 1 31 10
M  V30 34 1 31 13
M  V30 35 2 21 16
M  V30 36 1 29 24
M  V30 37 1 1 33
M  V30 38 1 1 34
M  V30 39 1 1 35
M  V30 40 1 4 36
M  V30 41 1 6 37
M  V30 42 1 7 38
M  V30 43 1 8 39
M  V30 44 1 12 40
M  V30 45 1 14 41
M  V30 46 1 17 42
M  V30 47 1 20 43
M  V30 48 1 20 44
M  V30 49 1 20 45
M  V30 50 1 21 46
M  V30 51 1 23 47
M  V30 52 1 24 48
M  V30 53 1 25 49
M  V30 54 1 25 50
M  V30 55 1 26 51
M  V30 56 1 26 52
M  V30 57 1 27 53
M  V30 58 1 27 54
M  V30 59 1 28 55
M  V30 60 1 28 56
M  V30 61 1 29 57
M  V30 62 1 29 58
M  V30 63 1 30 59
M  V30 64 1 32 60
M  V30 END BOND
M  V30 END CTAB
M  END
>  <Dataset>  (249) 
ChEMBL_Kinases

>  <Ligand_Instance>  (249) 
nan

>  <PDB_ID>  (249) 
nan

>  <Standardized_SMILES>  (249) 
CC(=O)Nc1cccc(-c2n[nH]c3cc(-c4cnn(C)c4)c(NC4CCCCC4)cc23)c1

>  <Name>  (249) 
nan

>  <Pocket>  (249) 
nan

>  <ATP_Site>  (249) 
nan

>  <Peripheral>  (249) 
nan

>  <Num_H_Atoms_ProtBoundConf>  (249) 
nan

>  <Num_Resolved_Atoms>  (249) 
nan

>  <Num_Not_Resolved_Atoms>  (249) 
nan

$$$$
CHEMBL2380823
     RDKit          3D

  0  0  0  0  0  0  0  0  0  0999 V3000
M  V30 BEGIN CTAB
M  V30 COUNTS 49 53 0 0 0
M  V30 BEGIN ATOM
M  V30 1 O -1.740013 -2.953144 0.399910 0
M  V30 2 C -1.309560 -4.110983 0.060801 0
M  V30 3 N -0.078954 -3.952521 -0.599892 0
M  V30 4 C 0.300391 -2.580325 -0.685741 0
M  V30 5 C 1.057026 -1.989189 0.306697 0
M  V30 6 C 1.390677 -0.656851 0.163195 0
M  V30 7 C 0.986808 0.076332 -0.935222 0
M  V30 8 N 1.373174 1.488528 -1.029186 0
M  V30 9 C 2.082143 2.331940 -0.166828 0
M  V30 10 C 3.334691 2.507960 -0.790419 0
M  V30 11 C 4.324441 3.257781 -0.137800 0
M  V30 12 N 4.114174 3.816064 1.068660 0
M  V30 13 C 2.920816 3.656279 1.668662 0
M  V30 14 N 2.653455 4.191955 2.868414 0
M  V30 15 C 1.475561 4.067796 3.504066 0
M  V30 16 O 1.293591 4.584413 4.612923 0
M  V30 17 C 0.490008 3.328196 2.836821 0
M  V30 18 C -0.729670 3.259441 3.471864 0
M  V30 19 C -1.725699 2.588947 2.796987 0
M  V30 20 C -1.566835 1.994767 1.538933 0
M  V30 21 C -0.297645 2.145929 1.037008 0
M  V30 22 C 0.744728 2.780165 1.625599 0
M  V30 23 C 1.946748 2.930558 1.041919 0
M  V30 24 C 0.232180 -0.480659 -1.942690 0
M  V30 25 C -0.083904 -1.813851 -1.768246 0
M  V30 26 C -2.026226 -5.331721 0.345118 0
M  V30 27 C -3.239897 -5.166306 1.025421 0
M  V30 28 C -4.028060 -6.241057 1.361959 0
M  V30 29 C -3.692035 -7.528118 1.063094 0
M  V30 30 C -2.514203 -7.711166 0.400876 0
M  V30 31 C -1.718963 -6.643232 0.059848 0
M  V30 32 F -0.549803 -6.805887 -0.595794 0
M  V30 33 H 0.406379 -4.809899 -0.942361 0
M  V30 34 H 1.389378 -2.534446 1.179118 0
M  V30 35 H 1.977380 -0.166323 0.915307 0
M  V30 36 H 1.054303 1.985221 -1.920125 0
M  V30 37 H 3.748146 2.170534 -1.738256 0
M  V30 38 H 5.318630 3.470274 -0.497109 0
M  V30 39 H 3.402477 4.743599 3.349008 0
M  V30 40 H -0.874788 3.709773 4.438581 0
M  V30 41 H -2.677496 2.549286 3.325468 0
M  V30 42 H -2.458649 1.522702 1.178755 0
M  V30 43 H -0.375216 1.719296 0.081129 0
M  V30 44 H -0.075847 0.105417 -2.794869 0
M  V30 45 H -0.684877 -2.293692 -2.550922 0
M  V30 46 H -3.596438 -4.163502 1.310227 0
M  V30 47 H -4.955622 -6.053001 1.887379 0
M  V30 48 H -4.260490 -8.403333 1.296913 0
M  V30 49 H -2.163516 -8.701398 0.120399 0
M  V30 END ATOM
M  V30 BEGIN BOND
M  V30 1 2 1 2
M  V30 2 1 2 3
M  V30 3 1 3 4
M  V30 4 2 4 5
M  V30 5 1 5 6
M  V30 6 2 6 7
M  V30 7 1 7 8
M  V30 8 1 8 9
M  V30 9 2 9 10
M  V30 10 1 10 11
M  V30 11 2 11 12
M  V30 12 1 12 13
M  V30 13 1 13 14
M  V30 14 1 14 15
M  V30 15 2 15 16
M  V30 16 1 15 17
M  V30 17 2 17 18
M  V30 18 1 18 19
M  V30 19 2 19 20
M  V30 20 1 20 21
M  V30 21 2 21 22
M  V30 22 1 22 23
M  V30 23 1 7 24
M  V30 24 2 24 25
M  V30 25 1 2 26
M  V30 26 2 26 27
M  V30 27 1 27 28
M  V30 28 2 28 29
M  V30 29 1 29 30
M  V30 30 2 30 31
M  V30 31 1 31 32
M  V30 32 1 25 4
M  V30 33 1 31 26
M  V30 34 1 23 9
M  V30 35 2 23 13
M  V30 36 1 22 17
M  V30 37 1 3 33
M  V30 38 1 5 34
M  V30 39 1 6 35
M  V30 40 1 8 36
M  V30 41 1 10 37
M  V30 42 1 11 38
M  V30 43 1 14 39
M  V30 44 1 18 40
M  V30 45 1 19 41
M  V30 46 1 20 42
M  V30 47 1 21 43
M  V30 48 1 24 44
M  V30 49 1 25 45
M  V30 50 1 27 46
M  V30 51 1 28 47
M  V30 52 1 29 48
M  V30 53 1 30 49
M  V30 END BOND
M  V30 END CTAB
M  END
>  <Dataset>  (250) 
ChEMBL_Kinases

>  <Ligand_Instance>  (250) 
nan

>  <PDB_ID>  (250) 
nan

>  <Standardized_SMILES>  (250) 
O=C(Nc1ccc(Nc2ccnc3[nH]c(=O)c4ccccc4c23)cc1)c1ccccc1F

>  <Name>  (250) 
nan

>  <Pocket>  (250) 
nan

>  <ATP_Site>  (250) 
nan

>  <Peripheral>  (250) 
nan

>  <Num_H_Atoms_ProtBoundConf>  (250) 
nan

>  <Num_Resolved_Atoms>  (250) 
nan

>  <Num_Not_Resolved_Atoms>  (250) 
nan

$$$$
CHEMBL2380824
     RDKit          3D

  0  0  0  0  0  0  0  0  0  0999 V3000
M  V30 BEGIN CTAB
M  V30 COUNTS 52 56 0 0 0
M  V30 BEGIN ATOM
M  V30 1 O 0.815328 -3.202496 -1.790487 0
M  V30 2 C 0.198690 -4.137778 -1.217786 0
M  V30 3 N -0.488190 -3.803003 0.012747 0
M  V30 4 C -0.221447 -2.389440 0.199653 0
M  V30 5 C 0.868553 -1.862747 0.875506 0
M  V30 6 C 0.983995 -0.468850 0.939138 0
M  V30 7 C 0.034951 0.348108 0.343579 0
M  V30 8 N 0.395942 1.708217 0.517241 0
M  V30 9 C 0.994229 2.688795 1.272529 0
M  V30 10 C 2.217627 2.958970 0.612532 0
M  V30 11 C 3.144050 3.901723 1.075884 0
M  V30 12 N 2.805992 4.548723 2.200718 0
M  V30 13 C 1.675656 4.347002 2.867053 0
M  V30 14 N 1.438452 5.072480 3.959977 0
M  V30 15 C 0.286565 4.909424 4.635671 0
M  V30 16 O 0.040369 5.578580 5.668163 0
M  V30 17 C -0.610744 3.983986 4.159209 0
M  V30 18 C -1.806197 3.838128 4.823335 0
M  V30 19 C -2.705477 2.939478 4.316267 0
M  V30 20 C -2.520449 2.147767 3.172044 0
M  V30 21 C -1.294910 2.375942 2.592433 0
M  V30 22 C -0.364210 3.242686 3.040648 0
M  V30 23 C 0.803694 3.429587 2.389466 0
M  V30 24 C -1.051797 -0.157506 -0.325953 0
M  V30 25 C -1.139432 -1.533660 -0.373068 0
M  V30 26 C 0.155895 -5.522979 -1.747213 0
M  V30 27 C 0.783061 -6.517716 -0.986690 0
M  V30 28 C 0.762684 -7.834901 -1.464179 0
M  V30 29 C 0.155845 -8.185807 -2.637803 0
M  V30 30 C -0.440612 -7.187488 -3.346230 0
M  V30 31 C -0.466459 -5.876367 -2.953820 0
M  V30 32 C -1.118619 -4.827608 -3.744065 0
M  V30 33 F -0.161289 -3.886783 -4.084224 0
M  V30 34 F -2.234997 -4.274589 -3.161024 0
M  V30 35 F -1.553681 -5.348594 -4.969352 0
M  V30 36 H -1.028559 -4.512046 0.555009 0
M  V30 37 H 1.533339 -2.586466 1.291436 0
M  V30 38 H 1.863668 -0.191427 1.485836 0
M  V30 39 H -0.013296 2.186624 -0.359080 0
M  V30 40 H 2.647097 2.526339 -0.303908 0
M  V30 41 H 4.084013 4.162592 0.634454 0
M  V30 42 H 2.153867 5.780504 4.303400 0
M  V30 43 H -1.982082 4.429898 5.707499 0
M  V30 44 H -3.639648 2.876485 4.897214 0
M  V30 45 H -3.353812 1.514681 2.953749 0
M  V30 46 H -1.306343 1.759460 1.752268 0
M  V30 47 H -1.712436 0.599756 -0.737920 0
M  V30 48 H -2.025908 -1.895283 -0.917990 0
M  V30 49 H 1.284990 -6.325195 -0.043716 0
M  V30 50 H 1.243345 -8.606628 -0.880193 0
M  V30 51 H 0.170526 -9.224386 -2.953877 0
M  V30 52 H -0.937490 -7.392734 -4.272390 0
M  V30 END ATOM
M  V30 BEGIN BOND
M  V30 1 2 1 2
M  V30 2 1 2 3
M  V30 3 1 3 4
M  V30 4 2 4 5
M  V30 5 1 5 6
M  V30 6 2 6 7
M  V30 7 1 7 8
M  V30 8 1 8 9
M  V30 9 2 9 10
M  V30 10 1 10 11
M  V30 11 2 11 12
M  V30 12 1 12 13
M  V30 13 1 13 14
M  V30 14 1 14 15
M  V30 15 2 15 16
M  V30 16 1 15 17
M  V30 17 2 17 18
M  V30 18 1 18 19
M  V30 19 2 19 20
M  V30 20 1 20 21
M  V30 21 2 21 22
M  V30 22 1 22 23
M  V30 23 1 7 24
M  V30 24 2 24 25
M  V30 25 1 2 26
M  V30 26 2 26 27
M  V30 27 1 27 28
M  V30 28 2 28 29
M  V30 29 1 29 30
M  V30 30 2 30 31
M  V30 31 1 31 32
M  V30 32 1 32 33
M  V30 33 1 32 34
M  V30 34 1 32 35
M  V30 35 1 25 4
M  V30 36 1 31 26
M  V30 37 1 23 9
M  V30 38 2 23 13
M  V30 39 1 22 17
M  V30 40 1 3 36
M  V30 41 1 5 37
M  V30 42 1 6 38
M  V30 43 1 8 39
M  V30 44 1 10 40
M  V30 45 1 11 41
M  V30 46 1 14 42
M  V30 47 1 18 43
M  V30 48 1 19 44
M  V30 49 1 20 45
M  V30 50 1 21 46
M  V30 51 1 24 47
M  V30 52 1 25 48
M  V30 53 1 27 49
M  V30 54 1 28 50
M  V30 55 1 29 51
M  V30 56 1 30 52
M  V30 END BOND
M  V30 END CTAB
M  END
>  <Dataset>  (251) 
ChEMBL_Kinases

>  <Ligand_Instance>  (251) 
nan

>  <PDB_ID>  (251) 
nan

>  <Standardized_SMILES>  (251) 
O=C(Nc1ccc(Nc2ccnc3[nH]c(=O)c4ccccc4c23)cc1)c1ccccc1C(F)(F)F

>  <Name>  (251) 
nan

>  <Pocket>  (251) 
nan

>  <ATP_Site>  (251) 
nan

>  <Peripheral>  (251) 
nan

>  <Num_H_Atoms_ProtBoundConf>  (251) 
nan

>  <Num_Resolved_Atoms>  (251) 
nan

>  <Num_Not_Resolved_Atoms>  (251) 
nan

$$$$
CHEMBL2380825
     RDKit          3D

  0  0  0  0  0  0  0  0  0  0999 V3000
M  V30 BEGIN CTAB
M  V30 COUNTS 49 53 0 0 0
M  V30 BEGIN ATOM
M  V30 1 O -1.617441 -3.349298 0.050290 0
M  V30 2 C -0.857053 -4.316956 0.314547 0
M  V30 3 N 0.518749 -4.035746 0.338554 0
M  V30 4 C 0.886579 -2.687806 0.060531 0
M  V30 5 C 0.968216 -1.842059 1.143652 0
M  V30 6 C 1.325137 -0.534186 0.873602 0
M  V30 7 C 1.595688 -0.048153 -0.389573 0
M  V30 8 N 1.961257 1.336506 -0.574678 0
M  V30 9 C 2.092088 2.416204 0.299096 0
M  V30 10 C 3.481848 2.628639 0.401161 0
M  V30 11 C 3.972349 3.614399 1.269531 0
M  V30 12 N 3.139911 4.370041 2.014844 0
M  V30 13 C 1.812793 4.183418 1.926919 0
M  V30 14 N 0.949709 4.911167 2.643419 0
M  V30 15 C -0.383817 4.758543 2.574507 0
M  V30 16 O -1.165216 5.455661 3.263055 0
M  V30 17 C -0.866141 3.780464 1.694323 0
M  V30 18 C -2.236580 3.680393 1.594897 0
M  V30 19 C -2.704999 2.772358 0.692714 0
M  V30 20 C -1.900872 1.959904 -0.116728 0
M  V30 21 C -0.560865 2.171582 0.096189 0
M  V30 22 C -0.000326 3.042151 0.969348 0
M  V30 23 C 1.334682 3.225104 1.078497 0
M  V30 24 C 1.508765 -0.908154 -1.457978 0
M  V30 25 C 1.157321 -2.200793 -1.202214 0
M  V30 26 C -1.451346 -5.622963 0.568901 0
M  V30 27 C -2.830705 -5.694694 0.497762 0
M  V30 28 C -3.466105 -6.920577 0.731607 0
M  V30 29 C -2.664057 -8.008712 1.025505 0
M  V30 30 C -1.286740 -7.945044 1.098316 0
M  V30 31 F -0.505767 -9.014772 1.386762 0
M  V30 32 C -0.671456 -6.721021 0.863617 0
M  V30 33 H 1.181871 -4.806558 0.552705 0
M  V30 34 H 0.769275 -2.163161 2.148479 0
M  V30 35 H 1.395377 0.150732 1.715991 0
M  V30 36 H 2.171422 1.602399 -1.589030 0
M  V30 37 H 4.346552 2.162022 -0.082684 0
M  V30 38 H 5.002695 3.877605 1.441315 0
M  V30 39 H 1.382474 5.628768 3.280964 0
M  V30 40 H -2.869873 4.298014 2.208801 0
M  V30 41 H -3.798082 2.713803 0.638113 0
M  V30 42 H -2.458880 1.317155 -0.758430 0
M  V30 43 H -0.113529 1.554311 -0.624779 0
M  V30 44 H 1.719724 -0.533106 -2.451177 0
M  V30 45 H 1.084605 -2.894088 -2.041253 0
M  V30 46 H -3.485387 -4.854707 0.268642 0
M  V30 47 H -4.546604 -6.977965 0.676149 0
M  V30 48 H -3.127213 -8.977332 1.212733 0
M  V30 49 H 0.402870 -6.660943 0.918085 0
M  V30 END ATOM
M  V30 BEGIN BOND
M  V30 1 2 1 2
M  V30 2 1 2 3
M  V30 3 1 3 4
M  V30 4 2 4 5
M  V30 5 1 5 6
M  V30 6 2 6 7
M  V30 7 1 7 8
M  V30 8 1 8 9
M  V30 9 2 9 10
M  V30 10 1 10 11
M  V30 11 2 11 12
M  V30 12 1 12 13
M  V30 13 1 13 14
M  V30 14 1 14 15
M  V30 15 2 15 16
M  V30 16 1 15 17
M  V30 17 2 17 18
M  V30 18 1 18 19
M  V30 19 2 19 20
M  V30 20 1 20 21
M  V30 21 2 21 22
M  V30 22 1 22 23
M  V30 23 1 7 24
M  V30 24 2 24 25
M  V30 25 1 2 26
M  V30 26 2 26 27
M  V30 27 1 27 28
M  V30 28 2 28 29
M  V30 29 1 29 30
M  V30 30 1 30 31
M  V30 31 2 30 32
M  V30 32 1 25 4
M  V30 33 1 32 26
M  V30 34 1 23 9
M  V30 35 2 23 13
M  V30 36 1 22 17
M  V30 37 1 3 33
M  V30 38 1 5 34
M  V30 39 1 6 35
M  V30 40 1 8 36
M  V30 41 1 10 37
M  V30 42 1 11 38
M  V30 43 1 14 39
M  V30 44 1 18 40
M  V30 45 1 19 41
M  V30 46 1 20 42
M  V30 47 1 21 43
M  V30 48 1 24 44
M  V30 49 1 25 45
M  V30 50 1 27 46
M  V30 51 1 28 47
M  V30 52 1 29 48
M  V30 53 1 32 49
M  V30 END BOND
M  V30 END CTAB
M  END
>  <Dataset>  (252) 
ChEMBL_Kinases

>  <Ligand_Instance>  (252) 
nan

>  <PDB_ID>  (252) 
nan

>  <Standardized_SMILES>  (252) 
O=C(Nc1ccc(Nc2ccnc3[nH]c(=O)c4ccccc4c23)cc1)c1cccc(F)c1

>  <Name>  (252) 
nan

>  <Pocket>  (252) 
nan

>  <ATP_Site>  (252) 
nan

>  <Peripheral>  (252) 
nan

>  <Num_H_Atoms_ProtBoundConf>  (252) 
nan

>  <Num_Resolved_Atoms>  (252) 
nan

>  <Num_Not_Resolved_Atoms>  (252) 
nan

$$$$
CHEMBL2380826
     RDKit          3D

  0  0  0  0  0  0  0  0  0  0999 V3000
M  V30 BEGIN CTAB
M  V30 COUNTS 52 56 0 0 0
M  V30 BEGIN ATOM
M  V30 1 C 1.561967 -4.752656 8.202482 0
M  V30 2 C 1.534285 -4.015057 6.911894 0
M  V30 3 C 0.627084 -4.412699 5.933850 0
M  V30 4 C 0.587639 -3.728998 4.713237 0
M  V30 5 C 1.438857 -2.667767 4.474523 0
M  V30 6 C 1.332974 -2.010387 3.177788 0
M  V30 7 O 0.479252 -2.450726 2.364346 0
M  V30 8 N 2.133566 -0.907031 2.781308 0
M  V30 9 C 1.802566 -0.471850 1.448083 0
M  V30 10 C 2.479746 -1.039789 0.386064 0
M  V30 11 C 2.271142 -0.724889 -0.938376 0
M  V30 12 C 1.311160 0.229693 -1.197611 0
M  V30 13 N 0.943251 0.705195 -2.521898 0
M  V30 14 C 0.013465 1.582910 -3.037564 0
M  V30 15 C 0.773919 2.701075 -3.442782 0
M  V30 16 C 0.123786 3.831839 -3.960001 0
M  V30 17 N -1.213754 3.863531 -4.074768 0
M  V30 18 C -1.963562 2.815101 -3.701753 0
M  V30 19 N -3.286893 2.819406 -3.808713 0
M  V30 20 C -4.072233 1.787657 -3.455430 0
M  V30 21 O -5.324607 1.806551 -3.558950 0
M  V30 22 C -3.412965 0.659535 -2.952762 0
M  V30 23 C -4.207497 -0.420740 -2.641489 0
M  V30 24 C -3.558879 -1.552610 -2.201841 0
M  V30 25 C -2.171141 -1.671822 -2.056016 0
M  V30 26 C -1.508495 -0.521078 -2.399785 0
M  V30 27 C -2.053460 0.636174 -2.834316 0
M  V30 28 C -1.324886 1.714502 -3.201187 0
M  V30 29 C 0.613729 0.817013 -0.132207 0
M  V30 30 C 0.839822 0.485389 1.190183 0
M  V30 31 C 2.336688 -2.275256 5.444161 0
M  V30 32 C 2.391464 -2.942308 6.664621 0
M  V30 33 H 2.504369 -4.575953 8.742008 0
M  V30 34 H 1.339058 -5.819481 8.032148 0
M  V30 35 H 0.706933 -4.350652 8.812845 0
M  V30 36 H -0.030552 -5.255528 6.157121 0
M  V30 37 H -0.156992 -4.110627 4.003437 0
M  V30 38 H 2.846228 -0.529544 3.444571 0
M  V30 39 H 3.252530 -1.804182 0.546721 0
M  V30 40 H 2.772258 -1.139409 -1.799638 0
M  V30 41 H 1.560478 0.235693 -3.257641 0
M  V30 42 H 1.855589 2.921993 -3.452452 0
M  V30 43 H 0.573431 4.748571 -4.305792 0
M  V30 44 H -3.753666 3.670190 -4.188543 0
M  V30 45 H -5.276942 -0.357217 -2.744987 0
M  V30 46 H -4.221773 -2.378776 -1.965425 0
M  V30 47 H -1.857554 -2.634471 -1.702602 0
M  V30 48 H -0.500247 -0.793538 -2.306340 0
M  V30 49 H -0.139504 1.565552 -0.327832 0
M  V30 50 H 0.306458 0.934705 2.002855 0
M  V30 51 H 3.004598 -1.444742 5.260266 0
M  V30 52 H 3.081650 -2.669035 7.457881 0
M  V30 END ATOM
M  V30 BEGIN BOND
M  V30 1 1 1 2
M  V30 2 2 2 3
M  V30 3 1 3 4
M  V30 4 2 4 5
M  V30 5 1 5 6
M  V30 6 2 6 7
M  V30 7 1 6 8
M  V30 8 1 8 9
M  V30 9 2 9 10
M  V30 10 1 10 11
M  V30 11 2 11 12
M  V30 12 1 12 13
M  V30 13 1 13 14
M  V30 14 2 14 15
M  V30 15 1 15 16
M  V30 16 2 16 17
M  V30 17 1 17 18
M  V30 18 1 18 19
M  V30 19 1 19 20
M  V30 20 2 20 21
M  V30 21 1 20 22
M  V30 22 2 22 23
M  V30 23 1 23 24
M  V30 24 2 24 25
M  V30 25 1 25 26
M  V30 26 2 26 27
M  V30 27 1 27 28
M  V30 28 1 12 29
M  V30 29 2 29 30
M  V30 30 1 5 31
M  V30 31 2 31 32
M  V30 32 1 32 2
M  V30 33 1 30 9
M  V30 34 1 28 14
M  V30 35 2 28 18
M  V30 36 1 27 22
M  V30 37 1 1 33
M  V30 38 1 1 34
M  V30 39 1 1 35
M  V30 40 1 3 36
M  V30 41 1 4 37
M  V30 42 1 8 38
M  V30 43 1 10 39
M  V30 44 1 11 40
M  V30 45 1 13 41
M  V30 46 1 15 42
M  V30 47 1 16 43
M  V30 48 1 19 44
M  V30 49 1 23 45
M  V30 50 1 24 46
M  V30 51 1 25 47
M  V30 52 1 26 48
M  V30 53 1 29 49
M  V30 54 1 30 50
M  V30 55 1 31 51
M  V30 56 1 32 52
M  V30 END BOND
M  V30 END CTAB
M  END
>  <Dataset>  (253) 
ChEMBL_Kinases

>  <Ligand_Instance>  (253) 
nan

>  <PDB_ID>  (253) 
nan

>  <Standardized_SMILES>  (253) 
Cc1ccc(C(=O)Nc2ccc(Nc3ccnc4[nH]c(=O)c5ccccc5c34)cc2)cc1

>  <Name>  (253) 
nan

>  <Pocket>  (253) 
nan

>  <ATP_Site>  (253) 
nan

>  <Peripheral>  (253) 
nan

>  <Num_H_Atoms_ProtBoundConf>  (253) 
nan

>  <Num_Resolved_Atoms>  (253) 
nan

>  <Num_Not_Resolved_Atoms>  (253) 
nan

$$$$
CHEMBL2380827
     RDKit          3D

  0  0  0  0  0  0  0  0  0  0999 V3000
M  V30 BEGIN CTAB
M  V30 COUNTS 49 53 0 0 0
M  V30 BEGIN ATOM
M  V30 1 O -1.663468 -3.181156 0.982853 0
M  V30 2 C -1.669247 -3.602150 2.186836 0
M  V30 3 N -1.331276 -2.667444 3.174639 0
M  V30 4 C -1.035992 -1.383006 2.630639 0
M  V30 5 C -2.027907 -0.440289 2.466563 0
M  V30 6 C -1.834648 0.822274 1.947899 0
M  V30 7 C -0.542103 1.116387 1.581889 0
M  V30 8 N -0.128465 2.403065 1.013407 0
M  V30 9 C 1.071579 2.932395 0.510651 0
M  V30 10 C 1.476834 3.850388 1.502235 0
M  V30 11 C 2.693830 4.520253 1.361120 0
M  V30 12 N 3.471241 4.292271 0.290535 0
M  V30 13 C 3.101919 3.432271 -0.655775 0
M  V30 14 N 3.850924 3.178825 -1.740307 0
M  V30 15 C 3.502540 2.321147 -2.715216 0
M  V30 16 O 4.257427 2.134487 -3.697207 0
M  V30 17 C 2.274053 1.664934 -2.569555 0
M  V30 18 C 1.900147 0.833181 -3.597402 0
M  V30 19 C 0.671402 0.242739 -3.475328 0
M  V30 20 C -0.202378 0.431041 -2.398798 0
M  V30 21 C 0.304020 1.282396 -1.452588 0
M  V30 22 C 1.499730 1.912580 -1.468127 0
M  V30 23 C 1.917986 2.776339 -0.531756 0
M  V30 24 C 0.465694 0.180277 1.740368 0
M  V30 25 C 0.259348 -1.080640 2.261097 0
M  V30 26 C -2.012419 -4.984511 2.490622 0
M  V30 27 C -2.053477 -5.535450 3.770307 0
M  V30 28 C -2.394877 -6.863892 3.926076 0
M  V30 29 C -2.704567 -7.697315 2.868291 0
M  V30 30 F -3.036389 -8.988852 3.021393 0
M  V30 31 C -2.672125 -7.178100 1.585298 0
M  V30 32 C -2.326910 -5.840685 1.447803 0
M  V30 33 H -1.313254 -2.938791 4.203069 0
M  V30 34 H -3.067805 -0.645015 2.748644 0
M  V30 35 H -2.559427 1.592017 1.797160 0
M  V30 36 H -0.951741 3.083683 0.976870 0
M  V30 37 H 1.023291 4.195594 2.443200 0
M  V30 38 H 3.132212 5.240186 2.024714 0
M  V30 39 H 4.775367 3.669228 -1.861067 0
M  V30 40 H 2.561517 0.680690 -4.430609 0
M  V30 41 H 0.402213 -0.414778 -4.305256 0
M  V30 42 H -1.119175 -0.116619 -2.487682 0
M  V30 43 H -0.482749 1.375185 -0.766981 0
M  V30 44 H 1.484942 0.413836 1.451136 0
M  V30 45 H 1.062714 -1.781514 2.370163 0
M  V30 46 H -1.811406 -4.881316 4.591515 0
M  V30 47 H -2.429189 -7.301559 4.931347 0
M  V30 48 H -2.897185 -7.738772 0.671476 0
M  V30 49 H -2.299851 -5.423262 0.429440 0
M  V30 END ATOM
M  V30 BEGIN BOND
M  V30 1 2 1 2
M  V30 2 1 2 3
M  V30 3 1 3 4
M  V30 4 2 4 5
M  V30 5 1 5 6
M  V30 6 2 6 7
M  V30 7 1 7 8
M  V30 8 1 8 9
M  V30 9 2 9 10
M  V30 10 1 10 11
M  V30 11 2 11 12
M  V30 12 1 12 13
M  V30 13 1 13 14
M  V30 14 1 14 15
M  V30 15 2 15 16
M  V30 16 1 15 17
M  V30 17 2 17 18
M  V30 18 1 18 19
M  V30 19 2 19 20
M  V30 20 1 20 21
M  V30 21 2 21 22
M  V30 22 1 22 23
M  V30 23 1 7 24
M  V30 24 2 24 25
M  V30 25 1 2 26
M  V30 26 2 26 27
M  V30 27 1 27 28
M  V30 28 2 28 29
M  V30 29 1 29 30
M  V30 30 1 29 31
M  V30 31 2 31 32
M  V30 32 1 25 4
M  V30 33 1 32 26
M  V30 34 1 23 9
M  V30 35 2 23 13
M  V30 36 1 22 17
M  V30 37 1 3 33
M  V30 38 1 5 34
M  V30 39 1 6 35
M  V30 40 1 8 36
M  V30 41 1 10 37
M  V30 42 1 11 38
M  V30 43 1 14 39
M  V30 44 1 18 40
M  V30 45 1 19 41
M  V30 46 1 20 42
M  V30 47 1 21 43
M  V30 48 1 24 44
M  V30 49 1 25 45
M  V30 50 1 27 46
M  V30 51 1 28 47
M  V30 52 1 31 48
M  V30 53 1 32 49
M  V30 END BOND
M  V30 END CTAB
M  END
>  <Dataset>  (254) 
ChEMBL_Kinases

>  <Ligand_Instance>  (254) 
nan

>  <PDB_ID>  (254) 
nan

>  <Standardized_SMILES>  (254) 
O=C(Nc1ccc(Nc2ccnc3[nH]c(=O)c4ccccc4c23)cc1)c1ccc(F)cc1

>  <Name>  (254) 
nan

>  <Pocket>  (254) 
nan

>  <ATP_Site>  (254) 
nan

>  <Peripheral>  (254) 
nan

>  <Num_H_Atoms_ProtBoundConf>  (254) 
nan

>  <Num_Resolved_Atoms>  (254) 
nan

>  <Num_Not_Resolved_Atoms>  (254) 
nan

$$$$
CHEMBL2380828
     RDKit          3D

  0  0  0  0  0  0  0  0  0  0999 V3000
M  V30 BEGIN CTAB
M  V30 COUNTS 52 56 0 0 0
M  V30 BEGIN ATOM
M  V30 1 O -0.291589 -5.010182 -0.179559 0
M  V30 2 C 0.198926 -4.440290 -1.163793 0
M  V30 3 N 0.441749 -3.050904 -1.179947 0
M  V30 4 C 0.214582 -2.060486 -0.190274 0
M  V30 5 C 1.253713 -1.830319 0.685134 0
M  V30 6 C 1.006521 -0.863565 1.636708 0
M  V30 7 C -0.182650 -0.127629 1.768567 0
M  V30 8 N -0.467343 0.900218 2.704495 0
M  V30 9 C -0.281532 2.172820 2.154759 0
M  V30 10 C 0.116967 2.181503 0.838483 0
M  V30 11 C 0.332502 3.398356 0.191159 0
M  V30 12 N 0.151361 4.543521 0.851049 0
M  V30 13 C -0.233754 4.598326 2.127255 0
M  V30 14 N -0.379649 5.801308 2.682208 0
M  V30 15 C -0.762785 5.903644 3.964796 0
M  V30 16 O -0.891766 7.062041 4.460523 0
M  V30 17 C -0.987174 4.698121 4.643906 0
M  V30 18 C -1.376495 4.853411 5.955982 0
M  V30 19 C -1.604657 3.703290 6.656563 0
M  V30 20 C -1.459944 2.427130 6.101749 0
M  V30 21 C -1.059832 2.379633 4.759253 0
M  V30 22 C -0.825561 3.499802 4.036372 0
M  V30 23 C -0.438084 3.390042 2.738068 0
M  V30 24 C -1.136827 -0.480518 0.804863 0
M  V30 25 C -1.009497 -1.439359 -0.208286 0
M  V30 26 C 0.520994 -5.263480 -2.319458 0
M  V30 27 C 0.263892 -6.615111 -2.253088 0
M  V30 28 C 0.544318 -7.473272 -3.319193 0
M  V30 29 C 1.094826 -6.991986 -4.489278 0
M  V30 30 C 1.434152 -7.794863 -5.678928 0
M  V30 31 F 0.552151 -8.857076 -5.738150 0
M  V30 32 F 1.244809 -7.075183 -6.856183 0
M  V30 33 F 2.744862 -8.250759 -5.631996 0
M  V30 34 C 1.354851 -5.637016 -4.561542 0
M  V30 35 C 1.071500 -4.812663 -3.502546 0
M  V30 36 H 0.853759 -2.544688 -1.995006 0
M  V30 37 H 2.204060 -2.335642 0.672988 0
M  V30 38 H 1.766216 -0.597782 2.388073 0
M  V30 39 H -0.658181 0.066703 3.280534 0
M  V30 40 H 0.322922 1.373333 0.116780 0
M  V30 41 H 0.644156 3.497546 -0.833801 0
M  V30 42 H -0.194830 6.667182 2.115962 0
M  V30 43 H -1.498555 5.834284 6.418521 0
M  V30 44 H -1.915001 3.846755 7.703988 0
M  V30 45 H -1.685680 1.645996 6.814689 0
M  V30 46 H -1.014690 1.375691 4.553228 0
M  V30 47 H -2.073209 0.059391 0.865155 0
M  V30 48 H -1.798140 -1.626778 -0.886837 0
M  V30 49 H -0.165035 -7.134168 -1.403180 0
M  V30 50 H 0.350178 -8.532889 -3.285621 0
M  V30 51 H 1.792020 -5.171621 -5.455209 0
M  V30 52 H 1.280812 -3.758362 -3.576240 0
M  V30 END ATOM
M  V30 BEGIN BOND
M  V30 1 2 1 2
M  V30 2 1 2 3
M  V30 3 1 3 4
M  V30 4 2 4 5
M  V30 5 1 5 6
M  V30 6 2 6 7
M  V30 7 1 7 8
M  V30 8 1 8 9
M  V30 9 2 9 10
M  V30 10 1 10 11
M  V30 11 2 11 12
M  V30 12 1 12 13
M  V30 13 1 13 14
M  V30 14 1 14 15
M  V30 15 2 15 16
M  V30 16 1 15 17
M  V30 17 2 17 18
M  V30 18 1 18 19
M  V30 19 2 19 20
M  V30 20 1 20 21
M  V30 21 2 21 22
M  V30 22 1 22 23
M  V30 23 1 7 24
M  V30 24 2 24 25
M  V30 25 1 2 26
M  V30 26 2 26 27
M  V30 27 1 27 28
M  V30 28 2 28 29
M  V30 29 1 29 30
M  V30 30 1 30 31
M  V30 31 1 30 32
M  V30 32 1 30 33
M  V30 33 1 29 34
M  V30 34 2 34 35
M  V30 35 1 25 4
M  V30 36 1 35 26
M  V30 37 1 23 9
M  V30 38 2 23 13
M  V30 39 1 22 17
M  V30 40 1 3 36
M  V30 41 1 5 37
M  V30 42 1 6 38
M  V30 43 1 8 39
M  V30 44 1 10 40
M  V30 45 1 11 41
M  V30 46 1 14 42
M  V30 47 1 18 43
M  V30 48 1 19 44
M  V30 49 1 20 45
M  V30 50 1 21 46
M  V30 51 1 24 47
M  V30 52 1 25 48
M  V30 53 1 27 49
M  V30 54 1 28 50
M  V30 55 1 34 51
M  V30 56 1 35 52
M  V30 END BOND
M  V30 END CTAB
M  END
>  <Dataset>  (255) 
ChEMBL_Kinases

>  <Ligand_Instance>  (255) 
nan

>  <PDB_ID>  (255) 
nan

>  <Standardized_SMILES>  (255) 
O=C(Nc1ccc(Nc2ccnc3[nH]c(=O)c4ccccc4c23)cc1)c1ccc(C(F)(F)F)cc1

>  <Name>  (255) 
nan

>  <Pocket>  (255) 
nan

>  <ATP_Site>  (255) 
nan

>  <Peripheral>  (255) 
nan

>  <Num_H_Atoms_ProtBoundConf>  (255) 
nan

>  <Num_Resolved_Atoms>  (255) 
nan

>  <Num_Not_Resolved_Atoms>  (255) 
nan

$$$$
CHEMBL2380829
     RDKit          3D

  0  0  0  0  0  0  0  0  0  0999 V3000
M  V30 BEGIN CTAB
M  V30 COUNTS 49 53 0 0 0
M  V30 BEGIN ATOM
M  V30 1 O -1.854280 -2.681919 -0.084729 0
M  V30 2 C -2.910653 -2.994820 0.571791 0
M  V30 3 N -3.285996 -1.867032 1.345814 0
M  V30 4 C -2.373081 -0.789903 1.130533 0
M  V30 5 C -1.255219 -0.666092 1.930673 0
M  V30 6 C -0.401488 0.391233 1.684844 0
M  V30 7 C -0.641458 1.303799 0.677194 0
M  V30 8 N 0.308526 2.402831 0.471608 0
M  V30 9 C 1.519560 2.735394 1.094292 0
M  V30 10 C 1.224853 3.865395 1.884143 0
M  V30 11 C 2.204672 4.416619 2.698836 0
M  V30 12 N 3.456251 3.889513 2.755833 0
M  V30 13 C 3.748871 2.817604 2.006296 0
M  V30 14 N 4.962601 2.267820 2.026281 0
M  V30 15 C 5.307237 1.198911 1.287608 0
M  V30 16 O 6.457641 0.722435 1.347553 0
M  V30 17 C 4.315510 0.656716 0.457420 0
M  V30 18 C 4.704658 -0.395340 -0.330822 0
M  V30 19 C 3.750796 -0.885369 -1.191177 0
M  V30 20 C 2.451739 -0.384662 -1.302295 0
M  V30 21 C 2.216042 0.664734 -0.447173 0
M  V30 22 C 3.084640 1.213916 0.438353 0
M  V30 23 C 2.787903 2.273399 1.200009 0
M  V30 24 C -1.744479 1.210784 -0.138274 0
M  V30 25 C -2.578723 0.143494 0.132298 0
M  V30 26 C -3.551206 -4.278588 0.492393 0
M  V30 27 C -2.926936 -5.186951 -0.372279 0
M  V30 28 C -3.427273 -6.458023 -0.551310 0
M  V30 29 C -4.555125 -6.912786 0.096613 0
M  V30 30 C -5.176148 -6.030680 0.947393 0
M  V30 31 F -6.291894 -6.336414 1.651239 0
M  V30 32 C -4.668519 -4.764362 1.118877 0
M  V30 33 F -5.268603 -3.885835 1.952365 0
M  V30 34 H -4.135423 -1.954681 1.945299 0
M  V30 35 H -1.092171 -1.389548 2.707369 0
M  V30 36 H 0.482228 0.508741 2.299914 0
M  V30 37 H 0.043950 3.089376 -0.303225 0
M  V30 38 H 0.318600 4.457925 2.010879 0
M  V30 39 H 2.115352 5.273074 3.348187 0
M  V30 40 H 5.684870 2.686904 2.646711 0
M  V30 41 H 5.697884 -0.793587 -0.261411 0
M  V30 42 H 4.093314 -1.722812 -1.800737 0
M  V30 43 H 1.870818 -0.897658 -2.024633 0
M  V30 44 H 1.242574 0.961291 -0.710337 0
M  V30 45 H -1.921107 1.928342 -0.920885 0
M  V30 46 H -3.468500 0.043059 -0.502906 0
M  V30 47 H -2.019729 -4.925549 -0.938987 0
M  V30 48 H -2.919982 -7.131865 -1.225896 0
M  V30 49 H -4.990196 -7.896282 -0.005944 0
M  V30 END ATOM
M  V30 BEGIN BOND
M  V30 1 2 1 2
M  V30 2 1 2 3
M  V30 3 1 3 4
M  V30 4 2 4 5
M  V30 5 1 5 6
M  V30 6 2 6 7
M  V30 7 1 7 8
M  V30 8 1 8 9
M  V30 9 2 9 10
M  V30 10 1 10 11
M  V30 11 2 11 12
M  V30 12 1 12 13
M  V30 13 1 13 14
M  V30 14 1 14 15
M  V30 15 2 15 16
M  V30 16 1 15 17
M  V30 17 2 17 18
M  V30 18 1 18 19
M  V30 19 2 19 20
M  V30 20 1 20 21
M  V30 21 2 21 22
M  V30 22 1 22 23
M  V30 23 1 7 24
M  V30 24 2 24 25
M  V30 25 1 2 26
M  V30 26 2 26 27
M  V30 27 1 27 28
M  V30 28 2 28 29
M  V30 29 1 29 30
M  V30 30 1 30 31
M  V30 31 2 30 32
M  V30 32 1 32 33
M  V30 33 1 25 4
M  V30 34 1 32 26
M  V30 35 1 23 9
M  V30 36 2 23 13
M  V30 37 1 22 17
M  V30 38 1 3 34
M  V30 39 1 5 35
M  V30 40 1 6 36
M  V30 41 1 8 37
M  V30 42 1 10 38
M  V30 43 1 11 39
M  V30 44 1 14 40
M  V30 45 1 18 41
M  V30 46 1 19 42
M  V30 47 1 20 43
M  V30 48 1 21 44
M  V30 49 1 24 45
M  V30 50 1 25 46
M  V30 51 1 27 47
M  V30 52 1 28 48
M  V30 53 1 29 49
M  V30 END BOND
M  V30 END CTAB
M  END
>  <Dataset>  (256) 
ChEMBL_Kinases

>  <Ligand_Instance>  (256) 
nan

>  <PDB_ID>  (256) 
nan

>  <Standardized_SMILES>  (256) 
O=C(Nc1ccc(Nc2ccnc3[nH]c(=O)c4ccccc4c23)cc1)c1cccc(F)c1F

>  <Name>  (256) 
nan

>  <Pocket>  (256) 
nan

>  <ATP_Site>  (256) 
nan

>  <Peripheral>  (256) 
nan

>  <Num_H_Atoms_ProtBoundConf>  (256) 
nan

>  <Num_Resolved_Atoms>  (256) 
nan

>  <Num_Not_Resolved_Atoms>  (256) 
nan

$$$$
CHEMBL2380585
     RDKit          3D

  0  0  0  0  0  0  0  0  0  0999 V3000
M  V30 BEGIN CTAB
M  V30 COUNTS 57 61 0 0 0
M  V30 BEGIN ATOM
M  V30 1 C -0.150019 -6.521949 4.687593 0
M  V30 2 N 0.154470 -5.663228 3.543752 0
M  V30 3 C 0.211486 -4.311338 3.657760 0
M  V30 4 C 0.521353 -3.778779 2.399640 0
M  V30 5 C 0.654103 -2.321405 2.199446 0
M  V30 6 C 1.396323 -1.643071 3.172210 0
M  V30 7 C 1.601955 -0.277358 3.111785 0
M  V30 8 N 2.214552 0.680105 3.803205 0
M  V30 9 N 2.049981 1.862205 3.214195 0
M  V30 10 C 1.301181 1.714162 2.082628 0
M  V30 11 C 0.940799 2.824812 1.206807 0
M  V30 12 C 0.482810 4.009648 1.773695 0
M  V30 13 C 0.114464 5.125035 1.024071 0
M  V30 14 C 0.228879 4.994381 -0.344625 0
M  V30 15 C 0.675216 3.848652 -0.963739 0
M  V30 16 S 0.783978 3.784222 -2.708860 0
M  V30 17 N 2.365961 4.325824 -3.173150 0
M  V30 18 O -0.199964 4.749423 -3.303706 0
M  V30 19 O 0.596001 2.389029 -3.229361 0
M  V30 20 C 1.028949 2.769413 -0.183617 0
M  V30 21 C 1.021905 0.360283 2.024441 0
M  V30 22 C 0.295020 -0.275579 1.063806 0
M  V30 23 C 0.086609 -1.635614 1.118287 0
M  V30 24 O -0.601557 -2.457800 0.270495 0
M  V30 25 C -1.283272 -2.114047 -0.893795 0
M  V30 26 C -2.756644 -2.495023 -0.813364 0
M  V30 27 C -3.261222 -3.145766 -2.073792 0
M  V30 28 C -2.846412 -2.385135 -3.309225 0
M  V30 29 C -1.380971 -2.053536 -3.312674 0
M  V30 30 C -0.737504 -2.796446 -2.135019 0
M  V30 31 C 0.639868 -4.870447 1.561526 0
M  V30 32 N 0.413961 -5.987482 2.277954 0
M  V30 33 H -1.225311 -6.275532 4.929490 0
M  V30 34 H 0.434409 -6.173525 5.561518 0
M  V30 35 H -0.032631 -7.576041 4.433373 0
M  V30 36 H 0.044375 -3.742123 4.572235 0
M  V30 37 H 1.836808 -2.163815 4.008155 0
M  V30 38 H 2.734926 0.459696 4.680145 0
M  V30 39 H 0.414069 4.053605 2.852189 0
M  V30 40 H -0.237688 6.028608 1.515457 0
M  V30 41 H -0.063433 5.875921 -0.912607 0
M  V30 42 H 2.834126 4.870010 -2.419849 0
M  V30 43 H 3.012484 3.520794 -3.367427 0
M  V30 44 H 1.384168 1.849824 -0.618558 0
M  V30 45 H -0.165384 0.193511 0.211132 0
M  V30 46 H -1.193679 -1.028965 -1.057521 0
M  V30 47 H -3.367417 -1.595362 -0.616863 0
M  V30 48 H -2.943147 -3.190459 0.030075 0
M  V30 49 H -3.025795 -4.227769 -2.139634 0
M  V30 50 H -4.377823 -3.096088 -2.019417 0
M  V30 51 H -3.503597 -1.471710 -3.328939 0
M  V30 52 H -3.123915 -2.985193 -4.195220 0
M  V30 53 H -0.874794 -2.265966 -4.264366 0
M  V30 54 H -1.320483 -0.960413 -3.034831 0
M  V30 55 H -0.974490 -3.879989 -2.158245 0
M  V30 56 H 0.356919 -2.701948 -2.241378 0
M  V30 57 H 0.877058 -4.734017 0.523808 0
M  V30 END ATOM
M  V30 BEGIN BOND
M  V30 1 1 1 2
M  V30 2 1 2 3
M  V30 3 2 3 4
M  V30 4 1 4 5
M  V30 5 2 5 6
M  V30 6 1 6 7
M  V30 7 1 7 8
M  V30 8 1 8 9
M  V30 9 2 9 10
M  V30 10 1 10 11
M  V30 11 2 11 12
M  V30 12 1 12 13
M  V30 13 2 13 14
M  V30 14 1 14 15
M  V30 15 1 15 16
M  V30 16 1 16 17
M  V30 17 2 16 18
M  V30 18 2 16 19
M  V30 19 2 15 20
M  V30 20 1 10 21
M  V30 21 1 21 22
M  V30 22 2 22 23
M  V30 23 1 23 24
M  V30 24 1 24 25
M  V30 25 1 25 26
M  V30 26 1 26 27
M  V30 27 1 27 28
M  V30 28 1 28 29
M  V30 29 1 29 30
M  V30 30 1 4 31
M  V30 31 2 31 32
M  V30 32 1 32 2
M  V30 33 1 23 5
M  V30 34 1 30 25
M  V30 35 2 21 7
M  V30 36 1 20 11
M  V30 37 1 1 33
M  V30 38 1 1 34
M  V30 39 1 1 35
M  V30 40 1 3 36
M  V30 41 1 6 37
M  V30 42 1 8 38
M  V30 43 1 12 39
M  V30 44 1 13 40
M  V30 45 1 14 41
M  V30 46 1 17 42
M  V30 47 1 17 43
M  V30 48 1 20 44
M  V30 49 1 22 45
M  V30 50 1 25 46
M  V30 51 1 26 47
M  V30 52 1 26 48
M  V30 53 1 27 49
M  V30 54 1 27 50
M  V30 55 1 28 51
M  V30 56 1 28 52
M  V30 57 1 29 53
M  V30 58 1 29 54
M  V30 59 1 30 55
M  V30 60 1 30 56
M  V30 61 1 31 57
M  V30 END BOND
M  V30 END CTAB
M  END
>  <Dataset>  (257) 
ChEMBL_Kinases

>  <Ligand_Instance>  (257) 
nan

>  <PDB_ID>  (257) 
nan

>  <Standardized_SMILES>  (257) 
Cn1cc(-c2cc3[nH]nc(-c4cccc(S(N)(=O)=O)c4)c3cc2OC2CCCCC2)cn1

>  <Name>  (257) 
nan

>  <Pocket>  (257) 
nan

>  <ATP_Site>  (257) 
nan

>  <Peripheral>  (257) 
nan

>  <Num_H_Atoms_ProtBoundConf>  (257) 
nan

>  <Num_Resolved_Atoms>  (257) 
nan

>  <Num_Not_Resolved_Atoms>  (257) 
nan

$$$$
CHEMBL3702241
     RDKit          3D

  0  0  0  0  0  0  0  0  0  0999 V3000
M  V30 BEGIN CTAB
M  V30 COUNTS 63 68 0 0 0
M  V30 BEGIN ATOM
M  V30 1 C 6.079779 -0.126487 0.764439 0
M  V30 2 N 5.115795 0.856484 1.190921 0
M  V30 3 C 5.399383 1.324491 2.525016 0
M  V30 4 C 5.012321 1.934103 0.221283 0
M  V30 5 C 4.585264 1.409036 -1.090262 0
M  V30 6 C 3.201010 1.766299 -1.556128 0
M  V30 7 N 2.424916 2.465135 -0.531261 0
M  V30 8 C 1.157740 2.104440 0.001737 0
M  V30 9 C 0.561380 2.779327 1.048324 0
M  V30 10 C -0.670567 2.340984 1.483651 0
M  V30 11 C -1.338339 1.269720 0.933984 0
M  V30 12 N -2.604326 0.852172 1.426350 0
M  V30 13 C -3.359608 -0.229955 0.905821 0
M  V30 14 N -4.251717 0.200547 -0.018028 0
M  V30 15 C -5.081636 -0.649622 -0.652092 0
M  V30 16 C -5.035088 -2.016501 -0.361853 0
M  V30 17 C -5.672755 -3.147671 -0.763292 0
M  V30 18 C -6.681810 -3.320519 -1.687532 0
M  V30 19 C -7.201335 -4.568099 -1.954729 0
M  V30 20 N -6.697060 -5.620158 -1.287857 0
M  V30 21 C -5.709686 -5.461570 -0.381620 0
M  V30 22 C -5.153813 -4.238881 -0.075306 0
M  V30 23 N -4.196646 -3.753087 0.745022 0
M  V30 24 C -3.491230 -4.679168 1.576065 0
M  V30 25 C -2.426504 -5.399218 0.745055 0
M  V30 26 C -1.437092 -4.356609 1.233778 0
M  V30 27 C -2.363909 -4.145021 2.412972 0
M  V30 28 C -4.113557 -2.433872 0.587105 0
M  V30 29 N -3.306632 -1.545597 1.192754 0
M  V30 30 N -0.733785 0.620312 -0.094676 0
M  V30 31 C 0.483247 1.053846 -0.524090 0
M  V30 32 C 3.178938 3.638722 -0.123058 0
M  V30 33 C 4.260378 3.084949 0.790031 0
M  V30 34 H 6.685841 -0.421314 1.663918 0
M  V30 35 H 6.817095 0.279667 0.028798 0
M  V30 36 H 5.588793 -1.055958 0.421637 0
M  V30 37 H 4.455484 1.257668 3.114616 0
M  V30 38 H 5.778662 2.359272 2.582758 0
M  V30 39 H 6.127260 0.683939 3.070222 0
M  V30 40 H 6.079067 2.301393 0.119376 0
M  V30 41 H 4.606891 0.294517 -1.066933 0
M  V30 42 H 5.333912 1.660442 -1.898736 0
M  V30 43 H 2.662781 0.921328 -2.009880 0
M  V30 44 H 3.307603 2.505969 -2.397299 0
M  V30 45 H 1.036462 3.609586 1.503732 0
M  V30 46 H -1.151070 2.868164 2.311461 0
M  V30 47 H -3.018100 1.369267 2.226500 0
M  V30 48 H -5.815092 -0.397438 -1.393064 0
M  V30 49 H -7.084401 -2.455812 -2.223960 0
M  V30 50 H -8.001784 -4.678108 -2.693133 0
M  V30 51 H -5.321034 -6.339373 0.144653 0
M  V30 52 H -4.122639 -5.448541 2.092326 0
M  V30 53 H -2.601466 -5.319563 -0.344344 0
M  V30 54 H -2.216123 -6.433514 1.052936 0
M  V30 55 H -1.371641 -3.483807 0.561039 0
M  V30 56 H -0.456737 -4.802660 1.521117 0
M  V30 57 H -2.428913 -3.107324 2.756061 0
M  V30 58 H -2.114956 -4.883861 3.225567 0
M  V30 59 H 0.815133 0.430324 -1.340994 0
M  V30 60 H 2.594690 4.365991 0.461275 0
M  V30 61 H 3.620517 4.194045 -0.978789 0
M  V30 62 H 3.719540 2.822824 1.747621 0
M  V30 63 H 4.885707 3.961776 1.079288 0
M  V30 END ATOM
M  V30 BEGIN BOND
M  V30 1 1 1 2
M  V30 2 1 2 3
M  V30 3 1 2 4
M  V30 4 1 4 5
M  V30 5 1 5 6
M  V30 6 1 6 7
M  V30 7 1 7 8
M  V30 8 2 8 9
M  V30 9 1 9 10
M  V30 10 2 10 11
M  V30 11 1 11 12
M  V30 12 1 12 13
M  V30 13 2 13 14
M  V30 14 1 14 15
M  V30 15 2 15 16
M  V30 16 1 16 17
M  V30 17 2 17 18
M  V30 18 1 18 19
M  V30 19 2 19 20
M  V30 20 1 20 21
M  V30 21 2 21 22
M  V30 22 1 22 23
M  V30 23 1 23 24
M  V30 24 1 24 25
M  V30 25 1 25 26
M  V30 26 1 26 27
M  V30 27 1 23 28
M  V30 28 2 28 29
M  V30 29 1 11 30
M  V30 30 2 30 31
M  V30 31 1 7 32
M  V30 32 1 32 33
M  V30 33 1 33 4
M  V30 34 1 31 8
M  V30 35 1 29 13
M  V30 36 1 28 16
M  V30 37 1 22 17
M  V30 38 1 27 24
M  V30 39 1 1 34
M  V30 40 1 1 35
M  V30 41 1 1 36
M  V30 42 1 3 37
M  V30 43 1 3 38
M  V30 44 1 3 39
M  V30 45 1 4 40
M  V30 46 1 5 41
M  V30 47 1 5 42
M  V30 48 1 6 43
M  V30 49 1 6 44
M  V30 50 1 9 45
M  V30 51 1 10 46
M  V30 52 1 12 47
M  V30 53 1 15 48
M  V30 54 1 18 49
M  V30 55 1 19 50
M  V30 56 1 21 51
M  V30 57 1 24 52
M  V30 58 1 25 53
M  V30 59 1 25 54
M  V30 60 1 26 55
M  V30 61 1 26 56
M  V30 62 1 27 57
M  V30 63 1 27 58
M  V30 64 1 31 59
M  V30 65 1 32 60
M  V30 66 1 32 61
M  V30 67 1 33 62
M  V30 68 1 33 63
M  V30 END BOND
M  V30 END CTAB
M  END
>  <Dataset>  (258) 
ChEMBL_Kinases

>  <Ligand_Instance>  (258) 
nan

>  <PDB_ID>  (258) 
nan

>  <Standardized_SMILES>  (258) 
CN(C)C1CCN(c2ccc(Nc3ncc4c5ccncc5n(C5CCC5)c4n3)nc2)CC1

>  <Name>  (258) 
nan

>  <Pocket>  (258) 
nan

>  <ATP_Site>  (258) 
nan

>  <Peripheral>  (258) 
nan

>  <Num_H_Atoms_ProtBoundConf>  (258) 
nan

>  <Num_Resolved_Atoms>  (258) 
nan

>  <Num_Not_Resolved_Atoms>  (258) 
nan

$$$$
CHEMBL4469434
     RDKit          3D

  0  0  0  0  0  0  0  0  0  0999 V3000
M  V30 BEGIN CTAB
M  V30 COUNTS 51 53 0 0 0
M  V30 BEGIN ATOM
M  V30 1 C 3.186158 -2.714936 6.222378 0
M  V30 2 C 2.806392 -3.982567 5.466779 0
M  V30 3 C 1.500978 -3.695427 4.768205 0
M  V30 4 O 1.663404 -2.633829 3.892700 0
M  V30 5 C 2.396965 -2.413950 2.804101 0
M  V30 6 C 3.291566 -3.124531 2.062498 0
M  V30 7 C 3.982180 -2.744882 0.938900 0
M  V30 8 C 3.708951 -1.458815 0.530134 0
M  V30 9 C 2.831388 -0.631174 1.179558 0
M  V30 10 C 2.610606 0.762342 0.671489 0 CFG=1
M  V30 11 C 3.548854 1.101755 -0.432371 0
M  V30 12 N 1.229874 1.064314 0.449661 0
M  V30 13 C -0.064318 1.565293 0.507234 0
M  V30 14 O 0.011419 2.353976 1.506891 0
M  V30 15 C -1.209784 1.285629 -0.327763 0
M  V30 16 C -2.314698 1.974973 0.093996 0
M  V30 17 C -3.483589 1.776311 -0.656866 0
M  V30 18 C -3.454724 0.910357 -1.760510 0
M  V30 19 C -4.611662 0.641540 -2.605491 0
M  V30 20 C -5.615258 1.549848 -2.880082 0
M  V30 21 C -6.697597 1.219829 -3.704380 0
M  V30 22 N -6.794458 -0.002567 -4.258983 0
M  V30 23 C -5.827420 -0.898491 -4.002056 0
M  V30 24 C -4.726941 -0.629297 -3.190751 0
M  V30 25 C -2.292883 0.261814 -2.105896 0
M  V30 26 C -1.117890 0.433854 -1.387565 0
M  V30 27 C 2.175440 -1.109211 2.316270 0
M  V30 28 H 3.595656 -2.928555 7.227180 0
M  V30 29 H 2.299140 -2.028700 6.328177 0
M  V30 30 H 3.941045 -2.102649 5.683784 0
M  V30 31 H 3.583388 -4.156571 4.713590 0
M  V30 32 H 2.716798 -4.841978 6.168647 0
M  V30 33 H 1.090936 -4.613747 4.285198 0
M  V30 34 H 0.757650 -3.455216 5.585680 0
M  V30 35 H 3.455939 -4.128442 2.421681 0
M  V30 36 H 4.657071 -3.396958 0.445933 0
M  V30 37 H 4.179644 -1.042941 -0.343695 0
M  V30 38 H 2.951889 1.412999 1.550725 0
M  V30 39 H 4.581185 0.898690 -0.047182 0
M  V30 40 H 3.525929 2.199493 -0.623585 0
M  V30 41 H 3.416743 0.518960 -1.360734 0
M  V30 42 H 1.228201 0.366019 -0.379614 0
M  V30 43 H -2.338465 2.644955 0.948904 0
M  V30 44 H -4.403174 2.270152 -0.405788 0
M  V30 45 H -5.449855 2.497139 -2.389767 0
M  V30 46 H -7.356847 2.063843 -3.785775 0
M  V30 47 H -5.931875 -1.871274 -4.461187 0
M  V30 48 H -4.012923 -1.426983 -3.053701 0
M  V30 49 H -2.238707 -0.419335 -2.961714 0
M  V30 50 H -0.229361 -0.084183 -1.679403 0
M  V30 51 H 1.494743 -0.363583 2.759225 0
M  V30 END ATOM
M  V30 BEGIN BOND
M  V30 1 1 1 2
M  V30 2 1 2 3
M  V30 3 1 3 4
M  V30 4 1 4 5
M  V30 5 2 5 6
M  V30 6 1 6 7
M  V30 7 2 7 8
M  V30 8 1 8 9
M  V30 9 1 9 10
M  V30 10 1 10 11
M  V30 11 1 10 12
M  V30 12 1 12 13
M  V30 13 2 13 14
M  V30 14 1 13 15
M  V30 15 2 15 16
M  V30 16 1 16 17
M  V30 17 2 17 18
M  V30 18 1 18 19
M  V30 19 2 19 20
M  V30 20 1 20 21
M  V30 21 2 21 22
M  V30 22 1 22 23
M  V30 23 2 23 24
M  V30 24 1 18 25
M  V30 25 2 25 26
M  V30 26 2 9 27
M  V30 27 1 27 5
M  V30 28 1 26 15
M  V30 29 1 24 19
M  V30 30 1 1 28
M  V30 31 1 1 29
M  V30 32 1 1 30
M  V30 33 1 2 31
M  V30 34 1 2 32
M  V30 35 1 3 33
M  V30 36 1 3 34
M  V30 37 1 6 35
M  V30 38 1 7 36
M  V30 39 1 8 37
M  V30 40 1 10 38 CFG=1
M  V30 41 1 11 39
M  V30 42 1 11 40
M  V30 43 1 11 41
M  V30 44 1 12 42
M  V30 45 1 16 43
M  V30 46 1 17 44
M  V30 47 1 20 45
M  V30 48 1 21 46
M  V30 49 1 23 47
M  V30 50 1 24 48
M  V30 51 1 25 49
M  V30 52 1 26 50
M  V30 53 1 27 51
M  V30 END BOND
M  V30 END CTAB
M  END
>  <Dataset>  (259) 
ChEMBL_Kinases

>  <Ligand_Instance>  (259) 
nan

>  <PDB_ID>  (259) 
nan

>  <Standardized_SMILES>  (259) 
CCCOc1cccc([C@@H](C)NC(=O)c2ccc(-c3ccncc3)cc2)c1

>  <Name>  (259) 
nan

>  <Pocket>  (259) 
nan

>  <ATP_Site>  (259) 
nan

>  <Peripheral>  (259) 
nan

>  <Num_H_Atoms_ProtBoundConf>  (259) 
nan

>  <Num_Resolved_Atoms>  (259) 
nan

>  <Num_Not_Resolved_Atoms>  (259) 
nan

$$$$
CHEMBL2204113
     RDKit          3D

  0  0  0  0  0  0  0  0  0  0999 V3000
M  V30 BEGIN CTAB
M  V30 COUNTS 66 70 0 0 0
M  V30 BEGIN ATOM
M  V30 1 C 4.278439 0.289283 2.783796 0
M  V30 2 O 3.412220 -0.576637 2.094257 0
M  V30 3 C 2.139366 -0.891274 2.443559 0
M  V30 4 O 2.082455 -0.186499 3.479059 0
M  V30 5 C 1.070776 -1.721122 1.941542 0
M  V30 6 C 1.177966 -2.437672 0.773566 0
M  V30 7 C 2.291108 -2.322748 -0.174795 0
M  V30 8 C 2.045348 -1.197402 -1.103843 0
M  V30 9 C 1.449027 -1.597197 -2.312189 0
M  V30 10 C 1.097459 -0.790867 -3.371289 0
M  V30 11 C 1.349332 0.562596 -3.255659 0
M  V30 12 S 0.954969 1.672695 -4.543632 0
M  V30 13 O 1.172545 1.005690 -5.875244 0
M  V30 14 O 1.853223 2.875954 -4.435992 0
M  V30 15 N -0.655678 2.194160 -4.340198 0
M  V30 16 C -0.937562 2.886552 -3.156121 0
M  V30 17 C -1.476764 1.996677 -2.084497 0
M  V30 18 N -2.036335 0.786048 -2.596437 0
M  V30 19 C -2.620837 0.905428 -3.895675 0
M  V30 20 C -1.608449 1.348660 -4.928580 0
M  V30 21 C 1.929100 1.012092 -2.101208 0
M  V30 22 C 2.255917 0.155259 -1.080983 0
M  V30 23 C 0.073281 -3.251078 0.528498 0
M  V30 24 O 0.010520 -3.976751 -0.497160 0
M  V30 25 C -1.039554 -3.352472 1.351590 0
M  V30 26 C -2.095872 -4.161543 1.070827 0
M  V30 27 C -3.198781 -4.238771 1.922858 0
M  V30 28 C -3.162938 -3.456930 3.057575 0
M  V30 29 C -4.332785 -3.515245 3.997643 0
M  V30 30 N -2.122944 -2.671422 3.317052 0
M  V30 31 C -1.042868 -2.585933 2.497431 0
M  V30 32 N -0.004420 -1.787025 2.782269 0
M  V30 33 C -0.088299 -1.031895 3.984930 0
M  V30 34 C -0.585591 0.241991 4.162839 0
M  V30 35 C -0.599609 0.844112 5.385823 0
M  V30 36 C -0.108811 0.185711 6.498727 0
M  V30 37 C 0.398796 -1.104302 6.339823 0
M  V30 38 C 0.402509 -1.697984 5.081362 0
M  V30 39 H 4.373180 1.285088 2.270996 0
M  V30 40 H 5.338886 -0.108404 2.754729 0
M  V30 41 H 4.065869 0.447396 3.837698 0
M  V30 42 H 2.470553 -3.252052 -0.750812 0
M  V30 43 H 3.256195 -2.094187 0.334608 0
M  V30 44 H 1.200146 -2.646579 -2.538741 0
M  V30 45 H 0.647150 -1.115297 -4.276805 0
M  V30 46 H -1.641163 3.742004 -3.348786 0
M  V30 47 H 0.041334 3.313376 -2.776468 0
M  V30 48 H -2.300623 2.544010 -1.574493 0
M  V30 49 H -0.735298 1.748926 -1.296681 0
M  V30 50 H -1.536025 -0.082779 -2.395505 0
M  V30 51 H -3.454248 1.623130 -3.837030 0
M  V30 52 H -2.970153 -0.109392 -4.186365 0
M  V30 53 H -2.138736 1.873244 -5.772048 0
M  V30 54 H -1.090712 0.444982 -5.343982 0
M  V30 55 H 2.164867 2.058309 -1.918202 0
M  V30 56 H 2.711233 0.510455 -0.177873 0
M  V30 57 H -2.105834 -4.768152 0.173548 0
M  V30 58 H -4.052637 -4.886784 1.704463 0
M  V30 59 H -4.331490 -4.482339 4.543738 0
M  V30 60 H -5.300891 -3.450284 3.465538 0
M  V30 61 H -4.247371 -2.664599 4.708967 0
M  V30 62 H -0.954586 0.704175 3.256647 0
M  V30 63 H -1.010308 1.856622 5.443305 0
M  V30 64 H -0.156757 0.732343 7.424253 0
M  V30 65 H 0.749900 -1.508718 7.276949 0
M  V30 66 H 0.838042 -2.698930 5.174069 0
M  V30 END ATOM
M  V30 BEGIN BOND
M  V30 1 1 1 2
M  V30 2 1 2 3
M  V30 3 2 3 4
M  V30 4 1 3 5
M  V30 5 2 5 6
M  V30 6 1 6 7
M  V30 7 1 7 8
M  V30 8 2 8 9
M  V30 9 1 9 10
M  V30 10 2 10 11
M  V30 11 1 11 12
M  V30 12 2 12 13
M  V30 13 2 12 14
M  V30 14 1 12 15
M  V30 15 1 15 16
M  V30 16 1 16 17
M  V30 17 1 17 18
M  V30 18 1 18 19
M  V30 19 1 19 20
M  V30 20 1 11 21
M  V30 21 2 21 22
M  V30 22 1 6 23
M  V30 23 2 23 24
M  V30 24 1 23 25
M  V30 25 2 25 26
M  V30 26 1 26 27
M  V30 27 2 27 28
M  V30 28 1 28 29
M  V30 29 1 28 30
M  V30 30 2 30 31
M  V30 31 1 31 32
M  V30 32 1 32 33
M  V30 33 2 33 34
M  V30 34 1 34 35
M  V30 35 2 35 36
M  V30 36 1 36 37
M  V30 37 2 37 38
M  V30 38 1 32 5
M  V30 39 1 38 33
M  V30 40 1 22 8
M  V30 41 1 31 25
M  V30 42 1 20 15
M  V30 43 1 1 39
M  V30 44 1 1 40
M  V30 45 1 1 41
M  V30 46 1 7 42
M  V30 47 1 7 43
M  V30 48 1 9 44
M  V30 49 1 10 45
M  V30 50 1 16 46
M  V30 51 1 16 47
M  V30 52 1 17 48
M  V30 53 1 17 49
M  V30 54 1 18 50
M  V30 55 1 19 51
M  V30 56 1 19 52
M  V30 57 1 20 53
M  V30 58 1 20 54
M  V30 59 1 21 55
M  V30 60 1 22 56
M  V30 61 1 26 57
M  V30 62 1 27 58
M  V30 63 1 29 59
M  V30 64 1 29 60
M  V30 65 1 29 61
M  V30 66 1 34 62
M  V30 67 1 35 63
M  V30 68 1 36 64
M  V30 69 1 37 65
M  V30 70 1 38 66
M  V30 END BOND
M  V30 END CTAB
M  END
>  <Dataset>  (260) 
ChEMBL_Kinases

>  <Ligand_Instance>  (260) 
nan

>  <PDB_ID>  (260) 
nan

>  <Standardized_SMILES>  (260) 
COC(=O)c1c(Cc2ccc(S(=O)(=O)N3CCNCC3)cc2)c(=O)c2ccc(C)nc2n1-c1ccccc1

>  <Name>  (260) 
nan

>  <Pocket>  (260) 
nan

>  <ATP_Site>  (260) 
nan

>  <Peripheral>  (260) 
nan

>  <Num_H_Atoms_ProtBoundConf>  (260) 
nan

>  <Num_Resolved_Atoms>  (260) 
nan

>  <Num_Not_Resolved_Atoms>  (260) 
nan

$$$$
CHEMBL3702154
     RDKit          3D

  0  0  0  0  0  0  0  0  0  0999 V3000
M  V30 BEGIN CTAB
M  V30 COUNTS 65 70 0 0 0
M  V30 BEGIN ATOM
M  V30 1 C -3.198701 -0.439489 2.779923 0
M  V30 2 N -2.262790 -1.181472 3.578603 0
M  V30 3 C -2.645243 -0.931454 4.972590 0
M  V30 4 C -2.284285 -2.584766 3.387676 0
M  V30 5 C -1.239608 -3.206401 4.298560 0
M  V30 6 C 0.182185 -2.858330 3.853957 0
M  V30 7 N 0.150328 -2.808249 2.379906 0
M  V30 8 C 0.898932 -1.933871 1.547162 0
M  V30 9 C 0.756969 -1.891266 0.179798 0
M  V30 10 C 1.535114 -0.988503 -0.518515 0
M  V30 11 C 2.440808 -0.131623 0.065872 0
M  V30 12 N 3.199664 0.789440 -0.715265 0
M  V30 13 C 3.017346 0.815923 -2.124792 0
M  V30 14 N 3.921932 0.502380 -3.077521 0
M  V30 15 C 3.586645 0.569853 -4.401801 0
M  V30 16 C 2.309127 0.964655 -4.684113 0
M  V30 17 C 1.702716 1.118114 -5.912865 0
M  V30 18 C 2.054380 0.968699 -7.254270 0
M  V30 19 C 1.179841 1.212083 -8.300507 0
M  V30 20 N -0.077664 1.615583 -7.978438 0
M  V30 21 C -0.440193 1.767175 -6.685949 0
M  V30 22 F -1.725007 2.171785 -6.548065 0
M  V30 23 C 0.416202 1.529648 -5.632637 0
M  V30 24 N 0.189120 1.640439 -4.312789 0
M  V30 25 C -0.984275 2.023824 -3.612155 0
M  V30 26 C -1.760402 0.844585 -3.055193 0
M  V30 27 C -2.622892 1.435505 -1.956027 0
M  V30 28 C -1.991776 2.750199 -1.559536 0
M  V30 29 C -0.784813 2.958118 -2.456131 0
M  V30 30 C 1.366783 1.289488 -3.723405 0
M  V30 31 N 1.766962 1.200935 -2.437808 0
M  V30 32 N 2.523777 -0.233067 1.405478 0
M  V30 33 N 1.787974 -1.090656 2.097204 0
M  V30 34 C -0.785635 -3.799495 1.879326 0
M  V30 35 C -2.141184 -3.074355 1.975612 0
M  V30 36 H -3.106448 0.627340 3.085995 0
M  V30 37 H -4.232875 -0.742602 3.015547 0
M  V30 38 H -3.048172 -0.473493 1.706608 0
M  V30 39 H -3.271067 0.000804 5.060779 0
M  V30 40 H -1.758012 -0.765513 5.609509 0
M  V30 41 H -3.314830 -1.740862 5.355373 0
M  V30 42 H -3.268085 -2.953905 3.792415 0
M  V30 43 H -1.382445 -4.293261 4.415183 0
M  V30 44 H -1.386979 -2.761141 5.301951 0
M  V30 45 H 0.825686 -3.667636 4.194699 0
M  V30 46 H 0.428811 -1.896458 4.300683 0
M  V30 47 H 0.071784 -2.528607 -0.319553 0
M  V30 48 H 1.396256 -0.983786 -1.588332 0
M  V30 49 H 3.853533 1.391562 -0.170956 0
M  V30 50 H 4.321179 0.317759 -5.152730 0
M  V30 51 H 3.088177 0.638574 -7.429208 0
M  V30 52 H 1.489663 1.084284 -9.326951 0
M  V30 53 H -1.686323 2.531568 -4.303454 0
M  V30 54 H -2.429099 0.380719 -3.807871 0
M  V30 55 H -1.114202 0.102235 -2.578120 0
M  V30 56 H -3.665855 1.640631 -2.328756 0
M  V30 57 H -2.764462 0.733630 -1.106894 0
M  V30 58 H -1.606144 2.743833 -0.518691 0
M  V30 59 H -2.728421 3.572867 -1.616754 0
M  V30 60 H -0.850246 4.017548 -2.782730 0
M  V30 61 H 0.157966 2.863864 -1.920861 0
M  V30 62 H -0.641589 -4.030802 0.805128 0
M  V30 63 H -0.803729 -4.723593 2.489654 0
M  V30 64 H -2.055594 -2.259921 1.215621 0
M  V30 65 H -2.972489 -3.734204 1.703267 0
M  V30 END ATOM
M  V30 BEGIN BOND
M  V30 1 1 1 2
M  V30 2 1 2 3
M  V30 3 1 2 4
M  V30 4 1 4 5
M  V30 5 1 5 6
M  V30 6 1 6 7
M  V30 7 1 7 8
M  V30 8 2 8 9
M  V30 9 1 9 10
M  V30 10 2 10 11
M  V30 11 1 11 12
M  V30 12 1 12 13
M  V30 13 2 13 14
M  V30 14 1 14 15
M  V30 15 2 15 16
M  V30 16 1 16 17
M  V30 17 2 17 18
M  V30 18 1 18 19
M  V30 19 2 19 20
M  V30 20 1 20 21
M  V30 21 1 21 22
M  V30 22 2 21 23
M  V30 23 1 23 24
M  V30 24 1 24 25
M  V30 25 1 25 26
M  V30 26 1 26 27
M  V30 27 1 27 28
M  V30 28 1 28 29
M  V30 29 1 24 30
M  V30 30 2 30 31
M  V30 31 1 11 32
M  V30 32 2 32 33
M  V30 33 1 7 34
M  V30 34 1 34 35
M  V30 35 1 35 4
M  V30 36 1 33 8
M  V30 37 1 31 13
M  V30 38 1 30 16
M  V30 39 1 23 17
M  V30 40 1 29 25
M  V30 41 1 1 36
M  V30 42 1 1 37
M  V30 43 1 1 38
M  V30 44 1 3 39
M  V30 45 1 3 40
M  V30 46 1 3 41
M  V30 47 1 4 42
M  V30 48 1 5 43
M  V30 49 1 5 44
M  V30 50 1 6 45
M  V30 51 1 6 46
M  V30 52 1 9 47
M  V30 53 1 10 48
M  V30 54 1 12 49
M  V30 55 1 15 50
M  V30 56 1 18 51
M  V30 57 1 19 52
M  V30 58 1 25 53
M  V30 59 1 26 54
M  V30 60 1 26 55
M  V30 61 1 27 56
M  V30 62 1 27 57
M  V30 63 1 28 58
M  V30 64 1 28 59
M  V30 65 1 29 60
M  V30 66 1 29 61
M  V30 67 1 34 62
M  V30 68 1 34 63
M  V30 69 1 35 64
M  V30 70 1 35 65
M  V30 END BOND
M  V30 END CTAB
M  END
>  <Dataset>  (261) 
ChEMBL_Kinases

>  <Ligand_Instance>  (261) 
nan

>  <PDB_ID>  (261) 
nan

>  <Standardized_SMILES>  (261) 
CN(C)C1CCN(c2ccc(Nc3ncc4c5ccnc(F)c5n(C5CCCC5)c4n3)nn2)CC1

>  <Name>  (261) 
nan

>  <Pocket>  (261) 
nan

>  <ATP_Site>  (261) 
nan

>  <Peripheral>  (261) 
nan

>  <Num_H_Atoms_ProtBoundConf>  (261) 
nan

>  <Num_Resolved_Atoms>  (261) 
nan

>  <Num_Not_Resolved_Atoms>  (261) 
nan

$$$$
CHEMBL4469316
     RDKit          3D

  0  0  0  0  0  0  0  0  0  0999 V3000
M  V30 BEGIN CTAB
M  V30 COUNTS 49 51 0 0 0
M  V30 BEGIN ATOM
M  V30 1 C 5.293330 -4.641161 2.648342 0
M  V30 2 O 5.174762 -4.514530 1.263155 0
M  V30 3 C 4.460758 -3.531648 0.596856 0
M  V30 4 C 4.389046 -3.470853 -0.796682 0
M  V30 5 C 3.662087 -2.468088 -1.405678 0
M  V30 6 C 2.985626 -1.497277 -0.657013 0
M  V30 7 C 3.032893 -1.523994 0.724082 0
M  V30 8 C 2.336406 -0.520929 1.560639 0 CFG=1
M  V30 9 C 3.184184 0.670512 1.848714 0
M  V30 10 C 3.626324 1.407917 0.606647 0
M  V30 11 O 2.566568 1.874184 -0.129954 0
M  V30 12 N 0.988310 -0.231966 1.138380 0
M  V30 13 C -0.205290 -0.526869 1.832539 0
M  V30 14 O -0.123795 -1.109370 2.953290 0
M  V30 15 C -1.530946 -0.197517 1.329915 0
M  V30 16 C -2.623128 -0.545848 2.099489 0
M  V30 17 C -3.884403 -0.225208 1.609914 0
M  V30 18 C -4.120988 0.414537 0.412973 0
M  V30 19 C -5.481511 0.700471 -0.002398 0
M  V30 20 C -5.853705 1.782509 -0.765986 0
M  V30 21 C -7.194989 1.962899 -1.110858 0
M  V30 22 N -8.132472 1.088014 -0.704019 0
M  V30 23 C -7.823289 0.010010 0.046311 0
M  V30 24 C -6.495567 -0.138555 0.368257 0
M  V30 25 C -3.001201 0.742406 -0.320396 0
M  V30 26 C -1.732829 0.440313 0.133185 0
M  V30 27 C 3.778978 -2.555840 1.257916 0
M  V30 28 H 6.107149 -4.013456 3.065595 0
M  V30 29 H 5.551977 -5.715684 2.870741 0
M  V30 30 H 4.358157 -4.433613 3.177006 0
M  V30 31 H 4.922212 -4.235556 -1.361862 0
M  V30 32 H 3.645183 -2.475552 -2.502237 0
M  V30 33 H 2.424791 -0.725358 -1.166039 0
M  V30 34 H 2.201228 -1.036082 2.560497 0
M  V30 35 H 4.047419 0.330028 2.455781 0
M  V30 36 H 2.640113 1.389380 2.494542 0
M  V30 37 H 4.291296 2.248894 0.890193 0
M  V30 38 H 4.298046 0.714388 0.027935 0
M  V30 39 H 2.783872 2.799663 -0.463279 0
M  V30 40 H 0.935132 0.245738 0.214153 0
M  V30 41 H -2.507036 -1.053892 3.056228 0
M  V30 42 H -4.711347 -0.525762 2.262632 0
M  V30 43 H -5.082184 2.479165 -1.085356 0
M  V30 44 H -7.484500 2.821491 -1.715400 0
M  V30 45 H -8.591921 -0.681137 0.362363 0
M  V30 46 H -6.234707 -1.006927 0.974128 0
M  V30 47 H -3.196522 1.251493 -1.273061 0
M  V30 48 H -0.916263 0.725325 -0.488960 0
M  V30 49 H 3.835643 -2.604115 2.352375 0
M  V30 END ATOM
M  V30 BEGIN BOND
M  V30 1 1 1 2
M  V30 2 1 2 3
M  V30 3 2 3 4
M  V30 4 1 4 5
M  V30 5 2 5 6
M  V30 6 1 6 7
M  V30 7 1 7 8
M  V30 8 1 8 9
M  V30 9 1 9 10
M  V30 10 1 10 11
M  V30 11 1 8 12
M  V30 12 1 12 13
M  V30 13 2 13 14
M  V30 14 1 13 15
M  V30 15 2 15 16
M  V30 16 1 16 17
M  V30 17 2 17 18
M  V30 18 1 18 19
M  V30 19 2 19 20
M  V30 20 1 20 21
M  V30 21 2 21 22
M  V30 22 1 22 23
M  V30 23 2 23 24
M  V30 24 1 18 25
M  V30 25 2 25 26
M  V30 26 2 7 27
M  V30 27 1 27 3
M  V30 28 1 26 15
M  V30 29 1 24 19
M  V30 30 1 1 28
M  V30 31 1 1 29
M  V30 32 1 1 30
M  V30 33 1 4 31
M  V30 34 1 5 32
M  V30 35 1 6 33
M  V30 36 1 8 34 CFG=1
M  V30 37 1 9 35
M  V30 38 1 9 36
M  V30 39 1 10 37
M  V30 40 1 10 38
M  V30 41 1 11 39
M  V30 42 1 12 40
M  V30 43 1 16 41
M  V30 44 1 17 42
M  V30 45 1 20 43
M  V30 46 1 21 44
M  V30 47 1 23 45
M  V30 48 1 24 46
M  V30 49 1 25 47
M  V30 50 1 26 48
M  V30 51 1 27 49
M  V30 END BOND
M  V30 END CTAB
M  END
>  <Dataset>  (262) 
ChEMBL_Kinases

>  <Ligand_Instance>  (262) 
nan

>  <PDB_ID>  (262) 
nan

>  <Standardized_SMILES>  (262) 
COc1cccc([C@@H](CCO)NC(=O)c2ccc(-c3ccncc3)cc2)c1

>  <Name>  (262) 
nan

>  <Pocket>  (262) 
nan

>  <ATP_Site>  (262) 
nan

>  <Peripheral>  (262) 
nan

>  <Num_H_Atoms_ProtBoundConf>  (262) 
nan

>  <Num_Resolved_Atoms>  (262) 
nan

>  <Num_Not_Resolved_Atoms>  (262) 
nan

$$$$
CHEMBL2204112
     RDKit          3D

  0  0  0  0  0  0  0  0  0  0999 V3000
M  V30 BEGIN CTAB
M  V30 COUNTS 60 63 0 0 0
M  V30 BEGIN ATOM
M  V30 1 C 3.380516 -3.854106 -0.536752 0
M  V30 2 O 2.435243 -3.348871 0.347001 0
M  V30 3 C 1.117707 -3.147159 0.168365 0
M  V30 4 O 1.533268 -3.617634 -0.919535 0
M  V30 5 C -0.236970 -2.787363 0.416210 0
M  V30 6 C -0.563776 -2.277663 1.651552 0
M  V30 7 C 0.342077 -1.945680 2.752941 0
M  V30 8 C 0.987570 -0.613319 2.636713 0
M  V30 9 C 0.319870 0.452138 3.269068 0
M  V30 10 C 0.696517 1.766209 3.307550 0
M  V30 11 C 1.866584 2.089706 2.651421 0
M  V30 12 C 2.370364 3.457637 2.626913 0
M  V30 13 O 3.409930 3.737910 1.932220 0
M  V30 14 N 1.798104 4.551899 3.325727 0
M  V30 15 C 2.301613 5.909872 3.291861 0
M  V30 16 C 2.265467 6.458404 1.870231 0
M  V30 17 O 0.929395 6.424126 1.464129 0
M  V30 18 C 2.585080 1.108154 2.005388 0
M  V30 19 C 2.134256 -0.191976 2.015764 0
M  V30 20 C -1.930924 -2.011969 1.815059 0
M  V30 21 O -2.438852 -1.551571 2.852635 0
M  V30 22 C -2.797570 -2.267370 0.776527 0
M  V30 23 C -4.147872 -2.012499 0.911344 0
M  V30 24 C -5.094031 -2.233842 -0.074204 0
M  V30 25 C -4.561337 -2.749025 -1.243950 0
M  V30 26 C -5.457374 -3.041703 -2.397381 0
M  V30 27 N -3.265511 -3.021356 -1.447685 0
M  V30 28 C -2.396025 -2.779405 -0.440257 0
M  V30 29 N -1.094067 -3.030863 -0.588184 0
M  V30 30 C -0.690119 -3.556223 -1.846772 0
M  V30 31 C -0.726868 -4.887901 -2.172010 0
M  V30 32 C -0.321922 -5.312515 -3.419328 0
M  V30 33 C 0.127993 -4.388183 -4.358212 0
M  V30 34 C 0.172099 -3.026623 -4.043634 0
M  V30 35 C -0.241384 -2.620702 -2.778822 0
M  V30 36 H 4.366850 -3.809045 0.017044 0
M  V30 37 H 3.230999 -4.899884 -0.861938 0
M  V30 38 H 3.560190 -3.215486 -1.436620 0
M  V30 39 H 1.132459 -2.716932 2.910332 0
M  V30 40 H -0.240796 -1.956267 3.702289 0
M  V30 41 H -0.614914 0.242596 3.805857 0
M  V30 42 H 0.113640 2.499754 3.818999 0
M  V30 43 H 0.942937 4.338814 3.909403 0
M  V30 44 H 1.656119 6.549608 3.902246 0
M  V30 45 H 3.366119 5.909539 3.672239 0
M  V30 46 H 2.577127 7.518561 1.860196 0
M  V30 47 H 2.887878 5.867571 1.170833 0
M  V30 48 H 0.404848 5.789980 2.022468 0
M  V30 49 H 3.508261 1.288090 1.472007 0
M  V30 50 H 2.676342 -0.960215 1.527936 0
M  V30 51 H -4.525450 -1.604173 1.857123 0
M  V30 52 H -6.143919 -2.024080 0.062719 0
M  V30 53 H -6.460471 -2.569319 -2.249055 0
M  V30 54 H -5.611605 -4.128388 -2.567874 0
M  V30 55 H -5.037389 -2.565855 -3.314005 0
M  V30 56 H -1.076290 -5.565080 -1.427601 0
M  V30 57 H -0.350421 -6.358753 -3.676896 0
M  V30 58 H 0.436072 -4.777470 -5.330119 0
M  V30 59 H 0.529920 -2.343514 -4.807709 0
M  V30 60 H -0.180883 -1.535550 -2.596897 0
M  V30 END ATOM
M  V30 BEGIN BOND
M  V30 1 1 1 2
M  V30 2 1 2 3
M  V30 3 2 3 4
M  V30 4 1 3 5
M  V30 5 2 5 6
M  V30 6 1 6 7
M  V30 7 1 7 8
M  V30 8 2 8 9
M  V30 9 1 9 10
M  V30 10 2 10 11
M  V30 11 1 11 12
M  V30 12 2 12 13
M  V30 13 1 12 14
M  V30 14 1 14 15
M  V30 15 1 15 16
M  V30 16 1 16 17
M  V30 17 1 11 18
M  V30 18 2 18 19
M  V30 19 1 6 20
M  V30 20 2 20 21
M  V30 21 1 20 22
M  V30 22 2 22 23
M  V30 23 1 23 24
M  V30 24 2 24 25
M  V30 25 1 25 26
M  V30 26 1 25 27
M  V30 27 2 27 28
M  V30 28 1 28 29
M  V30 29 1 29 30
M  V30 30 2 30 31
M  V30 31 1 31 32
M  V30 32 2 32 33
M  V30 33 1 33 34
M  V30 34 2 34 35
M  V30 35 1 29 5
M  V30 36 1 35 30
M  V30 37 1 19 8
M  V30 38 1 28 22
M  V30 39 1 1 36
M  V30 40 1 1 37
M  V30 41 1 1 38
M  V30 42 1 7 39
M  V30 43 1 7 40
M  V30 44 1 9 41
M  V30 45 1 10 42
M  V30 46 1 14 43
M  V30 47 1 15 44
M  V30 48 1 15 45
M  V30 49 1 16 46
M  V30 50 1 16 47
M  V30 51 1 17 48
M  V30 52 1 18 49
M  V30 53 1 19 50
M  V30 54 1 23 51
M  V30 55 1 24 52
M  V30 56 1 26 53
M  V30 57 1 26 54
M  V30 58 1 26 55
M  V30 59 1 31 56
M  V30 60 1 32 57
M  V30 61 1 33 58
M  V30 62 1 34 59
M  V30 63 1 35 60
M  V30 END BOND
M  V30 END CTAB
M  END
>  <Dataset>  (263) 
ChEMBL_Kinases

>  <Ligand_Instance>  (263) 
nan

>  <PDB_ID>  (263) 
nan

>  <Standardized_SMILES>  (263) 
COC(=O)c1c(Cc2ccc(C(=O)NCCO)cc2)c(=O)c2ccc(C)nc2n1-c1ccccc1

>  <Name>  (263) 
nan

>  <Pocket>  (263) 
nan

>  <ATP_Site>  (263) 
nan

>  <Peripheral>  (263) 
nan

>  <Num_H_Atoms_ProtBoundConf>  (263) 
nan

>  <Num_Resolved_Atoms>  (263) 
nan

>  <Num_Not_Resolved_Atoms>  (263) 
nan

$$$$
CHEMBL2376648
     RDKit          3D

  0  0  0  0  0  0  0  0  0  0999 V3000
M  V30 BEGIN CTAB
M  V30 COUNTS 62 65 0 0 0
M  V30 BEGIN ATOM
M  V30 1 C 1.478530 -1.903032 6.520271 0
M  V30 2 C 1.204981 -2.642926 5.227758 0 CFG=1
M  V30 3 O 2.399134 -3.131770 4.724775 0
M  V30 4 C 2.942969 -2.910330 3.490684 0
M  V30 5 C 2.394007 -2.126837 2.499046 0
M  V30 6 C 3.054735 -1.984469 1.275775 0
M  V30 7 C 2.344893 -1.133735 0.332368 0
M  V30 8 O 1.240434 -0.528746 0.585151 0
M  V30 9 N 2.742669 -0.840827 -0.990236 0
M  V30 10 C 1.759487 0.024789 -1.552456 0
M  V30 11 C 1.966615 1.382640 -1.395618 0
M  V30 12 C 0.992263 2.185440 -1.945310 0
M  V30 13 C -0.066904 1.577255 -2.581843 0
M  V30 14 C -1.112989 2.359057 -3.180474 0
M  V30 15 O -1.722755 2.764516 -2.157050 0
M  V30 16 N -2.103640 3.101620 -3.808873 0
M  V30 17 C -3.182071 3.866894 -3.223352 0
M  V30 18 C -4.474319 3.186550 -3.645730 0
M  V30 19 N -4.353102 2.331751 -4.750108 0
M  V30 20 C -4.683376 0.963863 -4.562105 0
M  V30 21 C -3.417342 2.637170 -5.751472 0
M  V30 22 C -2.088383 3.142732 -5.281028 0
M  V30 23 C -0.250362 0.216110 -2.725271 0
M  V30 24 C 0.720995 -0.628172 -2.178376 0
M  V30 25 N 4.248793 -2.592965 0.994161 0
M  V30 26 N 4.802997 -3.365965 1.957224 0
M  V30 27 C 4.141009 -3.490883 3.142949 0
M  V30 28 N 4.804105 -4.318699 4.069896 0
M  V30 29 C 0.231473 -3.736947 5.561005 0
M  V30 30 C 0.657286 -4.979543 6.006777 0
M  V30 31 Cl 2.351795 -5.316082 6.203018 0
M  V30 32 C -0.221904 -5.991519 6.313902 0
M  V30 33 C -1.578975 -5.805373 6.188340 0
M  V30 34 C -2.031252 -4.561965 5.741273 0
M  V30 35 F -3.360049 -4.307187 5.593479 0
M  V30 36 C -1.150433 -3.534603 5.428896 0
M  V30 37 Cl -1.780383 -1.988310 4.871536 0
M  V30 38 H 1.116859 -2.482665 7.412036 0
M  V30 39 H 2.548088 -1.690534 6.650650 0
M  V30 40 H 0.917719 -0.937642 6.574999 0
M  V30 41 H 0.661129 -2.000498 4.503483 0
M  V30 42 H 1.449462 -1.633079 2.693756 0
M  V30 43 H 3.620052 -1.254541 -1.366150 0
M  V30 44 H 2.844107 1.736422 -0.871451 0
M  V30 45 H 1.090458 3.257786 -1.858988 0
M  V30 46 H -3.216732 4.877800 -3.711465 0
M  V30 47 H -3.148369 3.946587 -2.131719 0
M  V30 48 H -5.264327 3.971503 -3.854771 0
M  V30 49 H -4.871388 2.663810 -2.744011 0
M  V30 50 H -3.940542 0.222152 -4.836375 0
M  V30 51 H -4.995578 0.804425 -3.507365 0
M  V30 52 H -5.591240 0.752169 -5.174033 0
M  V30 53 H -3.849947 3.416634 -6.418907 0
M  V30 54 H -3.232399 1.746056 -6.372271 0
M  V30 55 H -1.217198 2.612950 -5.695256 0
M  V30 56 H -1.934846 4.232435 -5.541841 0
M  V30 57 H -1.086234 -0.245016 -3.227454 0
M  V30 58 H 0.653677 -1.689764 -2.246038 0
M  V30 59 H 5.269728 -4.936347 4.752471 0
M  V30 60 H 5.654345 -4.606531 4.584929 0
M  V30 61 H 0.145096 -6.954099 6.663472 0
M  V30 62 H -2.324033 -6.551753 6.407025 0
M  V30 END ATOM
M  V30 BEGIN BOND
M  V30 1 1 1 2
M  V30 2 1 2 3
M  V30 3 1 3 4
M  V30 4 2 4 5
M  V30 5 1 5 6
M  V30 6 1 6 7
M  V30 7 2 7 8
M  V30 8 1 7 9
M  V30 9 1 9 10
M  V30 10 2 10 11
M  V30 11 1 11 12
M  V30 12 2 12 13
M  V30 13 1 13 14
M  V30 14 2 14 15
M  V30 15 1 14 16
M  V30 16 1 16 17
M  V30 17 1 17 18
M  V30 18 1 18 19
M  V30 19 1 19 20
M  V30 20 1 19 21
M  V30 21 1 21 22
M  V30 22 1 13 23
M  V30 23 2 23 24
M  V30 24 2 6 25
M  V30 25 1 25 26
M  V30 26 2 26 27
M  V30 27 1 27 28
M  V30 28 1 2 29
M  V30 29 2 29 30
M  V30 30 1 30 31
M  V30 31 1 30 32
M  V30 32 2 32 33
M  V30 33 1 33 34
M  V30 34 1 34 35
M  V30 35 2 34 36
M  V30 36 1 36 37
M  V30 37 1 27 4
M  V30 38 1 36 29
M  V30 39 1 24 10
M  V30 40 1 22 16
M  V30 41 1 1 38
M  V30 42 1 1 39
M  V30 43 1 1 40
M  V30 44 1 2 41 CFG=3
M  V30 45 1 5 42
M  V30 46 1 9 43
M  V30 47 1 11 44
M  V30 48 1 12 45
M  V30 49 1 17 46
M  V30 50 1 17 47
M  V30 51 1 18 48
M  V30 52 1 18 49
M  V30 53 1 20 50
M  V30 54 1 20 51
M  V30 55 1 20 52
M  V30 56 1 21 53
M  V30 57 1 21 54
M  V30 58 1 22 55
M  V30 59 1 22 56
M  V30 60 1 23 57
M  V30 61 1 24 58
M  V30 62 1 28 59
M  V30 63 1 28 60
M  V30 64 1 32 61
M  V30 65 1 33 62
M  V30 END BOND
M  V30 END CTAB
M  END
>  <Dataset>  (264) 
ChEMBL_Kinases

>  <Ligand_Instance>  (264) 
nan

>  <PDB_ID>  (264) 
nan

>  <Standardized_SMILES>  (264) 
C[C@@H](Oc1cc(C(=O)Nc2ccc(C(=O)N3CCN(C)CC3)cc2)nnc1N)c1c(Cl)ccc(F)c1Cl

>  <Name>  (264) 
nan

>  <Pocket>  (264) 
nan

>  <ATP_Site>  (264) 
nan

>  <Peripheral>  (264) 
nan

>  <Num_H_Atoms_ProtBoundConf>  (264) 
nan

>  <Num_Resolved_Atoms>  (264) 
nan

>  <Num_Not_Resolved_Atoms>  (264) 
nan

$$$$
CHEMBL4468970
     RDKit          3D

  0  0  0  0  0  0  0  0  0  0999 V3000
M  V30 BEGIN CTAB
M  V30 COUNTS 76 80 0 0 0
M  V30 BEGIN ATOM
M  V30 1 C 7.088356 0.685982 1.530021 0
M  V30 2 C 6.842693 0.885467 0.070326 0
M  V30 3 C 5.520864 0.473175 -0.351027 0 CFG=2
M  V30 4 C 5.312076 0.668929 -1.853110 0
M  V30 5 O 6.076403 1.372772 -2.582202 0
M  V30 6 N 4.202746 0.041574 -2.517705 0
M  V30 7 C 4.250339 -0.401784 -3.915196 0
M  V30 8 C 4.736123 -1.821905 -3.921751 0
M  V30 9 O 4.787050 -2.262821 -5.245176 0
M  V30 10 C 3.036436 -0.099338 -1.676122 0
M  V30 11 C 1.912908 -0.695888 -2.198370 0
M  V30 12 N 0.868030 -0.801658 -1.358849 0
M  V30 13 C 0.872033 -0.374212 -0.105898 0
M  V30 14 N -0.190397 -0.475218 0.828878 0
M  V30 15 C -1.439802 -1.123451 0.661981 0
M  V30 16 C -1.842410 -1.830066 -0.451930 0
M  V30 17 C -3.065078 -2.473687 -0.586579 0
M  V30 18 C -3.959309 -2.417146 0.454059 0
M  V30 19 C -5.235111 -3.107446 0.332628 0
M  V30 20 O -5.382188 -3.828362 -0.716452 0
M  V30 21 N -6.331423 -3.077668 1.233183 0
M  V30 22 C -7.532998 -3.812667 1.000643 0
M  V30 23 C -8.003946 -4.634361 2.154574 0
M  V30 24 C -9.513674 -4.675612 2.084189 0
M  V30 25 C -9.933880 -3.846016 0.890111 0
M  V30 26 C -8.733318 -2.951295 0.652647 0
M  V30 27 C -3.609122 -1.725439 1.589174 0
M  V30 28 C -2.387506 -1.107120 1.670621 0
M  V30 29 O -2.133162 -0.435073 2.861063 0
M  V30 30 C -3.005142 -0.350589 3.949646 0
M  V30 31 N 1.994915 0.187399 0.312293 0
M  V30 32 C 3.124023 0.373980 -0.379566 0
M  V30 33 N 4.306148 1.005281 0.197902 0
M  V30 34 C 4.219490 1.997617 1.155075 0
M  V30 35 C 2.880655 2.566034 1.561648 0
M  V30 36 C 2.613999 3.649782 0.494455 0
M  V30 37 C 4.006488 3.982509 -0.058551 0
M  V30 38 C 4.892166 3.308488 0.952765 0
M  V30 39 H 6.964612 1.644396 2.104995 0
M  V30 40 H 8.124804 0.304023 1.716418 0
M  V30 41 H 6.370548 -0.038358 1.939215 0
M  V30 42 H 7.552621 0.134137 -0.419578 0
M  V30 43 H 7.251778 1.825691 -0.344075 0
M  V30 44 H 5.529582 -0.633155 -0.248369 0
M  V30 45 H 5.065630 0.209589 -4.391106 0
M  V30 46 H 3.315610 -0.223259 -4.447809 0
M  V30 47 H 4.149901 -2.518086 -3.313417 0
M  V30 48 H 5.772689 -1.819536 -3.509362 0
M  V30 49 H 3.939814 -2.061141 -5.687779 0
M  V30 50 H 1.904513 -1.047511 -3.220307 0
M  V30 51 H -0.068484 -0.018696 1.780358 0
M  V30 52 H -1.176311 -1.903811 -1.294362 0
M  V30 53 H -3.291153 -3.012488 -1.520810 0
M  V30 54 H -6.197739 -2.479477 2.081553 0
M  V30 55 H -7.357550 -4.460707 0.089536 0
M  V30 56 H -7.634874 -5.676854 2.068122 0
M  V30 57 H -7.646977 -4.249665 3.135677 0
M  V30 58 H -9.979207 -4.295045 3.026493 0
M  V30 59 H -9.914608 -5.697138 1.931885 0
M  V30 60 H -10.044096 -4.478344 -0.018849 0
M  V30 61 H -10.870708 -3.294526 1.026235 0
M  V30 62 H -8.753081 -2.012241 1.206334 0
M  V30 63 H -8.688415 -2.724770 -0.439377 0
M  V30 64 H -4.320243 -1.690075 2.399278 0
M  V30 65 H -3.272076 -1.385745 4.239742 0
M  V30 66 H -2.417625 0.120263 4.783808 0
M  V30 67 H -3.882019 0.270498 3.787406 0
M  V30 68 H 4.628393 1.578015 2.129170 0
M  V30 69 H 2.028860 1.933680 1.596545 0
M  V30 70 H 3.030032 3.135722 2.542082 0
M  V30 71 H 1.926825 3.285558 -0.293735 0
M  V30 72 H 2.139633 4.534294 0.957408 0
M  V30 73 H 4.027775 3.559757 -1.059308 0
M  V30 74 H 4.136905 5.081775 -0.108535 0
M  V30 75 H 5.944794 3.372758 0.830538 0
M  V30 76 H 4.696978 3.880474 1.912036 0
M  V30 END ATOM
M  V30 BEGIN BOND
M  V30 1 1 1 2
M  V30 2 1 2 3
M  V30 3 1 3 4
M  V30 4 2 4 5
M  V30 5 1 4 6
M  V30 6 1 6 7
M  V30 7 1 7 8
M  V30 8 1 8 9
M  V30 9 1 6 10
M  V30 10 2 10 11
M  V30 11 1 11 12
M  V30 12 2 12 13
M  V30 13 1 13 14
M  V30 14 1 14 15
M  V30 15 2 15 16
M  V30 16 1 16 17
M  V30 17 2 17 18
M  V30 18 1 18 19
M  V30 19 2 19 20
M  V30 20 1 19 21
M  V30 21 1 21 22
M  V30 22 1 22 23
M  V30 23 1 23 24
M  V30 24 1 24 25
M  V30 25 1 25 26
M  V30 26 1 18 27
M  V30 27 2 27 28
M  V30 28 1 28 29
M  V30 29 1 29 30
M  V30 30 1 13 31
M  V30 31 2 31 32
M  V30 32 1 32 33
M  V30 33 1 33 34
M  V30 34 1 34 35
M  V30 35 1 35 36
M  V30 36 1 36 37
M  V30 37 1 37 38
M  V30 38 1 33 3
M  V30 39 1 38 34
M  V30 40 1 32 10
M  V30 41 1 28 15
M  V30 42 1 26 22
M  V30 43 1 1 39
M  V30 44 1 1 40
M  V30 45 1 1 41
M  V30 46 1 2 42
M  V30 47 1 2 43
M  V30 48 1 3 44 CFG=3
M  V30 49 1 7 45
M  V30 50 1 7 46
M  V30 51 1 8 47
M  V30 52 1 8 48
M  V30 53 1 9 49
M  V30 54 1 11 50
M  V30 55 1 14 51
M  V30 56 1 16 52
M  V30 57 1 17 53
M  V30 58 1 21 54
M  V30 59 1 22 55
M  V30 60 1 23 56
M  V30 61 1 23 57
M  V30 62 1 24 58
M  V30 63 1 24 59
M  V30 64 1 25 60
M  V30 65 1 25 61
M  V30 66 1 26 62
M  V30 67 1 26 63
M  V30 68 1 27 64
M  V30 69 1 30 65
M  V30 70 1 30 66
M  V30 71 1 30 67
M  V30 72 1 34 68
M  V30 73 1 35 69
M  V30 74 1 35 70
M  V30 75 1 36 71
M  V30 76 1 36 72
M  V30 77 1 37 73
M  V30 78 1 37 74
M  V30 79 1 38 75
M  V30 80 1 38 76
M  V30 END BOND
M  V30 END CTAB
M  END
>  <Dataset>  (265) 
ChEMBL_Kinases

>  <Ligand_Instance>  (265) 
nan

>  <PDB_ID>  (265) 
nan

>  <Standardized_SMILES>  (265) 
CC[C@@H]1C(=O)N(CCO)c2cnc(Nc3ccc(C(=O)NC4CCCC4)cc3OC)nc2N1C1CCCC1

>  <Name>  (265) 
nan

>  <Pocket>  (265) 
nan

>  <ATP_Site>  (265) 
nan

>  <Peripheral>  (265) 
nan

>  <Num_H_Atoms_ProtBoundConf>  (265) 
nan

>  <Num_Resolved_Atoms>  (265) 
nan

>  <Num_Not_Resolved_Atoms>  (265) 
nan

$$$$
CHEMBL2204105
     RDKit          3D

  0  0  0  0  0  0  0  0  0  0999 V3000
M  V30 BEGIN CTAB
M  V30 COUNTS 47 50 0 0 0
M  V30 BEGIN ATOM
M  V30 1 C -3.319286 1.263897 0.874398 0
M  V30 2 O -2.225393 0.461947 1.146070 0
M  V30 3 C -0.884693 0.805974 1.137320 0
M  V30 4 O -1.489193 1.849045 0.837352 0
M  V30 5 C 0.222471 -0.091116 1.430478 0
M  V30 6 C 1.470940 0.431611 1.380755 0
M  V30 7 C 1.912368 1.773081 1.037221 0
M  V30 8 C 1.967303 2.114916 -0.379684 0
M  V30 9 C 3.116431 1.632905 -1.021530 0
M  V30 10 C 3.338088 1.876874 -2.375571 0
M  V30 11 C 2.438077 2.598939 -3.131205 0
M  V30 12 C 1.292220 3.091180 -2.533046 0
M  V30 13 C 1.117797 2.824914 -1.194808 0
M  V30 14 C 2.445347 -0.521320 1.704387 0
M  V30 15 O 3.679513 -0.290395 1.732308 0
M  V30 16 C 2.087161 -1.814271 2.022295 0
M  V30 17 C 3.038936 -2.766070 2.343772 0
M  V30 18 C 2.726583 -4.072592 2.668351 0
M  V30 19 C 1.394475 -4.472574 2.678638 0
M  V30 20 Cl 0.976898 -6.128511 3.088432 0
M  V30 21 C 0.433707 -3.535914 2.360495 0
M  V30 22 C 0.774971 -2.236314 2.039876 0
M  V30 23 N -0.175118 -1.338417 1.733143 0
M  V30 24 C -1.507278 -1.770843 1.749424 0
M  V30 25 C -1.954527 -2.200122 0.492596 0
M  V30 26 C -3.264668 -2.663776 0.344190 0
M  V30 27 C -4.149191 -2.713120 1.416917 0
M  V30 28 C -3.679262 -2.279226 2.660896 0
M  V30 29 C -2.383832 -1.818221 2.819025 0
M  V30 30 H -4.243039 0.608765 0.898002 0
M  V30 31 H -3.357672 1.716298 -0.139771 0
M  V30 32 H -3.446388 2.097014 1.616657 0
M  V30 33 H 2.935417 1.929579 1.492028 0
M  V30 34 H 1.301369 2.553400 1.594625 0
M  V30 35 H 3.957766 1.047781 -0.638041 0
M  V30 36 H 4.181377 1.554912 -2.961733 0
M  V30 37 H 2.540494 2.828574 -4.184146 0
M  V30 38 H 0.518458 3.669984 -3.028558 0
M  V30 39 H 0.246566 3.197879 -0.691963 0
M  V30 40 H 4.084800 -2.493061 2.346555 0
M  V30 41 H 3.513443 -4.799396 2.918035 0
M  V30 42 H -0.630080 -3.815127 2.358015 0
M  V30 43 H -1.351169 -2.208842 -0.429680 0
M  V30 44 H -3.612014 -2.995694 -0.625183 0
M  V30 45 H -5.139104 -3.073645 1.259525 0
M  V30 46 H -4.340442 -2.302323 3.524113 0
M  V30 47 H -1.970544 -1.472851 3.750620 0
M  V30 END ATOM
M  V30 BEGIN BOND
M  V30 1 1 1 2
M  V30 2 1 2 3
M  V30 3 2 3 4
M  V30 4 1 3 5
M  V30 5 2 5 6
M  V30 6 1 6 7
M  V30 7 1 7 8
M  V30 8 2 8 9
M  V30 9 1 9 10
M  V30 10 2 10 11
M  V30 11 1 11 12
M  V30 12 2 12 13
M  V30 13 1 6 14
M  V30 14 2 14 15
M  V30 15 1 14 16
M  V30 16 2 16 17
M  V30 17 1 17 18
M  V30 18 2 18 19
M  V30 19 1 19 20
M  V30 20 1 19 21
M  V30 21 2 21 22
M  V30 22 1 22 23
M  V30 23 1 23 24
M  V30 24 2 24 25
M  V30 25 1 25 26
M  V30 26 2 26 27
M  V30 27 1 27 28
M  V30 28 2 28 29
M  V30 29 1 23 5
M  V30 30 1 29 24
M  V30 31 1 13 8
M  V30 32 1 22 16
M  V30 33 1 1 30
M  V30 34 1 1 31
M  V30 35 1 1 32
M  V30 36 1 7 33
M  V30 37 1 7 34
M  V30 38 1 9 35
M  V30 39 1 10 36
M  V30 40 1 11 37
M  V30 41 1 12 38
M  V30 42 1 13 39
M  V30 43 1 17 40
M  V30 44 1 18 41
M  V30 45 1 21 42
M  V30 46 1 25 43
M  V30 47 1 26 44
M  V30 48 1 27 45
M  V30 49 1 28 46
M  V30 50 1 29 47
M  V30 END BOND
M  V30 END CTAB
M  END
>  <Dataset>  (266) 
ChEMBL_Kinases

>  <Ligand_Instance>  (266) 
nan

>  <PDB_ID>  (266) 
nan

>  <Standardized_SMILES>  (266) 
COC(=O)c1c(Cc2ccccc2)c(=O)c2ccc(Cl)cc2n1-c1ccccc1

>  <Name>  (266) 
nan

>  <Pocket>  (266) 
nan

>  <ATP_Site>  (266) 
nan

>  <Peripheral>  (266) 
nan

>  <Num_H_Atoms_ProtBoundConf>  (266) 
nan

>  <Num_Resolved_Atoms>  (266) 
nan

>  <Num_Not_Resolved_Atoms>  (266) 
nan

$$$$
CHEMBL3702242
     RDKit          3D

  0  0  0  0  0  0  0  0  0  0999 V3000
M  V30 BEGIN CTAB
M  V30 COUNTS 62 66 0 0 0
M  V30 BEGIN ATOM
M  V30 1 C 5.070358 2.047315 4.041962 0
M  V30 2 C 4.918569 1.032788 2.945634 0
M  V30 3 C 3.518270 0.891991 2.422251 0 CFG=1
M  V30 4 C 2.686789 0.438379 3.625339 0
M  V30 5 N 2.949425 2.062962 1.823916 0
M  V30 6 C 3.334478 3.221439 1.275288 0
M  V30 7 C 4.610238 3.688694 1.111240 0
M  V30 8 N 4.832327 4.863453 0.546579 0
M  V30 9 C 3.869072 5.685563 0.094357 0
M  V30 10 C 2.584370 5.216185 0.259172 0
M  V30 11 C 2.292906 4.005540 0.837733 0
M  V30 12 C 1.186522 3.252380 1.151246 0
M  V30 13 C -0.137022 3.631805 0.898796 0
M  V30 14 N -1.082572 2.746966 1.286700 0
M  V30 15 C -0.722603 1.570606 1.883085 0
M  V30 16 N -1.850143 0.776079 2.213170 0
M  V30 17 C -2.332294 -0.296673 1.412993 0
M  V30 18 C -3.448409 -1.056335 1.725778 0
M  V30 19 C -3.881145 -2.100693 0.918125 0
M  V30 20 C -3.207975 -2.426492 -0.241404 0
M  V30 21 N -3.596430 -3.480707 -1.132511 0
M  V30 22 C -4.948313 -3.964101 -0.996348 0
M  V30 23 C -5.109769 -5.163338 -1.904235 0
M  V30 24 N -3.963731 -6.031706 -1.868770 0
M  V30 25 C -2.757686 -5.443091 -2.327713 0
M  V30 26 C -2.491735 -5.724825 -3.803176 0
M  V30 27 C -1.611273 -6.131450 -1.572774 0
M  V30 28 C -2.602573 -3.975893 -2.082552 0
M  V30 29 C -2.106326 -1.642998 -0.509573 0
M  V30 30 N -1.674837 -0.619959 0.273043 0
M  V30 31 N 0.563916 1.266436 2.096445 0
M  V30 32 C 1.575777 2.073168 1.749546 0
M  V30 33 H 6.125245 2.430142 3.986616 0
M  V30 34 H 4.962973 1.584680 5.017649 0
M  V30 35 H 4.417784 2.939543 3.920311 0
M  V30 36 H 5.698113 1.064717 2.165162 0
M  V30 37 H 5.136663 0.026176 3.462344 0
M  V30 38 H 3.562157 0.031270 1.691630 0
M  V30 39 H 1.901056 -0.265743 3.303598 0
M  V30 40 H 2.271987 1.342218 4.104306 0
M  V30 41 H 3.345594 -0.059682 4.364826 0
M  V30 42 H 5.449352 3.133839 1.425049 0
M  V30 43 H 4.053124 6.649046 -0.368968 0
M  V30 44 H 1.730645 5.823330 -0.080688 0
M  V30 45 H -0.391939 4.550736 0.436042 0
M  V30 46 H -2.349152 1.024473 3.104788 0
M  V30 47 H -3.998681 -0.822614 2.632883 0
M  V30 48 H -4.744037 -2.654865 1.203070 0
M  V30 49 H -5.621052 -3.169956 -1.436449 0
M  V30 50 H -5.273919 -4.196072 0.012218 0
M  V30 51 H -5.983400 -5.738178 -1.534468 0
M  V30 52 H -5.359809 -4.839176 -2.940836 0
M  V30 53 H -4.113412 -7.008151 -2.108961 0
M  V30 54 H -1.413414 -5.964983 -3.974770 0
M  V30 55 H -2.685285 -4.804631 -4.412880 0
M  V30 56 H -3.119268 -6.517958 -4.213215 0
M  V30 57 H -0.664988 -5.600830 -1.727689 0
M  V30 58 H -1.474275 -7.176036 -1.903410 0
M  V30 59 H -1.952029 -6.160369 -0.511678 0
M  V30 60 H -1.586142 -3.719368 -1.696351 0
M  V30 61 H -2.712406 -3.376882 -3.023879 0
M  V30 62 H -1.480848 -1.760403 -1.365885 0
M  V30 END ATOM
M  V30 BEGIN BOND
M  V30 1 1 1 2
M  V30 2 1 2 3
M  V30 3 1 3 4
M  V30 4 1 3 5
M  V30 5 1 5 6
M  V30 6 2 6 7
M  V30 7 1 7 8
M  V30 8 2 8 9
M  V30 9 1 9 10
M  V30 10 2 10 11
M  V30 11 1 11 12
M  V30 12 2 12 13
M  V30 13 1 13 14
M  V30 14 2 14 15
M  V30 15 1 15 16
M  V30 16 1 16 17
M  V30 17 2 17 18
M  V30 18 1 18 19
M  V30 19 2 19 20
M  V30 20 1 20 21
M  V30 21 1 21 22
M  V30 22 1 22 23
M  V30 23 1 23 24
M  V30 24 1 24 25
M  V30 25 1 25 26
M  V30 26 1 25 27
M  V30 27 1 25 28
M  V30 28 1 20 29
M  V30 29 2 29 30
M  V30 30 1 15 31
M  V30 31 2 31 32
M  V30 32 1 32 5
M  V30 33 1 11 6
M  V30 34 1 32 12
M  V30 35 1 30 17
M  V30 36 1 28 21
M  V30 37 1 1 33
M  V30 38 1 1 34
M  V30 39 1 1 35
M  V30 40 1 2 36
M  V30 41 1 2 37
M  V30 42 1 3 38 CFG=3
M  V30 43 1 4 39
M  V30 44 1 4 40
M  V30 45 1 4 41
M  V30 46 1 7 42
M  V30 47 1 9 43
M  V30 48 1 10 44
M  V30 49 1 13 45
M  V30 50 1 16 46
M  V30 51 1 18 47
M  V30 52 1 19 48
M  V30 53 1 22 49
M  V30 54 1 22 50
M  V30 55 1 23 51
M  V30 56 1 23 52
M  V30 57 1 24 53
M  V30 58 1 26 54
M  V30 59 1 26 55
M  V30 60 1 26 56
M  V30 61 1 27 57
M  V30 62 1 27 58
M  V30 63 1 27 59
M  V30 64 1 28 60
M  V30 65 1 28 61
M  V30 66 1 29 62
M  V30 END BOND
M  V30 END CTAB
M  END
>  <Dataset>  (267) 
ChEMBL_Kinases

>  <Ligand_Instance>  (267) 
nan

>  <PDB_ID>  (267) 
nan

>  <Standardized_SMILES>  (267) 
CC[C@@H](C)n1c2cnccc2c2cnc(Nc3ccc(N4CCNC(C)(C)C4)cn3)nc21

>  <Name>  (267) 
nan

>  <Pocket>  (267) 
nan

>  <ATP_Site>  (267) 
nan

>  <Peripheral>  (267) 
nan

>  <Num_H_Atoms_ProtBoundConf>  (267) 
nan

>  <Num_Resolved_Atoms>  (267) 
nan

>  <Num_Not_Resolved_Atoms>  (267) 
nan

$$$$
CHEMBL4468122
     RDKit          3D

  0  0  0  0  0  0  0  0  0  0999 V3000
M  V30 BEGIN CTAB
M  V30 COUNTS 59 63 0 0 0
M  V30 BEGIN ATOM
M  V30 1 C 4.349584 -2.523224 -2.072817 0
M  V30 2 C 4.840809 -2.339824 -0.640547 0 CFG=1
M  V30 3 N 6.211332 -1.893241 -0.656124 0
M  V30 4 C 6.365613 -0.610535 -0.026750 0
M  V30 5 O 7.404331 0.067192 0.135162 0
M  V30 6 C 5.026099 -0.245331 0.399042 0
M  V30 7 C 4.261771 0.705484 1.022206 0
M  V30 8 C 2.919598 0.333583 1.071011 0
M  V30 9 C 1.924276 1.196448 1.690341 0
M  V30 10 C 2.218735 2.416532 2.262503 0
M  V30 11 C 1.250192 3.208499 2.840763 0
M  V30 12 C -0.058934 2.774147 2.851892 0
M  V30 13 C -0.413071 1.562201 2.294538 0
M  V30 14 C -1.718583 1.188175 2.334478 0
M  V30 15 O -2.545322 1.942045 2.868637 0
M  V30 16 N -2.117225 0.028153 1.810062 0
M  V30 17 C -3.471155 -0.466792 1.831073 0
M  V30 18 C -4.267198 0.148629 0.670863 0
M  V30 19 N -3.827545 -0.042577 -0.673679 0
M  V30 20 C -5.787570 -0.007252 0.822630 0
M  V30 21 C -5.138416 1.298195 1.042530 0
M  V30 22 C -1.155421 -0.725235 1.254940 0
M  V30 23 N -1.237125 -2.011032 0.630877 0
M  V30 24 C -1.390730 -2.965771 -0.406136 0
M  V30 25 C -2.736407 -3.013216 -1.047553 0
M  V30 26 C -0.326390 -2.622094 -1.462800 0
M  V30 27 C -1.058519 -4.380047 0.049459 0
M  V30 28 N 0.154575 -0.336224 1.221427 0
M  V30 29 C 0.596692 0.822936 1.735917 0
M  V30 30 N 2.910474 -0.843538 0.469829 0
M  V30 31 C 4.129822 -1.229421 0.054852 0
M  V30 32 H 5.017614 -1.966826 -2.741538 0
M  V30 33 H 4.306521 -3.613928 -2.264430 0
M  V30 34 H 3.343992 -2.030035 -2.109565 0
M  V30 35 H 4.709322 -3.284152 -0.063917 0
M  V30 36 H 7.017196 -2.407938 -1.063330 0
M  V30 37 H 4.704551 1.623640 1.413466 0
M  V30 38 H 3.242283 2.767495 2.259615 0
M  V30 39 H 1.552804 4.157046 3.272446 0
M  V30 40 H -0.773221 3.451961 3.326352 0
M  V30 41 H -3.981891 -0.201499 2.798287 0
M  V30 42 H -3.505357 -1.557677 1.679064 0
M  V30 43 H -3.323905 0.814543 -1.037087 0
M  V30 44 H -4.600148 -0.197451 -1.360358 0
M  V30 45 H -6.158018 -0.532595 1.736894 0
M  V30 46 H -6.382559 -0.239502 -0.057703 0
M  V30 47 H -5.125412 1.728359 2.061594 0
M  V30 48 H -5.190821 2.104386 0.271365 0
M  V30 49 H -1.119271 -2.545384 1.554056 0
M  V30 50 H -2.808512 -2.315417 -1.929342 0
M  V30 51 H -3.563174 -2.805764 -0.350085 0
M  V30 52 H -2.922272 -4.034278 -1.491257 0
M  V30 53 H -0.378773 -1.575270 -1.775989 0
M  V30 54 H -0.396443 -3.317687 -2.335200 0
M  V30 55 H 0.647361 -2.825105 -1.007957 0
M  V30 56 H -2.003869 -4.976751 0.184904 0
M  V30 57 H -0.549196 -4.345280 1.013611 0
M  V30 58 H -0.449085 -4.924592 -0.691057 0
M  V30 59 H 2.044859 -1.402104 0.338082 0
M  V30 END ATOM
M  V30 BEGIN BOND
M  V30 1 1 1 2
M  V30 2 1 2 3
M  V30 3 1 3 4
M  V30 4 2 4 5
M  V30 5 1 4 6
M  V30 6 1 6 7
M  V30 7 2 7 8
M  V30 8 1 8 9
M  V30 9 2 9 10
M  V30 10 1 10 11
M  V30 11 2 11 12
M  V30 12 1 12 13
M  V30 13 1 13 14
M  V30 14 2 14 15
M  V30 15 1 14 16
M  V30 16 1 16 17
M  V30 17 1 17 18
M  V30 18 1 18 19
M  V30 19 1 18 20
M  V30 20 1 20 21
M  V30 21 1 16 22
M  V30 22 1 22 23
M  V30 23 1 23 24
M  V30 24 1 24 25
M  V30 25 1 24 26
M  V30 26 1 24 27
M  V30 27 2 22 28
M  V30 28 1 28 29
M  V30 29 1 8 30
M  V30 30 1 30 31
M  V30 31 1 31 2
M  V30 32 2 31 6
M  V30 33 1 29 9
M  V30 34 2 29 13
M  V30 35 1 21 18
M  V30 36 1 1 32
M  V30 37 1 1 33
M  V30 38 1 1 34
M  V30 39 1 2 35 CFG=1
M  V30 40 1 3 36
M  V30 41 1 7 37
M  V30 42 1 10 38
M  V30 43 1 11 39
M  V30 44 1 12 40
M  V30 45 1 17 41
M  V30 46 1 17 42
M  V30 47 1 19 43
M  V30 48 1 19 44
M  V30 49 1 20 45
M  V30 50 1 20 46
M  V30 51 1 21 47
M  V30 52 1 21 48
M  V30 53 1 23 49
M  V30 54 1 25 50
M  V30 55 1 25 51
M  V30 56 1 25 52
M  V30 57 1 26 53
M  V30 58 1 26 54
M  V30 59 1 26 55
M  V30 60 1 27 56
M  V30 61 1 27 57
M  V30 62 1 27 58
M  V30 63 1 30 59
M  V30 END BOND
M  V30 END CTAB
M  END
>  <Dataset>  (268) 
ChEMBL_Kinases

>  <Ligand_Instance>  (268) 
nan

>  <PDB_ID>  (268) 
nan

>  <Standardized_SMILES>  (268) 
C[C@H]1NC(=O)c2cc(-c3cccc4c(=O)n(CC5(N)CC5)c(NC(C)(C)C)nc34)[nH]c21

>  <Name>  (268) 
nan

>  <Pocket>  (268) 
nan

>  <ATP_Site>  (268) 
nan

>  <Peripheral>  (268) 
nan

>  <Num_H_Atoms_ProtBoundConf>  (268) 
nan

>  <Num_Resolved_Atoms>  (268) 
nan

>  <Num_Not_Resolved_Atoms>  (268) 
nan

$$$$
CHEMBL2204111
     RDKit          3D

  0  0  0  0  0  0  0  0  0  0999 V3000
M  V30 BEGIN CTAB
M  V30 COUNTS 57 60 0 0 0
M  V30 BEGIN ATOM
M  V30 1 C 0.969805 -1.036121 4.344612 0
M  V30 2 O 1.256568 -1.417683 3.019164 0
M  V30 3 C 0.408237 -2.023729 2.170315 0
M  V30 4 O -0.406962 -1.963425 3.122721 0
M  V30 5 C 0.098422 -2.591804 0.909736 0
M  V30 6 C 1.053826 -2.599560 -0.075306 0
M  V30 7 C 2.413663 -2.019732 -0.042484 0
M  V30 8 C 2.461173 -0.574699 -0.252278 0
M  V30 9 C 2.660902 0.447388 0.614431 0
M  V30 10 C 2.672115 1.793257 0.324082 0
M  V30 11 C 2.460953 2.179061 -0.982614 0
M  V30 12 S 2.473372 3.886179 -1.358268 0
M  V30 13 O 2.853748 4.070959 -2.818869 0
M  V30 14 O 3.411012 4.648185 -0.499749 0
M  V30 15 C 0.826773 4.554666 -1.198186 0
M  V30 16 C 0.783757 6.032830 -1.513293 0
M  V30 17 O -0.536105 6.472765 -1.364888 0
M  V30 18 C 2.246921 1.184025 -1.942102 0
M  V30 19 C 2.249390 -0.151672 -1.574317 0
M  V30 20 C 0.611168 -3.232391 -1.248615 0
M  V30 21 O 1.326315 -3.354535 -2.277289 0
M  V30 22 C -0.645160 -3.775519 -1.374533 0
M  V30 23 C -1.069858 -4.397288 -2.539171 0
M  V30 24 C -2.328536 -4.939905 -2.661325 0
M  V30 25 C -3.210590 -4.873215 -1.603394 0
M  V30 26 F -4.460992 -5.402157 -1.698649 0
M  V30 27 C -2.803594 -4.257778 -0.437589 0
M  V30 28 C -1.528798 -3.720398 -0.344399 0
M  V30 29 N -1.129332 -3.122229 0.786311 0
M  V30 30 C -2.068507 -3.072794 1.856206 0
M  V30 31 C -2.243115 -4.030599 2.836607 0
M  V30 32 C -3.208254 -3.835646 3.819095 0
M  V30 33 C -3.972678 -2.697776 3.802821 0
M  V30 34 C -3.827909 -1.707930 2.831926 0
M  V30 35 C -2.866390 -1.926014 1.872128 0
M  V30 36 H 1.853474 -0.506303 4.765410 0
M  V30 37 H 0.139558 -0.302308 4.322400 0
M  V30 38 H 0.663254 -1.894290 4.953435 0
M  V30 39 H 2.980189 -2.484150 -0.899148 0
M  V30 40 H 2.992423 -2.357116 0.846044 0
M  V30 41 H 2.841922 0.190706 1.629070 0
M  V30 42 H 2.841466 2.525568 1.095290 0
M  V30 43 H 0.160346 4.066617 -1.938212 0
M  V30 44 H 0.395589 4.369102 -0.206525 0
M  V30 45 H 1.047718 6.241234 -2.566407 0
M  V30 46 H 1.453938 6.624444 -0.835267 0
M  V30 47 H -1.072052 5.790476 -0.918518 0
M  V30 48 H 2.095382 1.595969 -2.917930 0
M  V30 49 H 2.068990 -0.744009 -2.454487 0
M  V30 50 H -0.395725 -4.464849 -3.390354 0
M  V30 51 H -2.639866 -5.427445 -3.594971 0
M  V30 52 H -3.484128 -4.195677 0.406242 0
M  V30 53 H -1.580199 -4.905962 2.760462 0
M  V30 54 H -3.310553 -4.607133 4.563375 0
M  V30 55 H -4.704241 -2.611056 4.597177 0
M  V30 56 H -4.456014 -0.821512 2.858965 0
M  V30 57 H -2.760798 -1.140776 1.112205 0
M  V30 END ATOM
M  V30 BEGIN BOND
M  V30 1 1 1 2
M  V30 2 1 2 3
M  V30 3 2 3 4
M  V30 4 1 3 5
M  V30 5 2 5 6
M  V30 6 1 6 7
M  V30 7 1 7 8
M  V30 8 2 8 9
M  V30 9 1 9 10
M  V30 10 2 10 11
M  V30 11 1 11 12
M  V30 12 2 12 13
M  V30 13 2 12 14
M  V30 14 1 12 15
M  V30 15 1 15 16
M  V30 16 1 16 17
M  V30 17 1 11 18
M  V30 18 2 18 19
M  V30 19 1 6 20
M  V30 20 2 20 21
M  V30 21 1 20 22
M  V30 22 2 22 23
M  V30 23 1 23 24
M  V30 24 2 24 25
M  V30 25 1 25 26
M  V30 26 1 25 27
M  V30 27 2 27 28
M  V30 28 1 28 29
M  V30 29 1 29 30
M  V30 30 2 30 31
M  V30 31 1 31 32
M  V30 32 2 32 33
M  V30 33 1 33 34
M  V30 34 2 34 35
M  V30 35 1 29 5
M  V30 36 1 35 30
M  V30 37 1 19 8
M  V30 38 1 28 22
M  V30 39 1 1 36
M  V30 40 1 1 37
M  V30 41 1 1 38
M  V30 42 1 7 39
M  V30 43 1 7 40
M  V30 44 1 9 41
M  V30 45 1 10 42
M  V30 46 1 15 43
M  V30 47 1 15 44
M  V30 48 1 16 45
M  V30 49 1 16 46
M  V30 50 1 17 47
M  V30 51 1 18 48
M  V30 52 1 19 49
M  V30 53 1 23 50
M  V30 54 1 24 51
M  V30 55 1 27 52
M  V30 56 1 31 53
M  V30 57 1 32 54
M  V30 58 1 33 55
M  V30 59 1 34 56
M  V30 60 1 35 57
M  V30 END BOND
M  V30 END CTAB
M  END
>  <Dataset>  (269) 
ChEMBL_Kinases

>  <Ligand_Instance>  (269) 
nan

>  <PDB_ID>  (269) 
nan

>  <Standardized_SMILES>  (269) 
COC(=O)c1c(Cc2ccc(S(=O)(=O)CCO)cc2)c(=O)c2ccc(F)cc2n1-c1ccccc1

>  <Name>  (269) 
nan

>  <Pocket>  (269) 
nan

>  <ATP_Site>  (269) 
nan

>  <Peripheral>  (269) 
nan

>  <Num_H_Atoms_ProtBoundConf>  (269) 
nan

>  <Num_Resolved_Atoms>  (269) 
nan

>  <Num_Not_Resolved_Atoms>  (269) 
nan

$$$$
CHEMBL3702243
     RDKit          3D

  0  0  0  0  0  0  0  0  0  0999 V3000
M  V30 BEGIN CTAB
M  V30 COUNTS 60 65 0 0 0
M  V30 BEGIN ATOM
M  V30 1 C 1.712715 -4.092939 4.427817 0
M  V30 2 C 3.081327 -3.426102 4.593509 0
M  V30 3 C 3.233371 -3.229242 6.104199 0
M  V30 4 C 3.005869 -2.129828 3.901415 0
M  V30 5 N 3.650350 -2.067997 2.589635 0
M  V30 6 C 3.160090 -1.390221 1.439669 0
M  V30 7 C 3.783736 -1.402231 0.222684 0
M  V30 8 C 3.265781 -0.729941 -0.847995 0
M  V30 9 C 2.090825 0.000940 -0.780843 0
M  V30 10 N 1.547703 0.701691 -1.889861 0
M  V30 11 C 0.337268 1.440052 -1.778958 0
M  V30 12 N 0.229507 2.754623 -1.426975 0
M  V30 13 C -0.982437 3.338321 -1.358835 0
M  V30 14 C -2.129388 2.592615 -1.649995 0
M  V30 15 C -3.473649 2.903331 -1.666798 0
M  V30 16 C -4.118370 4.092870 -1.389709 0
M  V30 17 C -5.493734 4.114780 -1.487898 0
M  V30 18 N -6.173390 3.002897 -1.844085 0
M  V30 19 C -5.522421 1.878451 -2.102933 0
M  V30 20 C -4.131677 1.734881 -2.036847 0
M  V30 21 N -3.251903 0.739047 -2.242953 0
M  V30 22 C -3.596216 -0.590053 -2.633131 0
M  V30 23 C -4.621716 -1.329303 -1.846417 0
M  V30 24 C -5.310358 -1.659672 -3.168136 0
M  V30 25 C -4.389103 -0.730389 -3.907131 0
M  V30 26 C -2.006095 1.249625 -2.008585 0
M  V30 27 N -0.763189 0.687053 -2.068562 0
M  V30 28 N 1.470763 0.018000 0.413147 0
M  V30 29 C 1.996571 -0.650677 1.456684 0
M  V30 30 C 4.875021 -2.788757 2.587837 0
M  V30 31 C 4.482992 -4.246365 2.792072 0
M  V30 32 N 4.061168 -4.354192 4.166211 0
M  V30 33 H 1.735973 -4.998362 5.065343 0
M  V30 34 H 0.928189 -3.402044 4.826287 0
M  V30 35 H 1.527558 -4.341706 3.364032 0
M  V30 36 H 4.253881 -2.876075 6.356780 0
M  V30 37 H 2.964585 -4.179047 6.610232 0
M  V30 38 H 2.529908 -2.441796 6.458539 0
M  V30 39 H 1.976252 -1.726705 3.875424 0
M  V30 40 H 3.575084 -1.383753 4.533230 0
M  V30 41 H 4.688170 -1.935436 0.075414 0
M  V30 42 H 3.776896 -0.752999 -1.804309 0
M  V30 43 H 2.026763 0.684345 -2.796284 0
M  V30 44 H -1.053524 4.382318 -1.078129 0
M  V30 45 H -3.549491 4.973467 -1.105296 0
M  V30 46 H -6.037129 5.029949 -1.278147 0
M  V30 47 H -6.109361 1.032401 -2.379155 0
M  V30 48 H -2.674874 -1.218057 -2.732799 0
M  V30 49 H -4.278987 -2.296766 -1.376831 0
M  V30 50 H -5.222841 -0.800752 -1.110288 0
M  V30 51 H -6.391495 -1.362379 -3.146900 0
M  V30 52 H -5.261615 -2.719925 -3.462850 0
M  V30 53 H -4.832206 0.202570 -4.297559 0
M  V30 54 H -3.888802 -1.268061 -4.739746 0
M  V30 55 H 1.395152 -0.547979 2.346879 0
M  V30 56 H 5.552145 -2.647966 1.749425 0
M  V30 57 H 5.469959 -2.482848 3.497249 0
M  V30 58 H 5.314850 -4.931572 2.620488 0
M  V30 59 H 3.599039 -4.441618 2.153943 0
M  V30 60 H 3.921186 -5.325436 4.481667 0
M  V30 END ATOM
M  V30 BEGIN BOND
M  V30 1 1 1 2
M  V30 2 1 2 3
M  V30 3 1 2 4
M  V30 4 1 4 5
M  V30 5 1 5 6
M  V30 6 2 6 7
M  V30 7 1 7 8
M  V30 8 2 8 9
M  V30 9 1 9 10
M  V30 10 1 10 11
M  V30 11 2 11 12
M  V30 12 1 12 13
M  V30 13 2 13 14
M  V30 14 1 14 15
M  V30 15 2 15 16
M  V30 16 1 16 17
M  V30 17 2 17 18
M  V30 18 1 18 19
M  V30 19 2 19 20
M  V30 20 1 20 21
M  V30 21 1 21 22
M  V30 22 1 22 23
M  V30 23 1 23 24
M  V30 24 1 24 25
M  V30 25 1 21 26
M  V30 26 2 26 27
M  V30 27 1 9 28
M  V30 28 2 28 29
M  V30 29 1 5 30
M  V30 30 1 30 31
M  V30 31 1 31 32
M  V30 32 1 32 2
M  V30 33 1 29 6
M  V30 34 1 27 11
M  V30 35 1 26 14
M  V30 36 1 20 15
M  V30 37 1 25 22
M  V30 38 1 1 33
M  V30 39 1 1 34
M  V30 40 1 1 35
M  V30 41 1 3 36
M  V30 42 1 3 37
M  V30 43 1 3 38
M  V30 44 1 4 39
M  V30 45 1 4 40
M  V30 46 1 7 41
M  V30 47 1 8 42
M  V30 48 1 10 43
M  V30 49 1 13 44
M  V30 50 1 16 45
M  V30 51 1 17 46
M  V30 52 1 19 47
M  V30 53 1 22 48
M  V30 54 1 23 49
M  V30 55 1 23 50
M  V30 56 1 24 51
M  V30 57 1 24 52
M  V30 58 1 25 53
M  V30 59 1 25 54
M  V30 60 1 29 55
M  V30 61 1 30 56
M  V30 62 1 30 57
M  V30 63 1 31 58
M  V30 64 1 31 59
M  V30 65 1 32 60
M  V30 END BOND
M  V30 END CTAB
M  END
>  <Dataset>  (270) 
ChEMBL_Kinases

>  <Ligand_Instance>  (270) 
nan

>  <PDB_ID>  (270) 
nan

>  <Standardized_SMILES>  (270) 
CC1(C)CN(c2ccc(Nc3ncc4c5ccncc5n(C5CCC5)c4n3)nc2)CCN1

>  <Name>  (270) 
nan

>  <Pocket>  (270) 
nan

>  <ATP_Site>  (270) 
nan

>  <Peripheral>  (270) 
nan

>  <Num_H_Atoms_ProtBoundConf>  (270) 
nan

>  <Num_Resolved_Atoms>  (270) 
nan

>  <Num_Not_Resolved_Atoms>  (270) 
nan

$$$$
CHEMBL3702244
     RDKit          3D

  0  0  0  0  0  0  0  0  0  0999 V3000
M  V30 BEGIN CTAB
M  V30 COUNTS 57 62 0 0 0
M  V30 BEGIN ATOM
M  V30 1 C 5.932705 -5.613788 -1.441082 0
M  V30 2 C 4.528231 -5.051262 -1.499032 0 CFG=1
M  V30 3 C 4.514783 -3.540550 -1.403962 0
M  V30 4 N 3.178425 -3.147205 -1.056853 0
M  V30 5 C 2.757152 -2.006388 -0.324633 0
M  V30 6 C 3.629475 -0.973250 -0.031983 0
M  V30 7 C 3.154048 0.108923 0.681880 0
M  V30 8 C 1.834658 0.133407 1.081847 0
M  V30 9 N 1.245584 1.232581 1.804080 0
M  V30 10 C -0.104095 1.263327 2.247235 0
M  V30 11 N -0.271855 1.129773 3.593455 0
M  V30 12 C -1.495387 1.134928 4.150920 0
M  V30 13 C -2.627890 1.279781 3.339361 0
M  V30 14 C -3.988982 1.329175 3.531688 0
M  V30 15 C -4.722969 1.247117 4.700898 0
M  V30 16 C -6.101461 1.325239 4.646576 0
M  V30 17 N -6.694837 1.479826 3.448249 0
M  V30 18 C -5.974253 1.560164 2.301735 0
M  V30 19 C -4.591870 1.487617 2.303443 0
M  V30 20 N -3.644495 1.539262 1.347953 0
M  V30 21 C -3.985558 1.689992 -0.020454 0
M  V30 22 C -4.090586 3.096024 -0.572013 0
M  V30 23 C -3.626922 2.471730 -1.897825 0
M  V30 24 C -2.895776 1.448206 -1.034043 0
M  V30 25 C -2.441014 1.415276 1.958237 0
M  V30 26 N -1.194916 1.403743 1.453678 0
M  V30 27 N 0.986405 -0.887089 0.790060 0
M  V30 28 C 1.448923 -1.937653 0.096748 0
M  V30 29 C 2.204786 -4.089047 -1.576454 0
M  V30 30 C 2.668902 -4.710597 -2.875055 0
M  V30 31 N 3.906291 -5.416551 -2.758863 0
M  V30 32 H 6.279194 -5.627956 -0.387272 0
M  V30 33 H 5.896359 -6.635252 -1.891680 0
M  V30 34 H 6.604925 -4.950306 -2.029303 0
M  V30 35 H 3.883812 -5.477547 -0.696027 0
M  V30 36 H 5.249400 -3.251461 -0.595418 0
M  V30 37 H 4.843691 -3.147717 -2.399886 0
M  V30 38 H 4.660255 -1.008853 -0.353126 0
M  V30 39 H 3.771826 0.956324 0.949826 0
M  V30 40 H 1.795889 2.084987 2.047813 0
M  V30 41 H -1.732611 1.037938 5.196542 0
M  V30 42 H -4.254373 1.122769 5.671226 0
M  V30 43 H -6.764391 1.272010 5.503014 0
M  V30 44 H -6.471712 1.682632 1.348915 0
M  V30 45 H -4.900072 1.135410 -0.323778 0
M  V30 46 H -3.295014 3.787265 -0.217503 0
M  V30 47 H -5.114279 3.526016 -0.615675 0
M  V30 48 H -2.983273 3.119656 -2.507751 0
M  V30 49 H -4.455767 1.967844 -2.427811 0
M  V30 50 H -1.896832 1.844362 -0.809539 0
M  V30 51 H -2.851948 0.431480 -1.444899 0
M  V30 52 H 0.675719 -2.702039 -0.077591 0
M  V30 53 H 1.291073 -3.495379 -1.814768 0
M  V30 54 H 1.955924 -4.831322 -0.822275 0
M  V30 55 H 2.720168 -3.877769 -3.627508 0
M  V30 56 H 1.880709 -5.421441 -3.195677 0
M  V30 57 H 3.735840 -6.458119 -2.774552 0
M  V30 END ATOM
M  V30 BEGIN BOND
M  V30 1 1 1 2
M  V30 2 1 2 3
M  V30 3 1 3 4
M  V30 4 1 4 5
M  V30 5 2 5 6
M  V30 6 1 6 7
M  V30 7 2 7 8
M  V30 8 1 8 9
M  V30 9 1 9 10
M  V30 10 2 10 11
M  V30 11 1 11 12
M  V30 12 2 12 13
M  V30 13 1 13 14
M  V30 14 2 14 15
M  V30 15 1 15 16
M  V30 16 2 16 17
M  V30 17 1 17 18
M  V30 18 2 18 19
M  V30 19 1 19 20
M  V30 20 1 20 21
M  V30 21 1 21 22
M  V30 22 1 22 23
M  V30 23 1 23 24
M  V30 24 1 20 25
M  V30 25 2 25 26
M  V30 26 1 8 27
M  V30 27 2 27 28
M  V30 28 1 4 29
M  V30 29 1 29 30
M  V30 30 1 30 31
M  V30 31 1 31 2
M  V30 32 1 28 5
M  V30 33 1 26 10
M  V30 34 1 25 13
M  V30 35 1 19 14
M  V30 36 1 24 21
M  V30 37 1 1 32
M  V30 38 1 1 33
M  V30 39 1 1 34
M  V30 40 1 2 35 CFG=1
M  V30 41 1 3 36
M  V30 42 1 3 37
M  V30 43 1 6 38
M  V30 44 1 7 39
M  V30 45 1 9 40
M  V30 46 1 12 41
M  V30 47 1 15 42
M  V30 48 1 16 43
M  V30 49 1 18 44
M  V30 50 1 21 45
M  V30 51 1 22 46
M  V30 52 1 22 47
M  V30 53 1 23 48
M  V30 54 1 23 49
M  V30 55 1 24 50
M  V30 56 1 24 51
M  V30 57 1 28 52
M  V30 58 1 29 53
M  V30 59 1 29 54
M  V30 60 1 30 55
M  V30 61 1 30 56
M  V30 62 1 31 57
M  V30 END BOND
M  V30 END CTAB
M  END
>  <Dataset>  (271) 
ChEMBL_Kinases

>  <Ligand_Instance>  (271) 
nan

>  <PDB_ID>  (271) 
nan

>  <Standardized_SMILES>  (271) 
C[C@H]1CN(c2ccc(Nc3ncc4c5ccncc5n(C5CCC5)c4n3)nc2)CCN1

>  <Name>  (271) 
nan

>  <Pocket>  (271) 
nan

>  <ATP_Site>  (271) 
nan

>  <Peripheral>  (271) 
nan

>  <Num_H_Atoms_ProtBoundConf>  (271) 
nan

>  <Num_Resolved_Atoms>  (271) 
nan

>  <Num_Not_Resolved_Atoms>  (271) 
nan

$$$$
CHEMBL2204110
     RDKit          3D

  0  0  0  0  0  0  0  0  0  0999 V3000
M  V30 BEGIN CTAB
M  V30 COUNTS 66 70 0 0 0
M  V30 BEGIN ATOM
M  V30 1 C 3.531951 1.608062 2.569106 0
M  V30 2 O 3.188161 0.460094 1.829526 0
M  V30 3 C 2.239336 -0.395675 2.231966 0
M  V30 4 O 2.097670 0.357819 3.222727 0
M  V30 5 C 1.477961 -1.578427 2.035313 0
M  V30 6 C 1.682375 -2.341725 0.912676 0
M  V30 7 C 2.548711 -2.049614 -0.239704 0
M  V30 8 C 1.950622 -1.156518 -1.256929 0
M  V30 9 C 1.981804 0.203412 -1.441357 0
M  V30 10 C 1.354314 0.874286 -2.461970 0
M  V30 11 C 0.621256 0.193862 -3.408023 0
M  V30 12 S -0.144968 1.106090 -4.660748 0
M  V30 13 O -0.105235 0.234554 -5.908798 0
M  V30 14 O 0.647382 2.339100 -5.029995 0
M  V30 15 N -1.746873 1.570431 -4.337742 0
M  V30 16 C -1.946475 2.413750 -3.212565 0
M  V30 17 C -2.244223 1.698010 -1.928185 0
M  V30 18 C -3.500834 0.908453 -2.069993 0
M  V30 19 O -3.412959 -0.384583 -1.553916 0
M  V30 20 C -3.920150 0.802773 -3.511452 0
M  V30 21 C -2.722541 0.531084 -4.405224 0
M  V30 22 C 0.530572 -1.182833 -3.307729 0
M  V30 23 C 1.188128 -1.783221 -2.255357 0
M  V30 24 C 0.913225 -3.500550 0.888781 0
M  V30 25 O 0.929959 -4.355831 -0.033235 0
M  V30 26 C 0.025972 -3.850470 1.897440 0
M  V30 27 C -0.742890 -4.992724 1.884738 0
M  V30 28 C -1.616277 -5.315561 2.895278 0
M  V30 29 C -1.753939 -4.477621 3.989384 0
M  V30 30 F -2.629742 -4.844068 4.956478 0
M  V30 31 C -0.982858 -3.323201 4.010903 0
M  V30 32 C -0.110062 -3.014878 2.985618 0
M  V30 33 N 0.624231 -1.896336 3.023836 0
M  V30 34 C 0.463223 -1.058192 4.161830 0
M  V30 35 C -0.397583 0.008841 4.349919 0
M  V30 36 C -0.400709 0.701725 5.534090 0
M  V30 37 C 0.463476 0.333837 6.553561 0
M  V30 38 C 1.331789 -0.724726 6.394677 0
M  V30 39 C 1.324834 -1.421624 5.184390 0
M  V30 40 H 4.366425 2.162721 2.071895 0
M  V30 41 H 3.916181 1.387496 3.592628 0
M  V30 42 H 2.689040 2.323611 2.691548 0
M  V30 43 H 3.561247 -1.693728 0.072754 0
M  V30 44 H 2.774690 -3.031764 -0.749704 0
M  V30 45 H 2.559072 0.743066 -0.712292 0
M  V30 46 H 1.475379 1.956200 -2.466932 0
M  V30 47 H -1.132853 3.145632 -3.039268 0
M  V30 48 H -2.850275 3.053103 -3.438682 0
M  V30 49 H -1.379856 1.107439 -1.562519 0
M  V30 50 H -2.415494 2.481871 -1.144895 0
M  V30 51 H -4.354716 1.402289 -1.526005 0
M  V30 52 H -3.268984 -0.295761 -0.558929 0
M  V30 53 H -4.427123 1.719103 -3.859656 0
M  V30 54 H -4.643089 -0.025242 -3.652049 0
M  V30 55 H -3.124815 0.538025 -5.461061 0
M  V30 56 H -2.350570 -0.491984 -4.239092 0
M  V30 57 H -0.044249 -1.688841 -4.053817 0
M  V30 58 H 1.040656 -2.868228 -2.294311 0
M  V30 59 H -0.661874 -5.661218 1.054711 0
M  V30 60 H -2.204356 -6.235828 2.836460 0
M  V30 61 H -1.105498 -2.674049 4.882802 0
M  V30 62 H -1.022102 0.203901 3.493295 0
M  V30 63 H -1.091695 1.530261 5.636540 0
M  V30 64 H 0.458198 0.884754 7.489609 0
M  V30 65 H 2.005991 -0.999898 7.210306 0
M  V30 66 H 2.048812 -2.245036 5.154587 0
M  V30 END ATOM
M  V30 BEGIN BOND
M  V30 1 1 1 2
M  V30 2 1 2 3
M  V30 3 2 3 4
M  V30 4 1 3 5
M  V30 5 2 5 6
M  V30 6 1 6 7
M  V30 7 1 7 8
M  V30 8 2 8 9
M  V30 9 1 9 10
M  V30 10 2 10 11
M  V30 11 1 11 12
M  V30 12 2 12 13
M  V30 13 2 12 14
M  V30 14 1 12 15
M  V30 15 1 15 16
M  V30 16 1 16 17
M  V30 17 1 17 18
M  V30 18 1 18 19
M  V30 19 1 18 20
M  V30 20 1 20 21
M  V30 21 1 11 22
M  V30 22 2 22 23
M  V30 23 1 6 24
M  V30 24 2 24 25
M  V30 25 1 24 26
M  V30 26 2 26 27
M  V30 27 1 27 28
M  V30 28 2 28 29
M  V30 29 1 29 30
M  V30 30 1 29 31
M  V30 31 2 31 32
M  V30 32 1 32 33
M  V30 33 1 33 34
M  V30 34 2 34 35
M  V30 35 1 35 36
M  V30 36 2 36 37
M  V30 37 1 37 38
M  V30 38 2 38 39
M  V30 39 1 33 5
M  V30 40 1 39 34
M  V30 41 1 23 8
M  V30 42 1 32 26
M  V30 43 1 21 15
M  V30 44 1 1 40
M  V30 45 1 1 41
M  V30 46 1 1 42
M  V30 47 1 7 43
M  V30 48 1 7 44
M  V30 49 1 9 45
M  V30 50 1 10 46
M  V30 51 1 16 47
M  V30 52 1 16 48
M  V30 53 1 17 49
M  V30 54 1 17 50
M  V30 55 1 18 51
M  V30 56 1 19 52
M  V30 57 1 20 53
M  V30 58 1 20 54
M  V30 59 1 21 55
M  V30 60 1 21 56
M  V30 61 1 22 57
M  V30 62 1 23 58
M  V30 63 1 27 59
M  V30 64 1 28 60
M  V30 65 1 31 61
M  V30 66 1 35 62
M  V30 67 1 36 63
M  V30 68 1 37 64
M  V30 69 1 38 65
M  V30 70 1 39 66
M  V30 END BOND
M  V30 END CTAB
M  END
>  <Dataset>  (272) 
ChEMBL_Kinases

>  <Ligand_Instance>  (272) 
nan

>  <PDB_ID>  (272) 
nan

>  <Standardized_SMILES>  (272) 
COC(=O)c1c(Cc2ccc(S(=O)(=O)N3CCC(O)CC3)cc2)c(=O)c2ccc(F)cc2n1-c1ccccc1

>  <Name>  (272) 
nan

>  <Pocket>  (272) 
nan

>  <ATP_Site>  (272) 
nan

>  <Peripheral>  (272) 
nan

>  <Num_H_Atoms_ProtBoundConf>  (272) 
nan

>  <Num_Resolved_Atoms>  (272) 
nan

>  <Num_Not_Resolved_Atoms>  (272) 
nan

$$$$
CHEMBL3702245
     RDKit          3D

  0  0  0  0  0  0  0  0  0  0999 V3000
M  V30 BEGIN CTAB
M  V30 COUNTS 60 65 0 0 0
M  V30 BEGIN ATOM
M  V30 1 C 2.464727 -4.168911 3.814943 0
M  V30 2 N 3.347897 -4.261667 2.674878 0
M  V30 3 C 4.711721 -3.891535 2.995859 0
M  V30 4 C 4.862104 -2.491814 3.501275 0
M  V30 5 C 4.852055 -1.441207 2.446260 0
M  V30 6 N 4.557436 -1.885145 1.121392 0
M  V30 7 C 3.549392 -1.324772 0.273352 0
M  V30 8 C 2.594836 -0.490315 0.811995 0
M  V30 9 C 1.608371 0.081270 -0.004775 0
M  V30 10 C 1.594159 -0.193914 -1.357631 0
M  V30 11 N 0.616486 0.360819 -2.226296 0
M  V30 12 C -0.435674 1.214502 -1.805154 0
M  V30 13 N -0.443192 2.537515 -1.596400 0
M  V30 14 C -1.551908 3.189101 -1.201620 0
M  V30 15 C -2.732734 2.520921 -0.994294 0
M  V30 16 C -4.011251 2.857845 -0.605893 0
M  V30 17 C -4.549803 4.064054 -0.275097 0
M  V30 18 C -5.901247 4.079611 0.082475 0
M  V30 19 N -6.619824 2.946177 0.093359 0
M  V30 20 C -6.040160 1.768458 -0.243993 0
M  V30 21 C -4.714763 1.667669 -0.607931 0
M  V30 22 N -3.968408 0.609778 -0.969643 0
M  V30 23 C -4.322654 -0.769906 -1.097108 0
M  V30 24 C -4.993170 -1.441785 0.056253 0
M  V30 25 C -6.005122 -2.049962 -0.915622 0
M  V30 26 C -5.495189 -1.090361 -1.992376 0
M  V30 27 C -2.741144 1.168347 -1.203822 0
M  V30 28 N -1.609889 0.564401 -1.596716 0
M  V30 29 N 2.532678 -1.010472 -1.869071 0
M  V30 30 C 3.496155 -1.570139 -1.076627 0
M  V30 31 C 5.416581 -2.986634 0.746751 0
M  V30 32 C 5.561320 -4.059655 1.764095 0
M  V30 33 H 1.497411 -4.613363 3.483306 0
M  V30 34 H 2.858271 -4.671482 4.721235 0
M  V30 35 H 2.230496 -3.120926 4.108863 0
M  V30 36 H 2.994802 -3.564722 1.995994 0
M  V30 37 H 5.134452 -4.601823 3.755136 0
M  V30 38 H 5.831301 -2.464238 4.081139 0
M  V30 39 H 4.078630 -2.261530 4.278856 0
M  V30 40 H 4.239578 -0.574056 2.794164 0
M  V30 41 H 5.895220 -0.999769 2.385834 0
M  V30 42 H 2.509755 -0.208761 1.849212 0
M  V30 43 H 0.845109 0.742968 0.402629 0
M  V30 44 H 0.630821 0.157271 -3.243244 0
M  V30 45 H -1.505386 4.251471 -1.046962 0
M  V30 46 H -3.957971 4.967681 -0.288077 0
M  V30 47 H -6.387686 5.019093 0.358332 0
M  V30 48 H -6.668046 0.892699 -0.217960 0
M  V30 49 H -3.442838 -1.373980 -1.447547 0
M  V30 50 H -4.389786 -2.284077 0.507706 0
M  V30 51 H -5.416419 -0.837552 0.855030 0
M  V30 52 H -5.819347 -3.115045 -1.152347 0
M  V30 53 H -7.046613 -1.896301 -0.600284 0
M  V30 54 H -5.241052 -1.672779 -2.908901 0
M  V30 55 H -6.174016 -0.272073 -2.251429 0
M  V30 56 H 4.207414 -2.210708 -1.570844 0
M  V30 57 H 6.402785 -2.527084 0.510992 0
M  V30 58 H 5.044298 -3.441829 -0.219486 0
M  V30 59 H 5.333532 -5.049943 1.306519 0
M  V30 60 H 6.642170 -4.116381 2.074189 0
M  V30 END ATOM
M  V30 BEGIN BOND
M  V30 1 1 1 2
M  V30 2 1 2 3
M  V30 3 1 3 4
M  V30 4 1 4 5
M  V30 5 1 5 6
M  V30 6 1 6 7
M  V30 7 2 7 8
M  V30 8 1 8 9
M  V30 9 2 9 10
M  V30 10 1 10 11
M  V30 11 1 11 12
M  V30 12 2 12 13
M  V30 13 1 13 14
M  V30 14 2 14 15
M  V30 15 1 15 16
M  V30 16 2 16 17
M  V30 17 1 17 18
M  V30 18 2 18 19
M  V30 19 1 19 20
M  V30 20 2 20 21
M  V30 21 1 21 22
M  V30 22 1 22 23
M  V30 23 1 23 24
M  V30 24 1 24 25
M  V30 25 1 25 26
M  V30 26 1 22 27
M  V30 27 2 27 28
M  V30 28 1 10 29
M  V30 29 2 29 30
M  V30 30 1 6 31
M  V30 31 1 31 32
M  V30 32 1 32 3
M  V30 33 1 30 7
M  V30 34 1 28 12
M  V30 35 1 27 15
M  V30 36 1 21 16
M  V30 37 1 26 23
M  V30 38 1 1 33
M  V30 39 1 1 34
M  V30 40 1 1 35
M  V30 41 1 2 36
M  V30 42 1 3 37
M  V30 43 1 4 38
M  V30 44 1 4 39
M  V30 45 1 5 40
M  V30 46 1 5 41
M  V30 47 1 8 42
M  V30 48 1 9 43
M  V30 49 1 11 44
M  V30 50 1 14 45
M  V30 51 1 17 46
M  V30 52 1 18 47
M  V30 53 1 20 48
M  V30 54 1 23 49
M  V30 55 1 24 50
M  V30 56 1 24 51
M  V30 57 1 25 52
M  V30 58 1 25 53
M  V30 59 1 26 54
M  V30 60 1 26 55
M  V30 61 1 30 56
M  V30 62 1 31 57
M  V30 63 1 31 58
M  V30 64 1 32 59
M  V30 65 1 32 60
M  V30 END BOND
M  V30 END CTAB
M  END
>  <Dataset>  (273) 
ChEMBL_Kinases

>  <Ligand_Instance>  (273) 
nan

>  <PDB_ID>  (273) 
nan

>  <Standardized_SMILES>  (273) 
CNC1CCN(c2ccc(Nc3ncc4c5ccncc5n(C5CCC5)c4n3)nc2)CC1

>  <Name>  (273) 
nan

>  <Pocket>  (273) 
nan

>  <ATP_Site>  (273) 
nan

>  <Peripheral>  (273) 
nan

>  <Num_H_Atoms_ProtBoundConf>  (273) 
nan

>  <Num_Resolved_Atoms>  (273) 
nan

>  <Num_Not_Resolved_Atoms>  (273) 
nan

$$$$
CHEMBL3702246
     RDKit          3D

  0  0  0  0  0  0  0  0  0  0999 V3000
M  V30 BEGIN CTAB
M  V30 COUNTS 53 58 0 0 0
M  V30 BEGIN ATOM
M  V30 1 C 0.219985 -7.154722 2.122714 0
M  V30 2 C 0.920809 -5.960463 2.089369 0
M  V30 3 C 0.649244 -5.064657 1.077350 0
M  V30 4 C 1.207786 -3.829969 0.837380 0
M  V30 5 C 2.191165 -3.085792 1.493404 0
M  V30 6 N 2.524832 -1.887467 1.002486 0
M  V30 7 C 1.937640 -1.384741 -0.103709 0
M  V30 8 N 2.384986 -0.099221 -0.519672 0
M  V30 9 C 1.695174 1.026896 0.013545 0
M  V30 10 C 0.634086 0.848024 0.900470 0
M  V30 11 C -0.022885 1.951615 1.407206 0
M  V30 12 C 0.350932 3.229340 1.052328 0
M  V30 13 N -0.236817 4.446173 1.497693 0
M  V30 14 C 0.226902 5.773265 1.067220 0
M  V30 15 C 0.310401 6.678476 2.256525 0
M  V30 16 N 0.340893 5.968115 3.508767 0
M  V30 17 C -0.803223 5.112727 3.713376 0
M  V30 18 C -1.352769 4.548640 2.419787 0
M  V30 19 N 1.380008 3.355247 0.193823 0
M  V30 20 N 2.011157 2.298735 -0.293122 0
M  V30 21 N 0.987194 -2.098195 -0.742145 0
M  V30 22 C 0.604256 -3.321235 -0.293577 0
M  V30 23 N -0.315831 -4.215499 -0.758025 0
M  V30 24 C -1.162278 -4.085022 -1.904394 0
M  V30 25 C -2.636330 -4.202540 -1.670855 0
M  V30 26 C -2.693459 -5.191771 -2.832099 0
M  V30 27 C -1.166869 -5.172339 -2.917791 0
M  V30 28 C -0.278206 -5.266069 0.081107 0
M  V30 29 C -0.950028 -6.487504 0.170851 0
M  V30 30 N -0.697710 -7.380919 1.157239 0
M  V30 31 H 0.322844 -7.933372 2.837474 0
M  V30 32 H 1.649138 -5.795182 2.866373 0
M  V30 33 H 2.628863 -3.521862 2.364250 0
M  V30 34 H 3.167881 0.107989 -1.176511 0
M  V30 35 H 0.325547 -0.148730 1.191361 0
M  V30 36 H -0.840916 1.873134 2.088963 0
M  V30 37 H 1.180949 5.707983 0.522796 0
M  V30 38 H -0.593850 6.163118 0.407230 0
M  V30 39 H 1.286886 7.227031 2.196745 0
M  V30 40 H -0.462511 7.455440 2.281204 0
M  V30 41 H 1.256690 5.466057 3.655539 0
M  V30 42 H -1.591610 5.592498 4.325612 0
M  V30 43 H -0.412912 4.235819 4.297438 0
M  V30 44 H -2.101537 5.237634 1.960786 0
M  V30 45 H -1.814732 3.567582 2.664370 0
M  V30 46 H -0.953036 -3.116002 -2.435943 0
M  V30 47 H -2.959575 -4.607632 -0.693471 0
M  V30 48 H -3.216182 -3.259311 -1.837962 0
M  V30 49 H -3.131818 -6.175911 -2.566338 0
M  V30 50 H -3.191489 -4.714711 -3.701337 0
M  V30 51 H -0.661358 -6.114435 -2.666390 0
M  V30 52 H -0.867437 -4.892063 -3.964686 0
M  V30 53 H -1.694814 -6.718184 -0.577151 0
M  V30 END ATOM
M  V30 BEGIN BOND
M  V30 1 2 1 2
M  V30 2 1 2 3
M  V30 3 1 3 4
M  V30 4 2 4 5
M  V30 5 1 5 6
M  V30 6 2 6 7
M  V30 7 1 7 8
M  V30 8 1 8 9
M  V30 9 2 9 10
M  V30 10 1 10 11
M  V30 11 2 11 12
M  V30 12 1 12 13
M  V30 13 1 13 14
M  V30 14 1 14 15
M  V30 15 1 15 16
M  V30 16 1 16 17
M  V30 17 1 17 18
M  V30 18 1 12 19
M  V30 19 2 19 20
M  V30 20 1 7 21
M  V30 21 2 21 22
M  V30 22 1 22 23
M  V30 23 1 23 24
M  V30 24 1 24 25
M  V30 25 1 25 26
M  V30 26 1 26 27
M  V30 27 1 23 28
M  V30 28 1 28 29
M  V30 29 2 29 30
M  V30 30 1 30 1
M  V30 31 2 28 3
M  V30 32 1 22 4
M  V30 33 1 27 24
M  V30 34 1 20 9
M  V30 35 1 18 13
M  V30 36 1 1 31
M  V30 37 1 2 32
M  V30 38 1 5 33
M  V30 39 1 8 34
M  V30 40 1 10 35
M  V30 41 1 11 36
M  V30 42 1 14 37
M  V30 43 1 14 38
M  V30 44 1 15 39
M  V30 45 1 15 40
M  V30 46 1 16 41
M  V30 47 1 17 42
M  V30 48 1 17 43
M  V30 49 1 18 44
M  V30 50 1 18 45
M  V30 51 1 24 46
M  V30 52 1 25 47
M  V30 53 1 25 48
M  V30 54 1 26 49
M  V30 55 1 26 50
M  V30 56 1 27 51
M  V30 57 1 27 52
M  V30 58 1 29 53
M  V30 END BOND
M  V30 END CTAB
M  END
>  <Dataset>  (274) 
ChEMBL_Kinases

>  <Ligand_Instance>  (274) 
nan

>  <PDB_ID>  (274) 
nan

>  <Standardized_SMILES>  (274) 
c1cc2c3cnc(Nc4ccc(N5CCNCC5)nn4)nc3n(C3CCC3)c2cn1

>  <Name>  (274) 
nan

>  <Pocket>  (274) 
nan

>  <ATP_Site>  (274) 
nan

>  <Peripheral>  (274) 
nan

>  <Num_H_Atoms_ProtBoundConf>  (274) 
nan

>  <Num_Resolved_Atoms>  (274) 
nan

>  <Num_Not_Resolved_Atoms>  (274) 
nan

$$$$
CHEMBL3702247
     RDKit          3D

  0  0  0  0  0  0  0  0  0  0999 V3000
M  V30 BEGIN CTAB
M  V30 COUNTS 62 67 0 0 0
M  V30 BEGIN ATOM
M  V30 1 C 4.926624 -0.380523 3.650138 0
M  V30 2 N 4.403403 -0.581978 2.335787 0
M  V30 3 C 3.844036 -1.859634 2.074025 0
M  V30 4 C 5.239910 -0.040024 1.280306 0
M  V30 5 C 5.337424 1.423564 1.551085 0
M  V30 6 C 4.306141 2.302244 0.963790 0
M  V30 7 N 3.409148 1.508998 0.144008 0
M  V30 8 C 1.992652 1.524973 0.291397 0
M  V30 9 C 1.079434 0.803044 -0.450973 0
M  V30 10 C -0.277568 0.913709 -0.200681 0
M  V30 11 C -0.726087 1.757499 0.805211 0
M  V30 12 N -2.136893 1.878679 1.072535 0
M  V30 13 C -2.976476 1.074958 0.228863 0
M  V30 14 N -3.461220 1.549452 -0.941106 0
M  V30 15 C -4.245559 0.791026 -1.724628 0
M  V30 16 C -4.546860 -0.489900 -1.306176 0
M  V30 17 C -5.280217 -1.549205 -1.784491 0
M  V30 18 C -6.007693 -1.611773 -2.977279 0
M  V30 19 C -6.674928 -2.781680 -3.262715 0
M  V30 20 N -6.610637 -3.814756 -2.402457 0
M  V30 21 C -5.905624 -3.746944 -1.251717 0
M  V30 22 C -5.207383 -2.616096 -0.885065 0
M  V30 23 N -4.431020 -2.211510 0.142348 0
M  V30 24 C -4.191580 -3.128393 1.216004 0
M  V30 25 C -3.119494 -4.130238 0.814421 0
M  V30 26 C -2.115320 -3.215864 1.510848 0
M  V30 27 C -3.283885 -2.669811 2.307214 0
M  V30 28 C -4.046265 -0.959731 -0.112601 0
M  V30 29 N -3.261441 -0.166010 0.646086 0
M  V30 30 N 0.204387 2.440176 1.501094 0
M  V30 31 N 1.501940 2.327994 1.254489 0
M  V30 32 C 4.108703 0.699585 -0.839843 0
M  V30 33 C 4.727101 -0.429282 -0.047399 0
M  V30 34 H 4.449839 0.530464 4.080398 0
M  V30 35 H 6.022564 -0.219682 3.615326 0
M  V30 36 H 4.634053 -1.214975 4.313969 0
M  V30 37 H 2.804091 -1.753676 1.650812 0
M  V30 38 H 4.465159 -2.544473 1.497359 0
M  V30 39 H 3.659528 -2.346533 3.076470 0
M  V30 40 H 6.242586 -0.501984 1.421915 0
M  V30 41 H 6.327734 1.763629 1.125808 0
M  V30 42 H 5.407647 1.623315 2.640230 0
M  V30 43 H 4.718466 3.147707 0.339382 0
M  V30 44 H 3.686661 2.779448 1.756748 0
M  V30 45 H 1.480188 0.170760 -1.210574 0
M  V30 46 H -0.971318 0.330169 -0.804892 0
M  V30 47 H -2.409162 2.528131 1.840906 0
M  V30 48 H -4.648042 1.143962 -2.666176 0
M  V30 49 H -6.036024 -0.761080 -3.643783 0
M  V30 50 H -7.256246 -2.891887 -4.172055 0
M  V30 51 H -5.860534 -4.583125 -0.567160 0
M  V30 52 H -5.104447 -3.621143 1.618037 0
M  V30 53 H -3.170701 -5.086973 1.390605 0
M  V30 54 H -2.971881 -4.228800 -0.277133 0
M  V30 55 H -1.346890 -3.742738 2.110080 0
M  V30 56 H -1.709901 -2.495303 0.766046 0
M  V30 57 H -3.255848 -1.595626 2.551789 0
M  V30 58 H -3.407952 -3.329436 3.213819 0
M  V30 59 H 4.942511 1.278182 -1.288106 0
M  V30 60 H 3.471955 0.289656 -1.622862 0
M  V30 61 H 5.522461 -0.871806 -0.682622 0
M  V30 62 H 3.937567 -1.230972 0.006856 0
M  V30 END ATOM
M  V30 BEGIN BOND
M  V30 1 1 1 2
M  V30 2 1 2 3
M  V30 3 1 2 4
M  V30 4 1 4 5
M  V30 5 1 5 6
M  V30 6 1 6 7
M  V30 7 1 7 8
M  V30 8 2 8 9
M  V30 9 1 9 10
M  V30 10 2 10 11
M  V30 11 1 11 12
M  V30 12 1 12 13
M  V30 13 2 13 14
M  V30 14 1 14 15
M  V30 15 2 15 16
M  V30 16 1 16 17
M  V30 17 2 17 18
M  V30 18 1 18 19
M  V30 19 2 19 20
M  V30 20 1 20 21
M  V30 21 2 21 22
M  V30 22 1 22 23
M  V30 23 1 23 24
M  V30 24 1 24 25
M  V30 25 1 25 26
M  V30 26 1 26 27
M  V30 27 1 23 28
M  V30 28 2 28 29
M  V30 29 1 11 30
M  V30 30 2 30 31
M  V30 31 1 7 32
M  V30 32 1 32 33
M  V30 33 1 33 4
M  V30 34 1 31 8
M  V30 35 1 29 13
M  V30 36 1 28 16
M  V30 37 1 22 17
M  V30 38 1 27 24
M  V30 39 1 1 34
M  V30 40 1 1 35
M  V30 41 1 1 36
M  V30 42 1 3 37
M  V30 43 1 3 38
M  V30 44 1 3 39
M  V30 45 1 4 40
M  V30 46 1 5 41
M  V30 47 1 5 42
M  V30 48 1 6 43
M  V30 49 1 6 44
M  V30 50 1 9 45
M  V30 51 1 10 46
M  V30 52 1 12 47
M  V30 53 1 15 48
M  V30 54 1 18 49
M  V30 55 1 19 50
M  V30 56 1 21 51
M  V30 57 1 24 52
M  V30 58 1 25 53
M  V30 59 1 25 54
M  V30 60 1 26 55
M  V30 61 1 26 56
M  V30 62 1 27 57
M  V30 63 1 27 58
M  V30 64 1 32 59
M  V30 65 1 32 60
M  V30 66 1 33 61
M  V30 67 1 33 62
M  V30 END BOND
M  V30 END CTAB
M  END
>  <Dataset>  (275) 
ChEMBL_Kinases

>  <Ligand_Instance>  (275) 
nan

>  <PDB_ID>  (275) 
nan

>  <Standardized_SMILES>  (275) 
CN(C)C1CCN(c2ccc(Nc3ncc4c5ccncc5n(C5CCC5)c4n3)nn2)CC1

>  <Name>  (275) 
nan

>  <Pocket>  (275) 
nan

>  <ATP_Site>  (275) 
nan

>  <Peripheral>  (275) 
nan

>  <Num_H_Atoms_ProtBoundConf>  (275) 
nan

>  <Num_Resolved_Atoms>  (275) 
nan

>  <Num_Not_Resolved_Atoms>  (275) 
nan

$$$$
CHEMBL4468747
     RDKit          3D

  0  0  0  0  0  0  0  0  0  0999 V3000
M  V30 BEGIN CTAB
M  V30 COUNTS 55 59 0 0 0
M  V30 BEGIN ATOM
M  V30 1 C 1.317775 3.144462 2.658199 0
M  V30 2 C 1.565849 2.818589 1.216329 0
M  V30 3 C 1.000726 1.516849 0.886989 0
M  V30 4 C -0.242384 1.467362 0.275320 0
M  V30 5 C -0.868304 0.289656 -0.071028 0
M  V30 6 C -0.264456 -0.924495 0.184815 0
M  V30 7 C 0.972600 -0.857971 0.793968 0
M  V30 8 C 1.632677 0.324421 1.157152 0
M  V30 9 C 2.925504 0.157073 1.787033 0
M  V30 10 C 3.774962 -0.578969 0.939969 0
M  V30 11 C 5.069438 -0.917256 1.265668 0
M  V30 12 C 5.602930 -0.535851 2.474635 0
M  V30 13 C 4.790093 0.186198 3.323023 0
M  V30 14 S 5.355177 0.729465 4.884613 0
M  V30 15 O 4.168545 0.782030 5.801666 0
M  V30 16 O 6.416515 -0.187341 5.423920 0
M  V30 17 F 6.032421 2.270246 4.733234 0
M  V30 18 C 3.503447 0.507146 2.968627 0
M  V30 19 C -0.838580 -2.254284 -0.141301 0
M  V30 20 C -1.065681 -3.035650 1.150070 0
M  V30 21 C 0.070643 -3.067848 -1.023185 0
M  V30 22 C -2.166171 -2.110226 -0.788268 0
M  V30 23 N -2.905554 -3.165335 -1.186814 0
M  V30 24 C -4.037350 -2.669747 -1.725970 0
M  V30 25 C -5.146085 -3.269251 -2.291402 0
M  V30 26 C -6.242313 -2.573816 -2.807040 0
M  V30 27 C -7.365746 -3.255420 -3.383495 0
M  V30 28 N -8.295946 -3.800411 -3.846093 0
M  V30 29 C -6.153641 -1.199211 -2.717075 0
M  V30 30 C -5.087377 -0.515012 -2.169694 0
M  V30 31 C -4.055573 -1.290339 -1.688511 0
M  V30 32 C -2.858806 -0.955523 -1.089506 0
M  V30 33 C -2.180770 0.285300 -0.715285 0
M  V30 34 O -2.781215 1.359536 -0.973929 0
M  V30 35 H 2.259288 3.338319 3.223199 0
M  V30 36 H 0.801542 2.293849 3.138304 0
M  V30 37 H 0.634226 4.029549 2.742989 0
M  V30 38 H 1.072982 3.592477 0.591693 0
M  V30 39 H 2.649260 2.908253 0.947214 0
M  V30 40 H -0.792449 2.373460 0.035710 0
M  V30 41 H 1.461190 -1.824905 1.001072 0
M  V30 42 H 3.524218 -0.967777 -0.060601 0
M  V30 43 H 5.747993 -1.479823 0.641541 0
M  V30 44 H 6.595190 -0.732227 2.853539 0
M  V30 45 H 2.851262 1.047845 3.612249 0
M  V30 46 H -0.136699 -3.500491 1.512391 0
M  V30 47 H -1.801376 -3.850101 0.993392 0
M  V30 48 H -1.516130 -2.316455 1.864191 0
M  V30 49 H 0.957122 -3.381587 -0.418963 0
M  V30 50 H 0.408758 -2.514464 -1.898704 0
M  V30 51 H -0.464990 -4.004110 -1.274595 0
M  V30 52 H -2.742686 -4.196419 -1.141519 0
M  V30 53 H -5.215939 -4.352693 -2.362094 0
M  V30 54 H -6.972194 -0.629648 -3.100141 0
M  V30 55 H -5.018833 0.551640 -2.100257 0
M  V30 END ATOM
M  V30 BEGIN BOND
M  V30 1 1 1 2
M  V30 2 1 2 3
M  V30 3 2 3 4
M  V30 4 1 4 5
M  V30 5 2 5 6
M  V30 6 1 6 7
M  V30 7 2 7 8
M  V30 8 1 8 9
M  V30 9 2 9 10
M  V30 10 1 10 11
M  V30 11 2 11 12
M  V30 12 1 12 13
M  V30 13 1 13 14
M  V30 14 2 14 15
M  V30 15 2 14 16
M  V30 16 1 14 17
M  V30 17 2 13 18
M  V30 18 1 6 19
M  V30 19 1 19 20
M  V30 20 1 19 21
M  V30 21 1 19 22
M  V30 22 1 22 23
M  V30 23 1 23 24
M  V30 24 2 24 25
M  V30 25 1 25 26
M  V30 26 1 26 27
M  V30 27 3 27 28
M  V30 28 2 26 29
M  V30 29 1 29 30
M  V30 30 2 30 31
M  V30 31 1 31 32
M  V30 32 1 32 33
M  V30 33 2 33 34
M  V30 34 1 8 3
M  V30 35 1 18 9
M  V30 36 2 32 22
M  V30 37 1 33 5
M  V30 38 1 31 24
M  V30 39 1 1 35
M  V30 40 1 1 36
M  V30 41 1 1 37
M  V30 42 1 2 38
M  V30 43 1 2 39
M  V30 44 1 4 40
M  V30 45 1 7 41
M  V30 46 1 10 42
M  V30 47 1 11 43
M  V30 48 1 12 44
M  V30 49 1 18 45
M  V30 50 1 20 46
M  V30 51 1 20 47
M  V30 52 1 20 48
M  V30 53 1 21 49
M  V30 54 1 21 50
M  V30 55 1 21 51
M  V30 56 1 23 52
M  V30 57 1 25 53
M  V30 58 1 29 54
M  V30 59 1 30 55
M  V30 END BOND
M  V30 END CTAB
M  END
>  <Dataset>  (276) 
ChEMBL_Kinases

>  <Ligand_Instance>  (276) 
nan

>  <PDB_ID>  (276) 
nan

>  <Standardized_SMILES>  (276) 
CCc1cc2c(cc1-c1cccc(S(=O)(=O)F)c1)C(C)(C)c1[nH]c3cc(C#N)ccc3c1C2=O

>  <Name>  (276) 
nan

>  <Pocket>  (276) 
nan

>  <ATP_Site>  (276) 
nan

>  <Peripheral>  (276) 
nan

>  <Num_H_Atoms_ProtBoundConf>  (276) 
nan

>  <Num_Resolved_Atoms>  (276) 
nan

>  <Num_Not_Resolved_Atoms>  (276) 
nan

$$$$
CHEMBL3699237
     RDKit          3D

  0  0  0  0  0  0  0  0  0  0999 V3000
M  V30 BEGIN CTAB
M  V30 COUNTS 51 55 0 0 0
M  V30 BEGIN ATOM
M  V30 1 N -1.683988 -2.977566 5.086502 0
M  V30 2 C -1.291311 -2.878680 4.002365 0
M  V30 3 C -0.784131 -2.760215 2.668347 0
M  V30 4 C -0.059242 -1.686023 2.216147 0
M  V30 5 C 0.464625 -1.484197 0.961782 0
M  V30 6 N 1.206923 -0.348746 0.558315 0
M  V30 7 C 1.555684 0.790609 1.328033 0
M  V30 8 N 2.289162 1.771935 0.758418 0
M  V30 9 C 2.671542 2.889766 1.385269 0
M  V30 10 N 3.444914 3.889987 0.733906 0
M  V30 11 C 3.832223 3.682829 -0.655470 0
M  V30 12 C 2.610176 3.496474 -1.571855 0
M  V30 13 C 3.481685 4.685252 -1.685711 0
M  V30 14 C 2.301539 3.066574 2.698679 0
M  V30 15 N 2.499969 4.032480 3.607988 0
M  V30 16 C 1.915737 3.710866 4.762134 0
M  V30 17 C 1.326710 2.479369 4.547315 0
M  V30 18 C 0.592541 1.796174 5.572283 0
M  V30 19 N -0.003793 1.236504 6.387036 0
M  V30 20 N 1.575068 2.092825 3.261766 0
M  V30 21 N 1.222656 1.010898 2.603750 0
M  V30 22 C 0.208002 -2.511374 0.076626 0
M  V30 23 Cl 0.840826 -2.385550 -1.573480 0
M  V30 24 C -0.506093 -3.623405 0.433616 0
M  V30 25 N -0.796397 -4.685152 -0.472624 0
M  V30 26 N -2.064286 -4.403068 -0.850292 0
M  V30 27 C -3.004341 -5.455592 -0.964033 0
M  V30 28 C -4.336172 -4.899295 -0.430457 0
M  V30 29 O -4.626215 -3.708419 -1.087144 0
M  V30 30 C -3.804890 -3.432123 -2.161758 0
M  V30 31 C -2.322899 -3.356607 -1.756537 0
M  V30 32 C -1.014408 -3.772685 1.727863 0
M  V30 33 H 0.080037 -0.945193 2.987876 0
M  V30 34 H 1.539047 -0.355609 -0.441071 0
M  V30 35 H 3.718555 4.748479 1.256391 0
M  V30 36 H 4.681658 3.006666 -0.783474 0
M  V30 37 H 2.698838 2.629531 -2.257627 0
M  V30 38 H 1.595532 3.648903 -1.148071 0
M  V30 39 H 3.077376 5.687262 -1.440039 0
M  V30 40 H 4.153694 4.711236 -2.571351 0
M  V30 41 H 1.957393 4.360337 5.629272 0
M  V30 42 H -0.280112 -5.533279 -0.852401 0
M  V30 43 H -3.206838 -5.762965 -2.009626 0
M  V30 44 H -2.724673 -6.375220 -0.411753 0
M  V30 45 H -4.087572 -4.587334 0.626107 0
M  V30 46 H -5.141708 -5.637142 -0.489451 0
M  V30 47 H -3.990189 -4.147058 -2.964155 0
M  V30 48 H -4.114064 -2.433564 -2.542757 0
M  V30 49 H -2.113863 -2.359644 -1.303246 0
M  V30 50 H -1.761950 -3.389577 -2.722201 0
M  V30 51 H -1.575274 -4.656376 1.993459 0
M  V30 END ATOM
M  V30 BEGIN BOND
M  V30 1 3 1 2
M  V30 2 1 2 3
M  V30 3 2 3 4
M  V30 4 1 4 5
M  V30 5 1 5 6
M  V30 6 1 6 7
M  V30 7 1 7 8
M  V30 8 2 8 9
M  V30 9 1 9 10
M  V30 10 1 10 11
M  V30 11 1 11 12
M  V30 12 1 12 13
M  V30 13 1 9 14
M  V30 14 2 14 15
M  V30 15 1 15 16
M  V30 16 2 16 17
M  V30 17 1 17 18
M  V30 18 3 18 19
M  V30 19 1 17 20
M  V30 20 1 20 21
M  V30 21 2 5 22
M  V30 22 1 22 23
M  V30 23 1 22 24
M  V30 24 1 24 25
M  V30 25 1 25 26
M  V30 26 1 26 27
M  V30 27 1 27 28
M  V30 28 1 28 29
M  V30 29 1 29 30
M  V30 30 1 30 31
M  V30 31 2 24 32
M  V30 32 1 32 3
M  V30 33 2 21 7
M  V30 34 1 31 26
M  V30 35 1 13 11
M  V30 36 1 20 14
M  V30 37 1 4 33
M  V30 38 1 6 34
M  V30 39 1 10 35
M  V30 40 1 11 36
M  V30 41 1 12 37
M  V30 42 1 12 38
M  V30 43 1 13 39
M  V30 44 1 13 40
M  V30 45 1 16 41
M  V30 46 1 25 42
M  V30 47 1 27 43
M  V30 48 1 27 44
M  V30 49 1 28 45
M  V30 50 1 28 46
M  V30 51 1 30 47
M  V30 52 1 30 48
M  V30 53 1 31 49
M  V30 54 1 31 50
M  V30 55 1 32 51
M  V30 END BOND
M  V30 END CTAB
M  END
>  <Dataset>  (277) 
ChEMBL_Kinases

>  <Ligand_Instance>  (277) 
nan

>  <PDB_ID>  (277) 
nan

>  <Standardized_SMILES>  (277) 
N#Cc1cc(Nc2nc(NC3CC3)c3ncc(C#N)n3n2)c(Cl)c(NN2CCOCC2)c1

>  <Name>  (277) 
nan

>  <Pocket>  (277) 
nan

>  <ATP_Site>  (277) 
nan

>  <Peripheral>  (277) 
nan

>  <Num_H_Atoms_ProtBoundConf>  (277) 
nan

>  <Num_Resolved_Atoms>  (277) 
nan

>  <Num_Not_Resolved_Atoms>  (277) 
nan

$$$$
CHEMBL3699236
     RDKit          3D

  0  0  0  0  0  0  0  0  0  0999 V3000
M  V30 BEGIN CTAB
M  V30 COUNTS 54 59 0 0 0
M  V30 BEGIN ATOM
M  V30 1 C 6.309055 0.788315 4.416949 0
M  V30 2 N 5.779200 -0.098364 3.411049 0
M  V30 3 C 6.233833 0.227166 2.053654 0
M  V30 4 C 4.823006 0.233596 1.671808 0
M  V30 5 C 4.405273 0.269063 3.093600 0
M  V30 6 C 4.262662 1.164847 0.684561 0
M  V30 7 N 3.207537 0.181077 0.529105 0
M  V30 8 C 1.832646 0.376046 0.256553 0
M  V30 9 C 1.209145 1.570560 0.062978 0
M  V30 10 C -0.134584 1.704891 -0.200554 0
M  V30 11 C -0.640293 3.015505 -0.379398 0
M  V30 12 N -1.063247 4.059184 -0.516402 0
M  V30 13 C -0.819117 0.476929 -0.253128 0
M  V30 14 C -0.212418 -0.768499 -0.059447 0
M  V30 15 N -1.264717 -1.640348 -0.213734 0
M  V30 16 C -2.346223 -2.484333 -0.373607 0
M  V30 17 N -3.428656 -1.655140 -0.493443 0
M  V30 18 C -4.678958 -2.110506 -0.681865 0
M  V30 19 N -5.883410 -1.365685 -0.809915 0
M  V30 20 C -5.984933 0.053487 -0.720210 0
M  V30 21 C -5.081148 0.873207 -1.651586 0
M  V30 22 C -4.921452 0.928694 -0.165050 0
M  V30 23 C -4.736716 -3.482800 -0.738321 0
M  V30 24 N -5.783186 -4.298181 -0.911797 0
M  V30 25 C -5.376398 -5.573206 -0.900534 0
M  V30 26 C -4.011561 -5.610752 -0.713220 0
M  V30 27 C -3.159644 -6.750532 -0.635775 0
M  V30 28 N -2.484522 -7.671325 -0.583755 0
M  V30 29 N -3.704870 -4.311663 -0.625043 0
M  V30 30 N -2.500005 -3.811781 -0.441266 0
M  V30 31 C 1.156504 -0.802289 0.202497 0
M  V30 32 Cl 1.715951 -2.422170 0.411511 0
M  V30 33 C 4.242259 -0.803034 0.772297 0
M  V30 34 H 5.486563 1.213519 4.999977 0
M  V30 35 H 6.903382 1.635155 4.002746 0
M  V30 36 H 6.899034 0.156696 5.120534 0
M  V30 37 H 6.782734 1.186175 2.066408 0
M  V30 38 H 6.878721 -0.634199 1.719997 0
M  V30 39 H 3.710161 -0.580961 3.361701 0
M  V30 40 H 4.060328 1.247355 3.417433 0
M  V30 41 H 4.897539 1.201555 -0.227205 0
M  V30 42 H 3.954054 2.169312 1.027596 0
M  V30 43 H 1.887817 2.401299 0.139517 0
M  V30 44 H -1.862580 0.759592 -0.473420 0
M  V30 45 H -0.593884 -2.464026 -0.078737 0
M  V30 46 H -6.771310 -1.882156 -0.984575 0
M  V30 47 H -7.009293 0.486560 -0.646483 0
M  V30 48 H -4.325138 0.291961 -2.235674 0
M  V30 49 H -5.506362 1.733997 -2.185769 0
M  V30 50 H -4.063019 0.467854 0.324578 0
M  V30 51 H -5.232106 1.879299 0.357709 0
M  V30 52 H -6.042221 -6.412695 -1.022199 0
M  V30 53 H 3.978135 -1.698271 1.339351 0
M  V30 54 H 4.897389 -0.943435 -0.113300 0
M  V30 END ATOM
M  V30 BEGIN BOND
M  V30 1 1 1 2
M  V30 2 1 2 3
M  V30 3 1 3 4
M  V30 4 1 4 5
M  V30 5 1 4 6
M  V30 6 1 6 7
M  V30 7 1 7 8
M  V30 8 2 8 9
M  V30 9 1 9 10
M  V30 10 1 10 11
M  V30 11 3 11 12
M  V30 12 2 10 13
M  V30 13 1 13 14
M  V30 14 1 14 15
M  V30 15 1 15 16
M  V30 16 1 16 17
M  V30 17 2 17 18
M  V30 18 1 18 19
M  V30 19 1 19 20
M  V30 20 1 20 21
M  V30 21 1 21 22
M  V30 22 1 18 23
M  V30 23 2 23 24
M  V30 24 1 24 25
M  V30 25 2 25 26
M  V30 26 1 26 27
M  V30 27 3 27 28
M  V30 28 1 26 29
M  V30 29 1 29 30
M  V30 30 2 14 31
M  V30 31 1 31 32
M  V30 32 1 7 33
M  V30 33 1 5 2
M  V30 34 1 31 8
M  V30 35 1 33 4
M  V30 36 2 30 16
M  V30 37 1 22 20
M  V30 38 1 29 23
M  V30 39 1 1 34
M  V30 40 1 1 35
M  V30 41 1 1 36
M  V30 42 1 3 37
M  V30 43 1 3 38
M  V30 44 1 5 39
M  V30 45 1 5 40
M  V30 46 1 6 41
M  V30 47 1 6 42
M  V30 48 1 9 43
M  V30 49 1 13 44
M  V30 50 1 15 45
M  V30 51 1 19 46
M  V30 52 1 20 47
M  V30 53 1 21 48
M  V30 54 1 21 49
M  V30 55 1 22 50
M  V30 56 1 22 51
M  V30 57 1 25 52
M  V30 58 1 33 53
M  V30 59 1 33 54
M  V30 END BOND
M  V30 END CTAB
M  END
>  <Dataset>  (278) 
ChEMBL_Kinases

>  <Ligand_Instance>  (278) 
nan

>  <PDB_ID>  (278) 
nan

>  <Standardized_SMILES>  (278) 
CN1CC2(C1)CN(c1cc(C#N)cc(Nc3nc(NC4CC4)c4ncc(C#N)n4n3)c1Cl)C2

>  <Name>  (278) 
nan

>  <Pocket>  (278) 
nan

>  <ATP_Site>  (278) 
nan

>  <Peripheral>  (278) 
nan

>  <Num_H_Atoms_ProtBoundConf>  (278) 
nan

>  <Num_Resolved_Atoms>  (278) 
nan

>  <Num_Not_Resolved_Atoms>  (278) 
nan

$$$$
CHEMBL4566710
     RDKit          3D

  0  0  0  0  0  0  0  0  0  0999 V3000
M  V30 BEGIN CTAB
M  V30 COUNTS 60 64 0 0 0
M  V30 BEGIN ATOM
M  V30 1 C 5.330425 -6.669062 2.704388 0
M  V30 2 C 4.724747 -5.498712 2.006163 0
M  V30 3 N 3.819548 -5.804530 1.063799 0
M  V30 4 O 3.392669 -4.688696 0.555163 0
M  V30 5 C 3.950067 -3.658974 1.092540 0
M  V30 6 C 3.851135 -2.215111 0.913985 0
M  V30 7 C 4.561367 -1.261395 1.616526 0
M  V30 8 C 4.341345 0.072067 1.316822 0
M  V30 9 C 3.441560 0.462285 0.346134 0
M  V30 10 N 3.078816 1.678742 -0.099945 0
M  V30 11 C 2.149359 1.547115 -1.076621 0
M  V30 12 N 1.396533 2.412440 -1.918786 0
M  V30 13 C 0.137340 2.868150 -1.430057 0
M  V30 14 C -0.334109 2.491485 -0.190023 0
M  V30 15 C -1.547787 2.909195 0.318482 0
M  V30 16 C -2.066396 2.508825 1.666939 0
M  V30 17 N -2.810308 1.338186 1.703417 0
M  V30 18 C -3.985172 1.168102 0.955534 0
M  V30 19 C -4.021789 -0.159470 0.259191 0
M  V30 20 N -2.742619 -0.704190 -0.076422 0
M  V30 21 C -2.805514 -1.932364 -0.806000 0
M  V30 22 C -3.340383 -3.081169 0.020959 0
M  V30 23 C -3.346284 -4.310934 -0.893908 0
M  V30 24 F -2.076370 -4.566377 -1.318980 0
M  V30 25 F -3.802132 -5.428252 -0.192226 0
M  V30 26 F -4.165997 -4.137230 -1.984782 0
M  V30 27 C -1.797488 -0.699583 0.999178 0
M  V30 28 C -2.266525 0.127431 2.178863 0
M  V30 29 C -2.325134 3.751697 -0.466411 0
M  V30 30 C -1.834730 4.110059 -1.691204 0
M  V30 31 N -0.650382 3.692952 -2.170138 0
M  V30 32 N 1.943188 0.207198 -1.225855 0
M  V30 33 C 2.723339 -0.478693 -0.365461 0
M  V30 34 C 2.946636 -1.809230 -0.062225 0
M  V30 35 N 4.804599 -4.157822 2.022470 0
M  V30 36 H 4.576453 -7.281256 3.230503 0
M  V30 37 H 5.845654 -7.317595 1.966568 0
M  V30 38 H 6.096854 -6.344830 3.422678 0
M  V30 39 H 5.244216 -1.632105 2.355769 0
M  V30 40 H 4.884957 0.809634 1.854408 0
M  V30 41 H 1.693781 2.738284 -2.864200 0
M  V30 42 H 0.281504 1.845572 0.395273 0
M  V30 43 H -2.606693 3.422765 2.041041 0
M  V30 44 H -1.184249 2.424708 2.373196 0
M  V30 45 H -4.076423 1.944352 0.155432 0
M  V30 46 H -4.908056 1.246989 1.601349 0
M  V30 47 H -4.559172 -0.915972 0.876981 0
M  V30 48 H -4.613788 -0.081090 -0.675886 0
M  V30 49 H -1.840827 -2.153562 -1.264934 0
M  V30 50 H -3.528635 -1.783708 -1.643073 0
M  V30 51 H -2.740096 -3.336570 0.893337 0
M  V30 52 H -4.404330 -2.922419 0.288715 0
M  V30 53 H -1.569725 -1.724091 1.322202 0
M  V30 54 H -0.858967 -0.238918 0.635230 0
M  V30 55 H -3.044056 -0.447410 2.742431 0
M  V30 56 H -1.387990 0.253543 2.848610 0
M  V30 57 H -3.285788 4.152814 -0.189229 0
M  V30 58 H -2.401692 4.773107 -2.359604 0
M  V30 59 H 1.304163 -0.333016 -1.874484 0
M  V30 60 H 2.366029 -2.528323 -0.638954 0
M  V30 END ATOM
M  V30 BEGIN BOND
M  V30 1 1 1 2
M  V30 2 2 2 3
M  V30 3 1 3 4
M  V30 4 1 4 5
M  V30 5 1 5 6
M  V30 6 2 6 7
M  V30 7 1 7 8
M  V30 8 2 8 9
M  V30 9 1 9 10
M  V30 10 2 10 11
M  V30 11 1 11 12
M  V30 12 1 12 13
M  V30 13 2 13 14
M  V30 14 1 14 15
M  V30 15 1 15 16
M  V30 16 1 16 17
M  V30 17 1 17 18
M  V30 18 1 18 19
M  V30 19 1 19 20
M  V30 20 1 20 21
M  V30 21 1 21 22
M  V30 22 1 22 23
M  V30 23 1 23 24
M  V30 24 1 23 25
M  V30 25 1 23 26
M  V30 26 1 20 27
M  V30 27 1 27 28
M  V30 28 2 15 29
M  V30 29 1 29 30
M  V30 30 2 30 31
M  V30 31 1 11 32
M  V30 32 1 32 33
M  V30 33 2 33 34
M  V30 34 2 5 35
M  V30 35 1 35 2
M  V30 36 1 34 6
M  V30 37 1 33 9
M  V30 38 1 31 13
M  V30 39 1 28 17
M  V30 40 1 1 36
M  V30 41 1 1 37
M  V30 42 1 1 38
M  V30 43 1 7 39
M  V30 44 1 8 40
M  V30 45 1 12 41
M  V30 46 1 14 42
M  V30 47 1 16 43
M  V30 48 1 16 44
M  V30 49 1 18 45
M  V30 50 1 18 46
M  V30 51 1 19 47
M  V30 52 1 19 48
M  V30 53 1 21 49
M  V30 54 1 21 50
M  V30 55 1 22 51
M  V30 56 1 22 52
M  V30 57 1 27 53
M  V30 58 1 27 54
M  V30 59 1 28 55
M  V30 60 1 28 56
M  V30 61 1 29 57
M  V30 62 1 30 58
M  V30 63 1 32 59
M  V30 64 1 34 60
M  V30 END BOND
M  V30 END CTAB
M  END
>  <Dataset>  (279) 
ChEMBL_Kinases

>  <Ligand_Instance>  (279) 
nan

>  <PDB_ID>  (279) 
nan

>  <Standardized_SMILES>  (279) 
Cc1noc(-c2ccc3nc(Nc4cc(CN5CCN(CCC(F)(F)F)CC5)ccn4)[nH]c3c2)n1

>  <Name>  (279) 
nan

>  <Pocket>  (279) 
nan

>  <ATP_Site>  (279) 
nan

>  <Peripheral>  (279) 
nan

>  <Num_H_Atoms_ProtBoundConf>  (279) 
nan

>  <Num_Resolved_Atoms>  (279) 
nan

>  <Num_Not_Resolved_Atoms>  (279) 
nan

$$$$
CHEMBL235641
     RDKit          3D

  0  0  0  0  0  0  0  0  0  0999 V3000
M  V30 BEGIN CTAB
M  V30 COUNTS 27 30 0 0 0
M  V30 BEGIN ATOM
M  V30 1 O -1.379924 -2.119270 2.501510 0
M  V30 2 C -0.644720 -1.120273 2.278470 0
M  V30 3 N -0.303849 -0.080717 3.192667 0
M  V30 4 C 0.535789 0.844967 2.553861 0
M  V30 5 C 1.218202 2.020431 2.813434 0
M  V30 6 C 2.010762 2.739750 1.964262 0
M  V30 7 C 2.187183 2.280048 0.676667 0
M  V30 8 N 2.881154 2.766484 -0.309307 0
M  V30 9 C 3.036693 2.402584 -1.358114 0
M  V30 10 S 1.971921 0.809293 -1.341857 0
M  V30 11 C 1.536337 1.119780 0.359988 0
M  V30 12 C 0.719806 0.405158 1.279786 0
M  V30 13 C 0.004105 -0.847273 1.003429 0
M  V30 14 C -0.048780 -1.576811 -0.110586 0
M  V30 15 C -0.844470 -2.817792 -0.088336 0
M  V30 16 C -1.682260 -2.957119 -1.209121 0
M  V30 17 N -2.334516 -4.155670 -1.101410 0
M  V30 18 C -1.942641 -4.746734 0.009445 0
M  V30 19 N -1.059243 -3.932657 0.592822 0
M  V30 20 H -0.603370 0.013767 4.177423 0
M  V30 21 H 1.096274 2.410138 3.843891 0
M  V30 22 H 2.469106 3.639693 2.362586 0
M  V30 23 H 3.617875 2.686746 -2.401407 0
M  V30 24 H 0.487320 -1.231977 -0.979758 0
M  V30 25 H -1.933481 -2.375262 -2.109160 0
M  V30 26 H -3.036244 -4.655763 -1.695815 0
M  V30 27 H -2.113367 -5.665886 0.572862 0
M  V30 END ATOM
M  V30 BEGIN BOND
M  V30 1 2 1 2
M  V30 2 1 2 3
M  V30 3 1 3 4
M  V30 4 2 4 5
M  V30 5 1 5 6
M  V30 6 2 6 7
M  V30 7 1 7 8
M  V30 8 2 8 9
M  V30 9 1 9 10
M  V30 10 1 10 11
M  V30 11 2 11 12
M  V30 12 1 12 13
M  V30 13 2 13 14
M  V30 14 1 14 15
M  V30 15 2 15 16
M  V30 16 1 16 17
M  V30 17 1 17 18
M  V30 18 2 18 19
M  V30 19 1 13 2
M  V30 20 1 19 15
M  V30 21 1 12 4
M  V30 22 1 11 7
M  V30 23 1 3 20
M  V30 24 1 5 21
M  V30 25 1 6 22
M  V30 26 1 9 23
M  V30 27 1 14 24
M  V30 28 1 16 25
M  V30 29 1 17 26
M  V30 30 1 18 27
M  V30 END BOND
M  V30 END CTAB
M  END
>  <Dataset>  (280) 
ChEMBL_Kinases

>  <Ligand_Instance>  (280) 
nan

>  <PDB_ID>  (280) 
nan

>  <Standardized_SMILES>  (280) 
O=C1Nc2ccc3ncsc3c2/C1=C/c1c[nH]cn1

>  <Name>  (280) 
nan

>  <Pocket>  (280) 
nan

>  <ATP_Site>  (280) 
nan

>  <Peripheral>  (280) 
nan

>  <Num_H_Atoms_ProtBoundConf>  (280) 
nan

>  <Num_Resolved_Atoms>  (280) 
nan

>  <Num_Not_Resolved_Atoms>  (280) 
nan

$$$$
CHEMBL235658
     RDKit          3D

  0  0  0  0  0  0  0  0  0  0999 V3000
M  V30 BEGIN CTAB
M  V30 COUNTS 46 48 0 0 0
M  V30 BEGIN ATOM
M  V30 1 O -1.372800 -2.892324 -0.981301 0
M  V30 2 C -1.080542 -2.878512 0.242736 0
M  V30 3 C 0.362728 -2.529004 0.336236 0
M  V30 4 C 0.942986 -2.322048 -1.031462 0
M  V30 5 C 2.415127 -1.962052 -1.010910 0
M  V30 6 C 2.581191 -0.699380 -0.244598 0
M  V30 7 C 2.497499 0.464128 -1.014320 0
M  V30 8 C 2.641931 1.700737 -0.377750 0
M  V30 9 C 2.863094 1.723591 0.995858 0
M  V30 10 C 2.993208 3.076608 1.518124 0
M  V30 11 C 2.111691 4.094553 1.137272 0
M  V30 12 C 2.348985 5.341321 1.711232 0
M  V30 13 C 3.376028 5.573008 2.594433 0
M  V30 14 C 4.226368 4.555346 2.950741 0
M  V30 15 C 4.029743 3.296477 2.405161 0
M  V30 16 F 4.887600 2.314168 2.778375 0
M  V30 17 C 2.942336 0.564770 1.736848 0
M  V30 18 C 2.800353 -0.657104 1.112417 0
M  V30 19 N -1.849578 -3.121995 1.404021 0
M  V30 20 C -3.198629 -3.440446 1.142105 0
M  V30 21 C -4.077105 -2.385893 1.084818 0
M  V30 22 C -5.427927 -2.649381 0.827515 0
M  V30 23 C -5.801855 -3.972211 0.644092 0
M  V30 24 O -7.154149 -4.258151 0.384516 0
M  V30 25 C -4.937224 -5.046524 0.697209 0
M  V30 26 C -3.597321 -4.769435 0.953845 0
M  V30 27 H 0.907496 -3.251061 0.953353 0
M  V30 28 H 0.388889 -1.556199 0.893618 0
M  V30 29 H 0.372270 -1.489051 -1.490672 0
M  V30 30 H 0.752704 -3.232237 -1.620110 0
M  V30 31 H 2.750611 -1.877735 -2.049516 0
M  V30 32 H 3.006275 -2.740874 -0.492169 0
M  V30 33 H 2.323619 0.437046 -2.092345 0
M  V30 34 H 2.570587 2.576551 -1.009065 0
M  V30 35 H 1.309988 3.895614 0.442240 0
M  V30 36 H 1.666567 6.114015 1.411647 0
M  V30 37 H 3.514904 6.550086 3.007041 0
M  V30 38 H 5.027894 4.773540 3.651599 0
M  V30 39 H 3.116370 0.670260 2.799104 0
M  V30 40 H 2.858596 -1.568330 1.669748 0
M  V30 41 H -1.335219 -3.038733 2.311472 0
M  V30 42 H -3.759700 -1.370172 1.230896 0
M  V30 43 H -6.162675 -1.853412 0.771878 0
M  V30 44 H -7.759003 -3.558755 -0.045038 0
M  V30 45 H -5.303645 -6.056376 0.543176 0
M  V30 46 H -2.881967 -5.590895 1.003833 0
M  V30 END ATOM
M  V30 BEGIN BOND
M  V30 1 2 1 2
M  V30 2 1 2 3
M  V30 3 1 3 4
M  V30 4 1 4 5
M  V30 5 1 5 6
M  V30 6 2 6 7
M  V30 7 1 7 8
M  V30 8 2 8 9
M  V30 9 1 9 10
M  V30 10 2 10 11
M  V30 11 1 11 12
M  V30 12 2 12 13
M  V30 13 1 13 14
M  V30 14 2 14 15
M  V30 15 1 15 16
M  V30 16 1 9 17
M  V30 17 2 17 18
M  V30 18 1 2 19
M  V30 19 1 19 20
M  V30 20 2 20 21
M  V30 21 1 21 22
M  V30 22 2 22 23
M  V30 23 1 23 24
M  V30 24 1 23 25
M  V30 25 2 25 26
M  V30 26 1 18 6
M  V30 27 1 26 20
M  V30 28 1 15 10
M  V30 29 1 3 27
M  V30 30 1 3 28
M  V30 31 1 4 29
M  V30 32 1 4 30
M  V30 33 1 5 31
M  V30 34 1 5 32
M  V30 35 1 7 33
M  V30 36 1 8 34
M  V30 37 1 11 35
M  V30 38 1 12 36
M  V30 39 1 13 37
M  V30 40 1 14 38
M  V30 41 1 17 39
M  V30 42 1 18 40
M  V30 43 1 19 41
M  V30 44 1 21 42
M  V30 45 1 22 43
M  V30 46 1 24 44
M  V30 47 1 25 45
M  V30 48 1 26 46
M  V30 END BOND
M  V30 END CTAB
M  END
>  <Dataset>  (281) 
ChEMBL_Kinases

>  <Ligand_Instance>  (281) 
nan

>  <PDB_ID>  (281) 
nan

>  <Standardized_SMILES>  (281) 
O=C(CCCc1ccc(-c2ccccc2F)cc1)Nc1ccc(O)cc1

>  <Name>  (281) 
nan

>  <Pocket>  (281) 
nan

>  <ATP_Site>  (281) 
nan

>  <Peripheral>  (281) 
nan

>  <Num_H_Atoms_ProtBoundConf>  (281) 
nan

>  <Num_Resolved_Atoms>  (281) 
nan

>  <Num_Not_Resolved_Atoms>  (281) 
nan

$$$$
CHEMBL4471448
     RDKit          3D

  0  0  0  0  0  0  0  0  0  0999 V3000
M  V30 BEGIN CTAB
M  V30 COUNTS 65 68 0 0 0
M  V30 BEGIN ATOM
M  V30 1 C 5.504654 1.302286 3.533275 0
M  V30 2 C 4.307808 0.342442 3.605537 0
M  V30 3 C 4.759395 -0.889928 4.315876 0
M  V30 4 C 3.893468 0.113950 2.182555 0
M  V30 5 C 2.727662 -0.885952 2.148867 0
M  V30 6 N 1.904932 -0.650070 0.978379 0
M  V30 7 C 1.807690 -1.503312 -0.124033 0
M  V30 8 O 2.444352 -2.607379 -0.238579 0
M  V30 9 C 0.913269 -1.100159 -1.218167 0
M  V30 10 C -0.015020 -0.124446 -1.053866 0
M  V30 11 C -0.843411 0.274487 -2.095032 0
M  V30 12 C -0.744677 -0.315293 -3.335147 0
M  V30 13 N -1.591345 0.011567 -4.431322 0
M  V30 14 C -2.730550 0.784155 -3.988187 0
M  V30 15 N -3.100145 2.078433 -4.035144 0
M  V30 16 C -4.290612 2.457461 -3.465840 0
M  V30 17 C -5.035790 1.468501 -2.874590 0
M  V30 18 Br -6.677251 2.103500 -2.111658 0
M  V30 19 C -4.705527 0.137386 -2.798123 0
M  V30 20 N -5.552050 -0.802184 -2.142179 0
M  V30 21 C -5.290723 -2.172399 -1.984590 0
M  V30 22 C -4.193949 -2.863127 -2.448195 0
M  V30 23 C -3.947663 -4.201712 -2.264659 0
M  V30 24 C -4.891428 -4.944011 -1.540455 0
M  V30 25 C -6.008558 -4.306222 -1.052423 0
M  V30 26 C -6.172856 -2.960048 -1.284968 0
M  V30 27 Cl -7.656026 -2.284727 -0.586350 0
M  V30 28 N -3.530233 -0.106555 -3.386449 0
M  V30 29 C 0.221015 -1.319529 -3.482706 0
M  V30 30 C 1.054126 -1.731697 -2.463222 0
M  V30 31 C 1.914963 -0.851577 3.414350 0
M  V30 32 C 1.941298 0.465155 4.134555 0
M  V30 33 C 1.440773 0.172928 5.558663 0
M  V30 34 C 0.903971 1.382161 3.531606 0
M  V30 35 N 3.243135 1.040548 4.259960 0
M  V30 36 O 3.210682 2.306817 3.720413 0 RAD=2 VAL=1
M  V30 37 H 5.734687 1.542271 4.588268 0
M  V30 38 H 5.195046 2.227569 3.054273 0
M  V30 39 H 6.381163 0.835071 3.050909 0
M  V30 40 H 4.664494 -1.813873 3.708952 0
M  V30 41 H 4.240269 -1.056244 5.282457 0
M  V30 42 H 5.850200 -0.855338 4.606262 0
M  V30 43 H 4.765806 -0.276024 1.627997 0
M  V30 44 H 3.586050 1.097044 1.772523 0
M  V30 45 H 3.234250 -1.870955 2.109502 0
M  V30 46 H 1.416706 0.257752 1.122435 0
M  V30 47 H -0.175615 0.396771 -0.122733 0
M  V30 48 H -1.568779 1.043876 -1.960754 0
M  V30 49 H -1.371718 -0.286054 -5.395232 0
M  V30 50 H -4.519868 3.500483 -3.541426 0
M  V30 51 H -6.432333 -0.421543 -1.753457 0
M  V30 52 H -3.430652 -2.357072 -3.010413 0
M  V30 53 H -3.056622 -4.692547 -2.654649 0
M  V30 54 H -4.639238 -6.011657 -1.423754 0
M  V30 55 H -6.698557 -4.929801 -0.500467 0
M  V30 56 H 0.283455 -1.769754 -4.477475 0
M  V30 57 H 1.772985 -2.516447 -2.670367 0
M  V30 58 H 0.857063 -1.059501 3.141169 0
M  V30 59 H 2.205791 -1.633571 4.141060 0
M  V30 60 H 1.790574 1.045784 6.174649 0
M  V30 61 H 0.327049 0.202080 5.615423 0
M  V30 62 H 1.881409 -0.726221 5.980645 0
M  V30 63 H 0.112802 0.715039 3.081885 0
M  V30 64 H 1.309724 2.022353 2.750334 0
M  V30 65 H 0.387419 1.961256 4.328620 0
M  V30 END ATOM
M  V30 BEGIN BOND
M  V30 1 1 1 2
M  V30 2 1 2 3
M  V30 3 1 2 4
M  V30 4 1 4 5
M  V30 5 1 5 6
M  V30 6 1 6 7
M  V30 7 2 7 8
M  V30 8 1 7 9
M  V30 9 2 9 10
M  V30 10 1 10 11
M  V30 11 2 11 12
M  V30 12 1 12 13
M  V30 13 1 13 14
M  V30 14 2 14 15
M  V30 15 1 15 16
M  V30 16 2 16 17
M  V30 17 1 17 18
M  V30 18 1 17 19
M  V30 19 1 19 20
M  V30 20 1 20 21
M  V30 21 2 21 22
M  V30 22 1 22 23
M  V30 23 2 23 24
M  V30 24 1 24 25
M  V30 25 2 25 26
M  V30 26 1 26 27
M  V30 27 2 19 28
M  V30 28 1 12 29
M  V30 29 2 29 30
M  V30 30 1 5 31
M  V30 31 1 31 32
M  V30 32 1 32 33
M  V30 33 1 32 34
M  V30 34 1 32 35
M  V30 35 1 35 36
M  V30 36 1 35 2
M  V30 37 1 30 9
M  V30 38 1 28 14
M  V30 39 1 26 21
M  V30 40 1 1 37
M  V30 41 1 1 38
M  V30 42 1 1 39
M  V30 43 1 3 40
M  V30 44 1 3 41
M  V30 45 1 3 42
M  V30 46 1 4 43
M  V30 47 1 4 44
M  V30 48 1 5 45
M  V30 49 1 6 46
M  V30 50 1 10 47
M  V30 51 1 11 48
M  V30 52 1 13 49
M  V30 53 1 16 50
M  V30 54 1 20 51
M  V30 55 1 22 52
M  V30 56 1 23 53
M  V30 57 1 24 54
M  V30 58 1 25 55
M  V30 59 1 29 56
M  V30 60 1 30 57
M  V30 61 1 31 58
M  V30 62 1 31 59
M  V30 63 1 33 60
M  V30 64 1 33 61
M  V30 65 1 33 62
M  V30 66 1 34 63
M  V30 67 1 34 64
M  V30 68 1 34 65
M  V30 END BOND
M  V30 END CTAB
M  END
>  <Dataset>  (282) 
ChEMBL_Kinases

>  <Ligand_Instance>  (282) 
nan

>  <PDB_ID>  (282) 
nan

>  <Standardized_SMILES>  (282) 
CC1(C)CC(NC(=O)c2ccc(Nc3ncc(Br)c(Nc4ccccc4Cl)n3)cc2)CC(C)(C)N1[O]

>  <Name>  (282) 
nan

>  <Pocket>  (282) 
nan

>  <ATP_Site>  (282) 
nan

>  <Peripheral>  (282) 
nan

>  <Num_H_Atoms_ProtBoundConf>  (282) 
nan

>  <Num_Resolved_Atoms>  (282) 
nan

>  <Num_Not_Resolved_Atoms>  (282) 
nan

$$$$
CHEMBL3699235
     RDKit          3D

  0  0  0  0  0  0  0  0  0  0999 V3000
M  V30 BEGIN CTAB
M  V30 COUNTS 49 53 0 0 0
M  V30 BEGIN ATOM
M  V30 1 N 3.232830 -2.721520 3.106645 0
M  V30 2 C 2.236545 -2.503416 2.567263 0
M  V30 3 C 1.005807 -2.216123 1.888403 0
M  V30 4 C 0.774032 -1.108541 1.099738 0
M  V30 5 C -0.416240 -0.850597 0.455450 0
M  V30 6 N -0.490599 0.305007 -0.331984 0
M  V30 7 C 0.375855 1.392160 -0.531787 0
M  V30 8 N 1.518624 1.647526 0.123219 0
M  V30 9 C 2.313220 2.694953 -0.134533 0
M  V30 10 N 3.508382 2.990322 0.551444 0
M  V30 11 C 4.058468 2.286544 1.660301 0
M  V30 12 C 4.268165 0.821424 1.635663 0
M  V30 13 C 3.263938 1.427297 2.579521 0
M  V30 14 C 1.865926 3.517393 -1.146634 0
M  V30 15 N 2.400707 4.640103 -1.661381 0
M  V30 16 C 1.618554 5.113342 -2.639413 0
M  V30 17 C 0.540906 4.264301 -2.758455 0
M  V30 18 C -0.559746 4.368461 -3.674349 0
M  V30 19 N -1.444257 4.442726 -4.432426 0
M  V30 20 N 0.744348 3.315920 -1.828762 0
M  V30 21 N 0.035166 2.260032 -1.499891 0
M  V30 22 C -1.436992 -1.797372 0.634801 0
M  V30 23 Cl -2.921751 -1.426542 -0.213452 0
M  V30 24 C -1.253499 -2.904337 1.403458 0
M  V30 25 N -2.349758 -3.833977 1.555927 0
M  V30 26 C -2.101381 -5.110093 2.259885 0
M  V30 27 C -3.322162 -5.931358 1.802780 0
M  V30 28 C -4.417202 -4.901570 1.678237 0
M  V30 29 O -5.459808 -5.341664 0.866642 0
M  V30 30 C -3.716088 -3.700235 1.110978 0
M  V30 31 C -0.042314 -3.112361 2.025381 0
M  V30 32 H 1.656158 -0.487633 1.052052 0
M  V30 33 H -1.413481 0.305194 -0.865310 0
M  V30 34 H 4.059883 3.830981 0.197878 0
M  V30 35 H 4.883828 2.836291 2.212954 0
M  V30 36 H 3.938932 0.196648 0.778595 0
M  V30 37 H 5.148133 0.373294 2.140813 0
M  V30 38 H 3.503125 1.408124 3.683449 0
M  V30 39 H 2.177382 1.332512 2.425528 0
M  V30 40 H 1.749543 5.991745 -3.260122 0
M  V30 41 H -2.087769 -5.009844 3.340044 0
M  V30 42 H -1.186459 -5.569978 1.893358 0
M  V30 43 H -3.562982 -6.681819 2.593492 0
M  V30 44 H -3.123525 -6.392157 0.809772 0
M  V30 45 H -4.800496 -4.641017 2.707344 0
M  V30 46 H -6.333810 -5.078226 1.275074 0
M  V30 47 H -3.783698 -3.800153 -0.012031 0
M  V30 48 H -4.178920 -2.750152 1.474126 0
M  V30 49 H 0.117383 -3.999063 2.645916 0
M  V30 END ATOM
M  V30 BEGIN BOND
M  V30 1 3 1 2
M  V30 2 1 2 3
M  V30 3 2 3 4
M  V30 4 1 4 5
M  V30 5 1 5 6
M  V30 6 1 6 7
M  V30 7 1 7 8
M  V30 8 2 8 9
M  V30 9 1 9 10
M  V30 10 1 10 11
M  V30 11 1 11 12
M  V30 12 1 12 13
M  V30 13 1 9 14
M  V30 14 2 14 15
M  V30 15 1 15 16
M  V30 16 2 16 17
M  V30 17 1 17 18
M  V30 18 3 18 19
M  V30 19 1 17 20
M  V30 20 1 20 21
M  V30 21 2 5 22
M  V30 22 1 22 23
M  V30 23 1 22 24
M  V30 24 1 24 25
M  V30 25 1 25 26
M  V30 26 1 26 27
M  V30 27 1 27 28
M  V30 28 1 28 29
M  V30 29 1 28 30
M  V30 30 2 24 31
M  V30 31 1 31 3
M  V30 32 2 21 7
M  V30 33 1 30 25
M  V30 34 1 13 11
M  V30 35 1 20 14
M  V30 36 1 4 32
M  V30 37 1 6 33
M  V30 38 1 10 34
M  V30 39 1 11 35
M  V30 40 1 12 36
M  V30 41 1 12 37
M  V30 42 1 13 38
M  V30 43 1 13 39
M  V30 44 1 16 40
M  V30 45 1 26 41
M  V30 46 1 26 42
M  V30 47 1 27 43
M  V30 48 1 27 44
M  V30 49 1 28 45
M  V30 50 1 29 46
M  V30 51 1 30 47
M  V30 52 1 30 48
M  V30 53 1 31 49
M  V30 END BOND
M  V30 END CTAB
M  END
>  <Dataset>  (283) 
ChEMBL_Kinases

>  <Ligand_Instance>  (283) 
nan

>  <PDB_ID>  (283) 
nan

>  <Standardized_SMILES>  (283) 
N#Cc1cc(Nc2nc(NC3CC3)c3ncc(C#N)n3n2)c(Cl)c(N2CCC(O)C2)c1

>  <Name>  (283) 
nan

>  <Pocket>  (283) 
nan

>  <ATP_Site>  (283) 
nan

>  <Peripheral>  (283) 
nan

>  <Num_H_Atoms_ProtBoundConf>  (283) 
nan

>  <Num_Resolved_Atoms>  (283) 
nan

>  <Num_Not_Resolved_Atoms>  (283) 
nan

$$$$
CHEMBL237347
     RDKit          3D

  0  0  0  0  0  0  0  0  0  0999 V3000
M  V30 BEGIN CTAB
M  V30 COUNTS 39 41 0 0 0
M  V30 BEGIN ATOM
M  V30 1 C -1.718839 -3.066534 -1.716066 0
M  V30 2 C -0.506546 -3.131823 -0.824385 0
M  V30 3 C -0.061470 -4.333752 -0.316771 0
M  V30 4 C 1.038481 -4.455478 0.501823 0
M  V30 5 C 1.730147 -3.305825 0.828931 0
M  V30 6 O 2.842572 -3.356941 1.645791 0
M  V30 7 C 1.283324 -2.124927 0.323264 0
M  V30 8 C 0.186053 -1.988612 -0.495609 0
M  V30 9 N -0.310108 -0.775558 -1.041998 0
M  V30 10 C 0.099771 0.576236 -0.928248 0
M  V30 11 C 0.514469 1.264035 -2.057873 0
M  V30 12 C 0.933827 2.579224 -2.080107 0
M  V30 13 N 0.940764 3.247248 -0.913121 0
M  V30 14 C 0.552465 2.648019 0.222041 0
M  V30 15 C 0.561361 3.359504 1.415825 0
M  V30 16 C 0.145267 2.709390 2.575625 0
M  V30 17 C -0.277759 1.387120 2.598562 0
M  V30 18 S -0.768634 0.717432 4.133995 0
M  V30 19 C 0.673324 0.006339 4.897138 0
M  V30 20 O -1.686669 -0.448354 3.799700 0
M  V30 21 O -1.442867 1.711623 5.007048 0
M  V30 22 C -0.269132 0.722132 1.390484 0
M  V30 23 C 0.136716 1.333442 0.223494 0
M  V30 24 H -2.103778 -4.101556 -1.824179 0
M  V30 25 H -2.527063 -2.511702 -1.194010 0
M  V30 26 H -1.489267 -2.709744 -2.723356 0
M  V30 27 H -0.611152 -5.239463 -0.577944 0
M  V30 28 H 1.359811 -5.429056 0.884505 0
M  V30 29 H 3.564911 -2.647372 1.626519 0
M  V30 30 H 1.819601 -1.208832 0.573102 0
M  V30 31 H -1.140644 -0.746517 -1.667612 0
M  V30 32 H 0.526850 0.762609 -3.035105 0
M  V30 33 H 1.245447 3.055833 -3.001012 0
M  V30 34 H 0.876188 4.382994 1.466915 0
M  V30 35 H 0.163332 3.295503 3.500611 0
M  V30 36 H 1.257862 -0.518063 4.110948 0
M  V30 37 H 1.303631 0.772904 5.373459 0
M  V30 38 H 0.351340 -0.772513 5.626829 0
M  V30 39 H -0.606623 -0.299769 1.416899 0
M  V30 END ATOM
M  V30 BEGIN BOND
M  V30 1 1 1 2
M  V30 2 2 2 3
M  V30 3 1 3 4
M  V30 4 2 4 5
M  V30 5 1 5 6
M  V30 6 1 5 7
M  V30 7 2 7 8
M  V30 8 1 8 9
M  V30 9 1 9 10
M  V30 10 2 10 11
M  V30 11 1 11 12
M  V30 12 2 12 13
M  V30 13 1 13 14
M  V30 14 2 14 15
M  V30 15 1 15 16
M  V30 16 2 16 17
M  V30 17 1 17 18
M  V30 18 1 18 19
M  V30 19 2 18 20
M  V30 20 2 18 21
M  V30 21 1 17 22
M  V30 22 2 22 23
M  V30 23 1 8 2
M  V30 24 1 23 10
M  V30 25 1 23 14
M  V30 26 1 1 24
M  V30 27 1 1 25
M  V30 28 1 1 26
M  V30 29 1 3 27
M  V30 30 1 4 28
M  V30 31 1 6 29
M  V30 32 1 7 30
M  V30 33 1 9 31
M  V30 34 1 11 32
M  V30 35 1 12 33
M  V30 36 1 15 34
M  V30 37 1 16 35
M  V30 38 1 19 36
M  V30 39 1 19 37
M  V30 40 1 19 38
M  V30 41 1 22 39
M  V30 END BOND
M  V30 END CTAB
M  END
>  <Dataset>  (284) 
ChEMBL_Kinases

>  <Ligand_Instance>  (284) 
nan

>  <PDB_ID>  (284) 
nan

>  <Standardized_SMILES>  (284) 
Cc1ccc(O)cc1Nc1ccnc2ccc(S(C)(=O)=O)cc12

>  <Name>  (284) 
GW559768X

>  <Pocket>  (284) 
nan

>  <ATP_Site>  (284) 
nan

>  <Peripheral>  (284) 
nan

>  <Num_H_Atoms_ProtBoundConf>  (284) 
nan

>  <Num_Resolved_Atoms>  (284) 
nan

>  <Num_Not_Resolved_Atoms>  (284) 
nan

$$$$
CHEMBL3699234
     RDKit          3D

  0  0  0  0  0  0  0  0  0  0999 V3000
M  V30 BEGIN CTAB
M  V30 COUNTS 42 46 0 0 0
M  V30 BEGIN ATOM
M  V30 1 C 1.141696 -5.750699 3.199833 0
M  V30 2 N 2.097957 -4.890456 2.511048 0
M  V30 3 N 3.432217 -5.043099 2.487837 0
M  V30 4 C 3.997959 -4.067320 1.755180 0
M  V30 5 C 5.408541 -3.857423 1.475262 0
M  V30 6 N 6.543586 -3.708141 1.246153 0
M  V30 7 C 2.975487 -3.263379 1.295527 0
M  V30 8 C 2.950052 -2.129343 0.510157 0
M  V30 9 C 1.709307 -1.543971 0.224225 0
M  V30 10 N 1.592744 -0.381019 -0.586483 0
M  V30 11 C 0.379597 0.310655 -0.856256 0
M  V30 12 N 0.206201 1.348617 -0.020036 0
M  V30 13 C -0.862898 2.159851 -0.064406 0
M  V30 14 N -1.019306 3.274937 0.839232 0
M  V30 15 C 0.061599 3.436311 1.776081 0
M  V30 16 C 0.332744 2.350153 2.749264 0
M  V30 17 C -0.108318 3.746101 3.194089 0
M  V30 18 C -1.818733 1.870353 -1.047820 0
M  V30 19 N -2.972239 2.461179 -1.359333 0
M  V30 20 C -3.546454 1.797559 -2.405500 0
M  V30 21 C -2.673222 0.751540 -2.726917 0
M  V30 22 C -2.901480 -0.197573 -3.779989 0
M  V30 23 N -3.076038 -0.950932 -4.638155 0
M  V30 24 N -1.624515 0.816852 -1.883199 0
M  V30 25 N -0.559694 0.065099 -1.786950 0
M  V30 26 C 0.505714 -2.072753 0.709057 0
M  V30 27 C 0.528280 -3.207108 1.494560 0
M  V30 28 C 1.769995 -3.786414 1.775835 0
M  V30 29 H 0.209450 -5.164506 3.338423 0
M  V30 30 H 1.511695 -6.044840 4.197265 0
M  V30 31 H 0.936065 -6.629413 2.550208 0
M  V30 32 H 3.841892 -1.677200 0.108926 0
M  V30 33 H 2.479053 -0.015958 -1.011598 0
M  V30 34 H -1.886845 3.841889 0.722803 0
M  V30 35 H 0.985498 3.856110 1.282726 0
M  V30 36 H -0.417438 1.542495 2.929417 0
M  V30 37 H 1.380496 2.033731 3.004511 0
M  V30 38 H -1.088759 3.876023 3.675482 0
M  V30 39 H 0.718968 4.327468 3.698815 0
M  V30 40 H -4.475874 1.985736 -2.923915 0
M  V30 41 H -0.437413 -1.594858 0.468831 0
M  V30 42 H -0.362676 -3.668798 1.901524 0
M  V30 END ATOM
M  V30 BEGIN BOND
M  V30 1 1 1 2
M  V30 2 1 2 3
M  V30 3 2 3 4
M  V30 4 1 4 5
M  V30 5 3 5 6
M  V30 6 1 4 7
M  V30 7 2 7 8
M  V30 8 1 8 9
M  V30 9 1 9 10
M  V30 10 1 10 11
M  V30 11 1 11 12
M  V30 12 2 12 13
M  V30 13 1 13 14
M  V30 14 1 14 15
M  V30 15 1 15 16
M  V30 16 1 16 17
M  V30 17 1 13 18
M  V30 18 2 18 19
M  V30 19 1 19 20
M  V30 20 2 20 21
M  V30 21 1 21 22
M  V30 22 3 22 23
M  V30 23 1 21 24
M  V30 24 1 24 25
M  V30 25 2 9 26
M  V30 26 1 26 27
M  V30 27 2 27 28
M  V30 28 1 28 2
M  V30 29 1 28 7
M  V30 30 2 25 11
M  V30 31 1 17 15
M  V30 32 1 24 18
M  V30 33 1 1 29
M  V30 34 1 1 30
M  V30 35 1 1 31
M  V30 36 1 8 32
M  V30 37 1 10 33
M  V30 38 1 14 34
M  V30 39 1 15 35
M  V30 40 1 16 36
M  V30 41 1 16 37
M  V30 42 1 17 38
M  V30 43 1 17 39
M  V30 44 1 20 40
M  V30 45 1 26 41
M  V30 46 1 27 42
M  V30 END BOND
M  V30 END CTAB
M  END
>  <Dataset>  (285) 
ChEMBL_Kinases

>  <Ligand_Instance>  (285) 
nan

>  <PDB_ID>  (285) 
nan

>  <Standardized_SMILES>  (285) 
Cn1nc(C#N)c2cc(Nc3nc(NC4CC4)c4ncc(C#N)n4n3)ccc21

>  <Name>  (285) 
nan

>  <Pocket>  (285) 
nan

>  <ATP_Site>  (285) 
nan

>  <Peripheral>  (285) 
nan

>  <Num_H_Atoms_ProtBoundConf>  (285) 
nan

>  <Num_Resolved_Atoms>  (285) 
nan

>  <Num_Not_Resolved_Atoms>  (285) 
nan

$$$$
CHEMBL4470937
     RDKit          3D

  0  0  0  0  0  0  0  0  0  0999 V3000
M  V30 BEGIN CTAB
M  V30 COUNTS 133 137 0 0 0
M  V30 BEGIN ATOM
M  V30 1 C -5.982493 5.337797 1.447293 0
M  V30 2 C -6.203419 5.167049 -0.004869 0
M  V30 3 N -7.434987 5.179563 -0.430736 0
M  V30 4 C -7.790529 5.027994 -1.572459 0
M  V30 5 S -6.151987 4.805249 -2.431790 0
M  V30 6 C -5.196614 4.980629 -0.864961 0
M  V30 7 C -3.771756 4.878317 -0.853366 0
M  V30 8 C -2.878152 5.065562 0.145559 0
M  V30 9 C -1.517894 4.895046 0.085446 0
M  V30 10 C -0.930565 4.496152 -1.072457 0
M  V30 11 C 0.513059 4.262776 -1.228088 0 CFG=2
M  V30 12 C 0.815779 4.104320 -2.725902 0
M  V30 13 N 0.925551 3.097247 -0.482104 0
M  V30 14 C 2.082727 2.790914 0.356099 0
M  V30 15 O 2.741708 3.843446 0.306020 0
M  V30 16 C 1.992626 1.437763 0.866844 0 CFG=2
M  V30 17 C 1.193650 1.344840 2.158120 0
M  V30 18 C 1.447712 -0.151649 2.447309 0 CFG=1
M  V30 19 O 0.968463 -0.772594 1.288625 0
M  V30 20 C 2.979363 -0.110429 2.392238 0
M  V30 21 N 3.208995 0.771988 1.229575 0
M  V30 22 C 4.257672 1.038252 0.343921 0
M  V30 23 O 4.477445 1.840535 -0.591482 0
M  V30 24 C 5.613522 0.611880 -0.045316 0 CFG=1
M  V30 25 N 6.163791 1.373107 -1.142877 0
M  V30 26 C 6.067512 0.911138 -2.500268 0
M  V30 27 O 5.436091 -0.195210 -2.442440 0
M  V30 28 C 6.065126 0.592532 -3.963203 0
M  V30 29 C 4.890191 -0.371926 -4.173485 0
M  V30 30 C 3.622169 0.324931 -3.871917 0
M  V30 31 C 2.390408 -0.627396 -3.842626 0
M  V30 32 C 2.566990 -1.569731 -2.688988 0
M  V30 33 C 1.466105 -2.618009 -2.552230 0
M  V30 34 C 1.903622 -3.382161 -1.304314 0
M  V30 35 C 0.985068 -4.555420 -1.059978 0
M  V30 36 C 1.472356 -5.285241 0.210847 0
M  V30 37 C 1.260598 -4.423144 1.446798 0
M  V30 38 N -0.116194 -4.348695 1.770288 0
M  V30 39 C -0.560742 -3.300450 2.573579 0
M  V30 40 C -1.836592 -3.728383 3.341787 0
M  V30 41 C -2.534518 -2.570197 4.017468 0
M  V30 42 O -2.933550 -1.695839 2.948838 0
M  V30 43 N -4.257034 -2.005832 2.695953 0
M  V30 44 C -5.667942 -2.300945 2.444905 0
M  V30 45 O -6.364667 -1.339539 2.825474 0
M  V30 46 C -5.977801 -3.595405 1.817733 0
M  V30 47 C -5.319319 -4.684228 2.424649 0
M  V30 48 C -5.481817 -6.045203 2.173968 0
M  V30 49 C -6.400245 -6.357271 1.215529 0
M  V30 50 F -6.620054 -7.633786 0.915692 0
M  V30 51 C -7.105339 -5.342295 0.565150 0
M  V30 52 F -8.010275 -5.632961 -0.381002 0
M  V30 53 C -6.857129 -4.031974 0.898611 0
M  V30 54 N -7.514785 -2.987246 0.183614 0
M  V30 55 C -7.037121 -2.840462 -1.139750 0
M  V30 56 C -5.990832 -3.664040 -1.596650 0
M  V30 57 C -5.499737 -3.598510 -2.906692 0
M  V30 58 C -6.035439 -2.712427 -3.818438 0
M  V30 59 I -5.313965 -2.599271 -5.780586 0
M  V30 60 C -7.054242 -1.893212 -3.400239 0
M  V30 61 C -7.504741 -1.992490 -2.095485 0
M  V30 62 F -8.522401 -1.148985 -1.761264 0
M  V30 63 C 6.618102 0.429033 1.031299 0
M  V30 64 C 6.897211 1.602608 1.899468 0
M  V30 65 C 7.997011 0.105574 0.359571 0
M  V30 66 C 6.353900 -0.795019 1.875065 0
M  V30 67 C -1.759781 4.282925 -2.159430 0
M  V30 68 C -3.134222 4.471822 -2.044695 0
M  V30 69 H -5.692820 6.403582 1.658458 0
M  V30 70 H -5.254708 4.619229 1.869038 0
M  V30 71 H -6.908758 5.143038 2.075687 0
M  V30 72 H -8.708330 4.989046 -2.152165 0
M  V30 73 H -3.293253 5.391066 1.072170 0
M  V30 74 H -0.923280 5.077123 0.966948 0
M  V30 75 H 1.121094 5.156944 -0.894967 0
M  V30 76 H 0.502053 3.125021 -3.082462 0
M  V30 77 H 0.314976 4.957354 -3.261536 0
M  V30 78 H 1.909333 4.299763 -2.827257 0
M  V30 79 H 0.132676 2.380657 -0.676951 0
M  V30 80 H 1.447199 0.726254 0.167514 0
M  V30 81 H 0.127610 1.485823 1.997358 0
M  V30 82 H 1.644249 1.944061 2.954318 0
M  V30 83 H 1.065970 -0.495523 3.377918 0
M  V30 84 H 0.063582 -0.470176 1.065557 0
M  V30 85 H 3.308526 0.355136 3.332284 0
M  V30 86 H 3.387817 -1.091361 2.162877 0
M  V30 87 H 5.406741 -0.487212 -0.415103 0
M  V30 88 H 6.675112 2.211511 -1.551632 0
M  V30 89 H 6.991517 0.113612 -4.271348 0
M  V30 90 H 5.868380 1.488860 -4.558139 0
M  V30 91 H 5.102813 -1.298936 -3.644465 0
M  V30 92 H 4.904374 -0.601059 -5.304076 0
M  V30 93 H 3.403629 0.995061 -4.774763 0
M  V30 94 H 3.656430 0.921665 -2.971713 0
M  V30 95 H 1.458316 -0.048857 -3.691475 0
M  V30 96 H 2.411503 -1.141288 -4.818390 0
M  V30 97 H 3.544528 -2.082771 -2.786446 0
M  V30 98 H 2.622184 -0.971043 -1.740729 0
M  V30 99 H 1.463600 -3.253240 -3.433953 0
M  V30 100 H 0.526509 -2.079617 -2.369517 0
M  V30 101 H 1.905352 -2.694941 -0.432098 0
M  V30 102 H 2.964916 -3.711271 -1.439536 0
M  V30 103 H -0.035128 -4.180677 -0.909839 0
M  V30 104 H 1.041608 -5.224229 -1.934820 0
M  V30 105 H 2.500208 -5.640284 0.135245 0
M  V30 106 H 0.793934 -6.144076 0.307527 0
M  V30 107 H 1.791481 -5.009039 2.264317 0
M  V30 108 H 1.804923 -3.476229 1.375192 0
M  V30 109 H -0.696205 -4.532479 0.932135 0
M  V30 110 H -0.951750 -2.442209 1.943957 0
M  V30 111 H 0.184003 -2.978194 3.321054 0
M  V30 112 H -2.481560 -4.236384 2.646981 0
M  V30 113 H -1.544043 -4.478153 4.133175 0
M  V30 114 H -3.431890 -2.909062 4.497648 0
M  V30 115 H -1.914934 -2.032476 4.728210 0
M  V30 116 H -3.668799 -2.740811 2.211613 0
M  V30 117 H -4.612122 -4.495665 3.229266 0
M  V30 118 H -4.891308 -6.774070 2.722188 0
M  V30 119 H -8.264592 -2.305868 0.439795 0
M  V30 120 H -5.486746 -4.389079 -1.011308 0
M  V30 121 H -4.698346 -4.227105 -3.271993 0
M  V30 122 H -7.468516 -1.209390 -4.103953 0
M  V30 123 H 6.006754 2.077872 2.369505 0
M  V30 124 H 7.536013 2.371240 1.446719 0
M  V30 125 H 7.529475 1.195558 2.759344 0
M  V30 126 H 8.422707 1.000362 -0.083834 0
M  V30 127 H 7.889636 -0.771878 -0.284696 0
M  V30 128 H 8.651619 -0.166832 1.212992 0
M  V30 129 H 7.269321 -1.410710 2.048653 0
M  V30 130 H 5.781290 -0.606101 2.788001 0
M  V30 131 H 5.704837 -1.457273 1.211411 0
M  V30 132 H -1.374426 3.954068 -3.122607 0
M  V30 133 H -3.696756 4.277976 -2.974343 0
M  V30 END ATOM
M  V30 BEGIN BOND
M  V30 1 1 1 2
M  V30 2 1 2 3
M  V30 3 2 3 4
M  V30 4 1 4 5
M  V30 5 1 5 6
M  V30 6 1 6 7
M  V30 7 2 7 8
M  V30 8 1 8 9
M  V30 9 2 9 10
M  V30 10 1 10 11
M  V30 11 1 11 12
M  V30 12 1 11 13
M  V30 13 1 13 14
M  V30 14 2 14 15
M  V30 15 1 14 16
M  V30 16 1 16 17
M  V30 17 1 17 18
M  V30 18 1 18 19
M  V30 19 1 18 20
M  V30 20 1 20 21
M  V30 21 1 21 22
M  V30 22 2 22 23
M  V30 23 1 22 24
M  V30 24 1 24 25
M  V30 25 1 25 26
M  V30 26 2 26 27
M  V30 27 1 26 28
M  V30 28 1 28 29
M  V30 29 1 29 30
M  V30 30 1 30 31
M  V30 31 1 31 32
M  V30 32 1 32 33
M  V30 33 1 33 34
M  V30 34 1 34 35
M  V30 35 1 35 36
M  V30 36 1 36 37
M  V30 37 1 37 38
M  V30 38 1 38 39
M  V30 39 1 39 40
M  V30 40 1 40 41
M  V30 41 1 41 42
M  V30 42 1 42 43
M  V30 43 1 43 44
M  V30 44 2 44 45
M  V30 45 1 44 46
M  V30 46 2 46 47
M  V30 47 1 47 48
M  V30 48 2 48 49
M  V30 49 1 49 50
M  V30 50 1 49 51
M  V30 51 1 51 52
M  V30 52 2 51 53
M  V30 53 1 53 54
M  V30 54 1 54 55
M  V30 55 2 55 56
M  V30 56 1 56 57
M  V30 57 2 57 58
M  V30 58 1 58 59
M  V30 59 1 58 60
M  V30 60 2 60 61
M  V30 61 1 61 62
M  V30 62 1 24 63
M  V30 63 1 63 64
M  V30 64 1 63 65
M  V30 65 1 63 66
M  V30 66 1 10 67
M  V30 67 2 67 68
M  V30 68 2 6 2
M  V30 69 1 68 7
M  V30 70 1 21 16
M  V30 71 1 53 46
M  V30 72 1 61 55
M  V30 73 1 1 69
M  V30 74 1 1 70
M  V30 75 1 1 71
M  V30 76 1 4 72
M  V30 77 1 8 73
M  V30 78 1 9 74
M  V30 79 1 11 75 CFG=1
M  V30 80 1 12 76
M  V30 81 1 12 77
M  V30 82 1 12 78
M  V30 83 1 13 79
M  V30 84 1 16 80 CFG=3
M  V30 85 1 17 81
M  V30 86 1 17 82
M  V30 87 1 18 83 CFG=1
M  V30 88 1 19 84
M  V30 89 1 20 85
M  V30 90 1 20 86
M  V30 91 1 24 87 CFG=3
M  V30 92 1 25 88
M  V30 93 1 28 89
M  V30 94 1 28 90
M  V30 95 1 29 91
M  V30 96 1 29 92
M  V30 97 1 30 93
M  V30 98 1 30 94
M  V30 99 1 31 95
M  V30 100 1 31 96
M  V30 101 1 32 97
M  V30 102 1 32 98
M  V30 103 1 33 99
M  V30 104 1 33 100
M  V30 105 1 34 101
M  V30 106 1 34 102
M  V30 107 1 35 103
M  V30 108 1 35 104
M  V30 109 1 36 105
M  V30 110 1 36 106
M  V30 111 1 37 107
M  V30 112 1 37 108
M  V30 113 1 38 109
M  V30 114 1 39 110
M  V30 115 1 39 111
M  V30 116 1 40 112
M  V30 117 1 40 113
M  V30 118 1 41 114
M  V30 119 1 41 115
M  V30 120 1 43 116
M  V30 121 1 47 117
M  V30 122 1 48 118
M  V30 123 1 54 119
M  V30 124 1 56 120
M  V30 125 1 57 121
M  V30 126 1 60 122
M  V30 127 1 64 123
M  V30 128 1 64 124
M  V30 129 1 64 125
M  V30 130 1 65 126
M  V30 131 1 65 127
M  V30 132 1 65 128
M  V30 133 1 66 129
M  V30 134 1 66 130
M  V30 135 1 66 131
M  V30 136 1 67 132
M  V30 137 1 68 133
M  V30 END BOND
M  V30 END CTAB
M  END
>  <Dataset>  (286) 
ChEMBL_Kinases

>  <Ligand_Instance>  (286) 
nan

>  <PDB_ID>  (286) 
nan

>  <Standardized_SMILES>  (286) 
Cc1ncsc1-c1ccc([C@H](C)NC(=O)[C@@H]2C[C@@H](O)CN2C(=O)[C@@H](NC(=O)CCCCCCCCCCNCCCONC(=O)c2ccc(F)c(F)c2Nc2ccc(I)cc2F)C(C)(C)C)cc1

>  <Name>  (286) 
nan

>  <Pocket>  (286) 
nan

>  <ATP_Site>  (286) 
nan

>  <Peripheral>  (286) 
nan

>  <Num_H_Atoms_ProtBoundConf>  (286) 
nan

>  <Num_Resolved_Atoms>  (286) 
nan

>  <Num_Not_Resolved_Atoms>  (286) 
nan

$$$$
CHEMBL4470778
     RDKit          3D

  0  0  0  0  0  0  0  0  0  0999 V3000
M  V30 BEGIN CTAB
M  V30 COUNTS 48 51 0 0 0
M  V30 BEGIN ATOM
M  V30 1 C 3.381633 -6.088590 5.440454 0
M  V30 2 C 3.271899 -5.393754 4.137771 0
M  V30 3 N 3.166835 -4.308124 3.709854 0
M  V30 4 C 3.083933 -3.918782 2.463007 0
M  V30 5 C 2.956392 -2.504953 2.130071 0
M  V30 6 O 2.912684 -1.545761 2.939877 0
M  V30 7 N 2.863189 -2.031878 0.796631 0
M  V30 8 C 2.741175 -0.642713 0.549323 0
M  V30 9 C 3.939030 0.034293 0.395069 0
M  V30 10 C 3.903919 1.392579 0.150990 0
M  V30 11 C 2.730397 2.114329 0.052270 0
M  V30 12 C 1.537027 1.408578 0.211588 0
M  V30 13 N 0.265026 2.038297 0.132099 0
M  V30 14 C -0.292068 2.554150 1.334493 0
M  V30 15 O 0.399701 2.415637 2.398495 0
M  V30 16 C -1.536402 3.253642 1.706013 0
M  V30 17 O -2.426680 3.485203 0.651590 0
M  V30 18 C -2.976094 2.434101 -0.034709 0
M  V30 19 C -3.817843 2.937147 -1.036416 0
M  V30 20 C -4.514198 2.075321 -1.892909 0
M  V30 21 C -4.384466 0.707973 -1.766592 0
M  V30 22 C -5.027708 -0.219862 -2.560623 0
M  V30 23 O -5.779314 0.268575 -3.454203 0
M  V30 24 C -4.813853 -1.571125 -2.332748 0
M  V30 25 C -3.964735 -1.971674 -1.319946 0
M  V30 26 O -3.358286 -1.060373 -0.570538 0
M  V30 27 C -3.555688 0.217681 -0.780211 0
M  V30 28 C -2.861237 1.043418 0.073206 0
M  V30 29 C 1.530831 0.037542 0.459075 0
M  V30 30 C 3.124295 -4.916187 1.498242 0
M  V30 31 S 3.293577 -6.461940 2.583521 0
M  V30 32 H 2.646224 -5.665866 6.186383 0
M  V30 33 H 3.289826 -7.177757 5.365665 0
M  V30 34 H 4.390458 -5.785983 5.846844 0
M  V30 35 H 2.883666 -2.705680 -0.019461 0
M  V30 36 H 4.921450 -0.415372 0.449836 0
M  V30 37 H 4.804242 1.980296 0.020823 0
M  V30 38 H 2.681122 3.179114 -0.138485 0
M  V30 39 H -0.380420 2.221215 -0.656108 0
M  V30 40 H -2.078072 2.584216 2.421775 0
M  V30 41 H -1.330578 4.177633 2.296200 0
M  V30 42 H -4.039189 3.967140 -1.280288 0
M  V30 43 H -5.175944 2.391368 -2.682137 0
M  V30 44 H -5.360146 -2.239091 -3.004490 0
M  V30 45 H -3.826727 -3.022363 -1.176779 0
M  V30 46 H -2.187885 0.808122 0.878154 0
M  V30 47 H 0.654993 -0.555077 0.589467 0
M  V30 48 H 3.058037 -4.691878 0.332583 0
M  V30 END ATOM
M  V30 BEGIN BOND
M  V30 1 1 1 2
M  V30 2 2 2 3
M  V30 3 1 3 4
M  V30 4 1 4 5
M  V30 5 2 5 6
M  V30 6 1 5 7
M  V30 7 1 7 8
M  V30 8 2 8 9
M  V30 9 1 9 10
M  V30 10 2 10 11
M  V30 11 1 11 12
M  V30 12 1 12 13
M  V30 13 1 13 14
M  V30 14 2 14 15
M  V30 15 1 14 16
M  V30 16 1 16 17
M  V30 17 1 17 18
M  V30 18 2 18 19
M  V30 19 1 19 20
M  V30 20 2 20 21
M  V30 21 1 21 22
M  V30 22 2 22 23
M  V30 23 1 22 24
M  V30 24 2 24 25
M  V30 25 1 25 26
M  V30 26 1 26 27
M  V30 27 2 27 28
M  V30 28 2 12 29
M  V30 29 2 4 30
M  V30 30 1 30 31
M  V30 31 1 31 2
M  V30 32 1 29 8
M  V30 33 1 28 18
M  V30 34 1 27 21
M  V30 35 1 1 32
M  V30 36 1 1 33
M  V30 37 1 1 34
M  V30 38 1 7 35
M  V30 39 1 9 36
M  V30 40 1 10 37
M  V30 41 1 11 38
M  V30 42 1 13 39
M  V30 43 1 16 40
M  V30 44 1 16 41
M  V30 45 1 19 42
M  V30 46 1 20 43
M  V30 47 1 24 44
M  V30 48 1 25 45
M  V30 49 1 28 46
M  V30 50 1 29 47
M  V30 51 1 30 48
M  V30 END BOND
M  V30 END CTAB
M  END
>  <Dataset>  (287) 
ChEMBL_Kinases

>  <Ligand_Instance>  (287) 
nan

>  <PDB_ID>  (287) 
nan

>  <Standardized_SMILES>  (287) 
Cc1nc(C(=O)Nc2cccc(NC(=O)COc3ccc4c(=O)ccoc4c3)c2)cs1

>  <Name>  (287) 
nan

>  <Pocket>  (287) 
nan

>  <ATP_Site>  (287) 
nan

>  <Peripheral>  (287) 
nan

>  <Num_H_Atoms_ProtBoundConf>  (287) 
nan

>  <Num_Resolved_Atoms>  (287) 
nan

>  <Num_Not_Resolved_Atoms>  (287) 
nan

$$$$
CHEMBL4470693
     RDKit          3D

  0  0  0  0  0  0  0  0  0  0999 V3000
M  V30 BEGIN CTAB
M  V30 COUNTS 69 75 0 0 0
M  V30 BEGIN ATOM
M  V30 1 C 5.215467 -2.455209 3.343850 0
M  V30 2 O 4.744947 -1.875673 2.166788 0
M  V30 3 C 5.408712 -0.850858 1.516736 0
M  V30 4 C 6.585769 -0.383777 2.057903 0
M  V30 5 C 7.248570 0.627369 1.422284 0
M  V30 6 C 6.721381 1.161259 0.246536 0
M  V30 7 C 5.531628 0.743966 -0.366335 0
M  V30 8 C 4.954289 -0.275077 0.358877 0
M  V30 9 C 5.297523 1.539071 -1.564484 0 CFG=1
M  V30 10 C 4.678193 1.065897 -2.800274 0
M  V30 11 C 4.024279 2.162578 -1.961015 0 CFG=1
M  V30 12 C 2.719044 1.907251 -1.359296 0
M  V30 13 C 1.982231 0.749108 -1.247654 0
M  V30 14 C 0.751727 0.646136 -0.641884 0
M  V30 15 C 0.168811 1.764761 -0.087639 0
M  V30 16 C -1.022594 1.977877 0.571435 0
M  V30 17 C -2.066128 1.006915 0.882694 0
M  V30 18 C -1.802969 -0.246871 1.392407 0
M  V30 19 C -2.834341 -1.117904 1.665407 0
M  V30 20 C -4.158490 -0.836823 1.466709 0
M  V30 21 N -5.208537 -1.723575 1.746772 0
M  V30 22 C -6.612828 -1.493675 1.474017 0
M  V30 23 C -7.225284 -2.694756 0.749548 0
M  V30 24 N -6.166568 -3.557297 0.350717 0
M  V30 25 C -6.331495 -4.273428 -0.859419 0
M  V30 26 C -5.122814 -5.149250 -1.115830 0
M  V30 27 O -5.399185 -5.802261 -2.342403 0
M  V30 28 C -5.381366 -4.140001 1.374909 0
M  V30 29 C -5.034558 -3.021677 2.362703 0
M  V30 30 C -4.382085 0.421743 0.958014 0
M  V30 31 C -3.394445 1.337139 0.664573 0
M  V30 32 N -1.026034 3.289626 0.874056 0
M  V30 33 N 0.073158 3.892936 0.449465 0
M  V30 34 C 0.838100 2.967365 -0.154534 0
M  V30 35 C 2.065437 2.999836 -0.774793 0
M  V30 36 C 6.529214 2.396154 -1.606517 0
M  V30 37 O 6.714136 3.189331 -2.569988 0
M  V30 38 N 7.375862 2.188678 -0.487488 0
M  V30 39 H 6.285395 -2.732877 3.315886 0
M  V30 40 H 4.635042 -3.409973 3.505990 0
M  V30 41 H 4.936639 -1.821148 4.212529 0
M  V30 42 H 6.966298 -0.815524 2.964174 0
M  V30 43 H 8.162004 0.955245 1.885666 0
M  V30 44 H 4.032403 -0.713855 0.008455 0
M  V30 45 H 4.146162 0.095285 -2.816402 0
M  V30 46 H 5.105981 1.390444 -3.784816 0
M  V30 47 H 4.171448 3.243797 -2.299533 0
M  V30 48 H 2.470786 -0.118675 -1.698427 0
M  V30 49 H 0.247763 -0.308500 -0.603086 0
M  V30 50 H -0.770126 -0.500083 1.561687 0
M  V30 51 H -2.515840 -2.071069 2.058197 0
M  V30 52 H -6.814974 -0.557877 0.939962 0
M  V30 53 H -7.095397 -1.400502 2.490742 0
M  V30 54 H -7.993965 -3.167802 1.395868 0
M  V30 55 H -7.686335 -2.297993 -0.195645 0
M  V30 56 H -6.314405 -3.519426 -1.703396 0
M  V30 57 H -7.245579 -4.898215 -0.939824 0
M  V30 58 H -4.184181 -4.564110 -1.186788 0
M  V30 59 H -4.966269 -5.924087 -0.333598 0
M  V30 60 H -4.567282 -5.780091 -2.911753 0
M  V30 61 H -5.842631 -5.001847 1.907802 0
M  V30 62 H -4.406524 -4.471495 0.947990 0
M  V30 63 H -4.016672 -3.182044 2.785204 0
M  V30 64 H -5.764469 -3.100446 3.193914 0
M  V30 65 H -5.366552 0.808073 0.742131 0
M  V30 66 H -3.583049 2.327120 0.263518 0
M  V30 67 H 0.326752 4.898593 0.550442 0
M  V30 68 H 2.538689 3.983581 -0.791942 0
M  V30 69 H 8.258966 2.712835 -0.317471 0
M  V30 END ATOM
M  V30 BEGIN BOND
M  V30 1 1 1 2
M  V30 2 1 2 3
M  V30 3 2 3 4
M  V30 4 1 4 5
M  V30 5 2 5 6
M  V30 6 1 6 7
M  V30 7 2 7 8
M  V30 8 1 7 9
M  V30 9 1 9 10 CFG=3
M  V30 10 1 10 11
M  V30 11 1 11 12
M  V30 12 2 12 13
M  V30 13 1 13 14
M  V30 14 2 14 15
M  V30 15 1 15 16
M  V30 16 1 16 17
M  V30 17 2 17 18
M  V30 18 1 18 19
M  V30 19 2 19 20
M  V30 20 1 20 21
M  V30 21 1 21 22
M  V30 22 1 22 23
M  V30 23 1 23 24
M  V30 24 1 24 25
M  V30 25 1 25 26
M  V30 26 1 26 27
M  V30 27 1 24 28
M  V30 28 1 28 29
M  V30 29 1 20 30
M  V30 30 2 30 31
M  V30 31 2 16 32
M  V30 32 1 32 33
M  V30 33 1 33 34
M  V30 34 2 34 35
M  V30 35 1 9 36
M  V30 36 2 36 37
M  V30 37 1 36 38
M  V30 38 1 8 3
M  V30 39 1 11 9
M  V30 40 1 35 12
M  V30 41 1 38 6
M  V30 42 1 34 15
M  V30 43 1 31 17
M  V30 44 1 29 21
M  V30 45 1 1 39
M  V30 46 1 1 40
M  V30 47 1 1 41
M  V30 48 1 4 42
M  V30 49 1 5 43
M  V30 50 1 8 44
M  V30 51 1 10 45
M  V30 52 1 10 46
M  V30 53 1 11 47 CFG=3
M  V30 54 1 13 48
M  V30 55 1 14 49
M  V30 56 1 18 50
M  V30 57 1 19 51
M  V30 58 1 22 52
M  V30 59 1 22 53
M  V30 60 1 23 54
M  V30 61 1 23 55
M  V30 62 1 25 56
M  V30 63 1 25 57
M  V30 64 1 26 58
M  V30 65 1 26 59
M  V30 66 1 27 60
M  V30 67 1 28 61
M  V30 68 1 28 62
M  V30 69 1 29 63
M  V30 70 1 29 64
M  V30 71 1 30 65
M  V30 72 1 31 66
M  V30 73 1 33 67
M  V30 74 1 35 68
M  V30 75 1 38 69
M  V30 END BOND
M  V30 END CTAB
M  END
>  <Dataset>  (288) 
ChEMBL_Kinases

>  <Ligand_Instance>  (288) 
nan

>  <PDB_ID>  (288) 
nan

>  <Standardized_SMILES>  (288) 
COc1ccc2c(c1)[C@]1(C[C@H]1c1ccc3c(-c4ccc(N5CCN(CCO)CC5)cc4)n[nH]c3c1)C(=O)N2

>  <Name>  (288) 
nan

>  <Pocket>  (288) 
nan

>  <ATP_Site>  (288) 
nan

>  <Peripheral>  (288) 
nan

>  <Num_H_Atoms_ProtBoundConf>  (288) 
nan

>  <Num_Resolved_Atoms>  (288) 
nan

>  <Num_Not_Resolved_Atoms>  (288) 
nan

$$$$
CHEMBL3702156
     RDKit          3D

  0  0  0  0  0  0  0  0  0  0999 V3000
M  V30 BEGIN CTAB
M  V30 COUNTS 55 60 0 0 0
M  V30 BEGIN ATOM
M  V30 1 C 0.683088 -5.996173 -1.369389 0
M  V30 2 C 0.966855 -5.578547 -0.121774 0
M  V30 3 C 2.242513 -4.800296 -0.164003 0
M  V30 4 N 2.369170 -4.074483 -1.414117 0
M  V30 5 C 2.249745 -2.656053 -1.587744 0
M  V30 6 C 2.410406 -1.910017 -2.742780 0
M  V30 7 C 2.239999 -0.545306 -2.646122 0
M  V30 8 C 1.924849 0.100844 -1.486721 0
M  V30 9 N 1.759269 1.524344 -1.405636 0
M  V30 10 C 1.419936 2.066098 -0.134174 0
M  V30 11 N 2.013352 3.060913 0.548523 0
M  V30 12 C 1.507582 3.418770 1.762742 0
M  V30 13 C 0.409071 2.762856 2.265038 0
M  V30 14 C -0.293242 2.915082 3.442128 0
M  V30 15 C -0.133061 3.771505 4.511076 0
M  V30 16 C -0.981970 3.721131 5.588922 0
M  V30 17 N -1.967390 2.796217 5.538695 0
M  V30 18 C -2.116596 1.962476 4.489065 0
M  V30 19 C -1.297702 1.973347 3.392193 0
M  V30 20 N -1.275409 1.243195 2.270032 0
M  V30 21 C -2.147923 0.171549 1.833661 0
M  V30 22 C -2.145296 0.276133 0.296823 0
M  V30 23 C -3.530262 -0.060215 -0.161454 0
M  V30 24 C -4.355773 -0.313723 1.055777 0
M  V30 25 C -3.574947 0.316339 2.222801 0
M  V30 26 C -0.207407 1.742441 1.574472 0
M  V30 27 N 0.347618 1.445789 0.385536 0
M  V30 28 N 1.786411 -0.695534 -0.413510 0
M  V30 29 N 1.934092 -2.009417 -0.426804 0
M  V30 30 C 2.637261 -5.046625 -2.455737 0
M  V30 31 C 1.353747 -5.836480 -2.673254 0
M  V30 32 H -0.216663 -6.595809 -1.599988 0
M  V30 33 H 0.290361 -5.841893 0.665964 0
M  V30 34 H 2.207451 -4.089871 0.689029 0
M  V30 35 H 3.103478 -5.460876 0.033442 0
M  V30 36 H 2.653777 -2.487540 -3.596323 0
M  V30 37 H 2.372474 0.015652 -3.570507 0
M  V30 38 H 1.898421 2.067772 -2.284955 0
M  V30 39 H 1.998242 4.220349 2.296345 0
M  V30 40 H 0.661560 4.508259 4.538753 0
M  V30 41 H -0.946040 4.342572 6.473952 0
M  V30 42 H -2.934312 1.262199 4.554228 0
M  V30 43 H -1.668890 -0.784621 2.125390 0
M  V30 44 H -1.977064 1.352330 -0.009598 0
M  V30 45 H -1.350817 -0.369170 -0.127375 0
M  V30 46 H -4.007207 0.753835 -0.776600 0
M  V30 47 H -3.523080 -0.957694 -0.844150 0
M  V30 48 H -5.387819 0.044294 1.021021 0
M  V30 49 H -4.352093 -1.433931 1.206276 0
M  V30 50 H -3.888348 -0.325850 3.097393 0
M  V30 51 H -3.838792 1.369620 2.349753 0
M  V30 52 H 2.856737 -4.515025 -3.403798 0
M  V30 53 H 3.477424 -5.731836 -2.190831 0
M  V30 54 H 1.586072 -6.819722 -3.167493 0
M  V30 55 H 0.702228 -5.210139 -3.346947 0
M  V30 END ATOM
M  V30 BEGIN BOND
M  V30 1 2 1 2
M  V30 2 1 2 3
M  V30 3 1 3 4
M  V30 4 1 4 5
M  V30 5 2 5 6
M  V30 6 1 6 7
M  V30 7 2 7 8
M  V30 8 1 8 9
M  V30 9 1 9 10
M  V30 10 2 10 11
M  V30 11 1 11 12
M  V30 12 2 12 13
M  V30 13 1 13 14
M  V30 14 2 14 15
M  V30 15 1 15 16
M  V30 16 2 16 17
M  V30 17 1 17 18
M  V30 18 2 18 19
M  V30 19 1 19 20
M  V30 20 1 20 21
M  V30 21 1 21 22
M  V30 22 1 22 23
M  V30 23 1 23 24
M  V30 24 1 24 25
M  V30 25 1 20 26
M  V30 26 2 26 27
M  V30 27 1 8 28
M  V30 28 2 28 29
M  V30 29 1 4 30
M  V30 30 1 30 31
M  V30 31 1 31 1
M  V30 32 1 29 5
M  V30 33 1 27 10
M  V30 34 1 26 13
M  V30 35 1 19 14
M  V30 36 1 25 21
M  V30 37 1 1 32
M  V30 38 1 2 33
M  V30 39 1 3 34
M  V30 40 1 3 35
M  V30 41 1 6 36
M  V30 42 1 7 37
M  V30 43 1 9 38
M  V30 44 1 12 39
M  V30 45 1 15 40
M  V30 46 1 16 41
M  V30 47 1 18 42
M  V30 48 1 21 43
M  V30 49 1 22 44
M  V30 50 1 22 45
M  V30 51 1 23 46
M  V30 52 1 23 47
M  V30 53 1 24 48
M  V30 54 1 24 49
M  V30 55 1 25 50
M  V30 56 1 25 51
M  V30 57 1 30 52
M  V30 58 1 30 53
M  V30 59 1 31 54
M  V30 60 1 31 55
M  V30 END BOND
M  V30 END CTAB
M  END
>  <Dataset>  (289) 
ChEMBL_Kinases

>  <Ligand_Instance>  (289) 
nan

>  <PDB_ID>  (289) 
nan

>  <Standardized_SMILES>  (289) 
C1=CCN(c2ccc(Nc3ncc4c5ccncc5n(C5CCCC5)c4n3)nn2)CC1

>  <Name>  (289) 
nan

>  <Pocket>  (289) 
nan

>  <ATP_Site>  (289) 
nan

>  <Peripheral>  (289) 
nan

>  <Num_H_Atoms_ProtBoundConf>  (289) 
nan

>  <Num_Resolved_Atoms>  (289) 
nan

>  <Num_Not_Resolved_Atoms>  (289) 
nan

$$$$
CHEMBL4470576
     RDKit          3D

  0  0  0  0  0  0  0  0  0  0999 V3000
M  V30 BEGIN CTAB
M  V30 COUNTS 47 50 0 0 0
M  V30 BEGIN ATOM
M  V30 1 C -0.868219 -4.769639 2.821381 0
M  V30 2 C -1.364206 -4.518072 1.417961 0
M  V30 3 C -0.845521 -3.303434 0.784933 0
M  V30 4 C -0.410610 -2.314094 0.247627 0
M  V30 5 C 0.087075 -1.133241 -0.401269 0
M  V30 6 C 0.264294 -1.037418 -1.767700 0
M  V30 7 Cl -0.060004 -2.272276 -2.972266 0
M  V30 8 C 0.749641 0.244457 -1.945162 0
M  V30 9 C 1.103469 0.880100 -3.119768 0
M  V30 10 Cl 0.957765 0.040854 -4.655472 0
M  V30 11 C 1.570939 2.192778 -3.017972 0
M  V30 12 C 1.669797 2.816787 -1.785052 0
M  V30 13 C 2.168840 4.183907 -1.796246 0
M  V30 14 N 2.265612 4.807966 -0.543337 0
M  V30 15 O 2.502930 4.805724 -2.829676 0
M  V30 16 N 1.308203 2.135879 -0.694190 0
M  V30 17 C 0.849760 0.870195 -0.718324 0
M  V30 18 N 0.434374 0.001284 0.231491 0
M  V30 19 C 0.418471 0.349582 1.602145 0 CFG=1
M  V30 20 C -0.558175 1.423180 2.001971 0
M  V30 21 C -0.094723 1.951761 3.356513 0
M  V30 22 C 0.890085 1.030848 4.022504 0
M  V30 23 N 0.570587 -0.354484 3.905841 0
M  V30 24 C 0.236612 -0.781643 2.554766 0
M  V30 25 C -1.279822 -5.684458 0.465787 0
M  V30 26 O -2.502454 -5.261507 -0.072221 0
M  V30 27 C -2.816096 -4.789364 1.200065 0
M  V30 28 H -0.960079 -5.836107 3.076438 0
M  V30 29 H -1.495965 -4.163599 3.509957 0
M  V30 30 H 0.165544 -4.390522 2.920406 0
M  V30 31 H 1.839405 2.666947 -3.937720 0
M  V30 32 H 2.379210 5.785433 -0.197464 0
M  V30 33 H 2.379992 5.813141 -0.291410 0
M  V30 34 H 1.436322 0.779943 1.839110 0
M  V30 35 H -1.556823 0.925893 2.078291 0
M  V30 36 H -0.575196 2.284003 1.338005 0
M  V30 37 H 0.442857 2.938413 3.241367 0
M  V30 38 H -0.982950 2.127678 3.988164 0
M  V30 39 H 0.825523 1.268796 5.121921 0
M  V30 40 H 1.943345 1.271842 3.760458 0
M  V30 41 H -0.152754 -0.600390 4.602880 0
M  V30 42 H -0.826964 -1.028969 2.583904 0
M  V30 43 H 0.922210 -1.635530 2.367035 0
M  V30 44 H -0.419000 -5.671916 -0.206758 0
M  V30 45 H -1.429560 -6.661553 0.977883 0
M  V30 46 H -3.223909 -5.517237 1.904363 0
M  V30 47 H -3.369742 -3.816207 1.150438 0
M  V30 END ATOM
M  V30 BEGIN BOND
M  V30 1 1 1 2
M  V30 2 1 2 3
M  V30 3 3 3 4
M  V30 4 1 4 5
M  V30 5 2 5 6
M  V30 6 1 6 7
M  V30 7 1 6 8
M  V30 8 2 8 9
M  V30 9 1 9 10
M  V30 10 1 9 11
M  V30 11 2 11 12
M  V30 12 1 12 13
M  V30 13 1 13 14
M  V30 14 2 13 15
M  V30 15 1 12 16
M  V30 16 2 16 17
M  V30 17 1 17 18
M  V30 18 1 18 19
M  V30 19 1 19 20
M  V30 20 1 20 21
M  V30 21 1 21 22
M  V30 22 1 22 23
M  V30 23 1 23 24
M  V30 24 1 2 25
M  V30 25 1 25 26
M  V30 26 1 26 27
M  V30 27 1 27 2
M  V30 28 1 18 5
M  V30 29 1 24 19
M  V30 30 1 17 8
M  V30 31 1 1 28
M  V30 32 1 1 29
M  V30 33 1 1 30
M  V30 34 1 11 31
M  V30 35 1 14 32
M  V30 36 1 14 33
M  V30 37 1 19 34 CFG=1
M  V30 38 1 20 35
M  V30 39 1 20 36
M  V30 40 1 21 37
M  V30 41 1 21 38
M  V30 42 1 22 39
M  V30 43 1 22 40
M  V30 44 1 23 41
M  V30 45 1 24 42
M  V30 46 1 24 43
M  V30 47 1 25 44
M  V30 48 1 25 45
M  V30 49 1 27 46
M  V30 50 1 27 47
M  V30 END BOND
M  V30 END CTAB
M  END
>  <Dataset>  (290) 
ChEMBL_Kinases

>  <Ligand_Instance>  (290) 
nan

>  <PDB_ID>  (290) 
nan

>  <Standardized_SMILES>  (290) 
CC1(C#Cc2c(Cl)c3c(Cl)cc(C(N)=O)nc3n2[C@H]2CCCNC2)COC1

>  <Name>  (290) 
nan

>  <Pocket>  (290) 
nan

>  <ATP_Site>  (290) 
nan

>  <Peripheral>  (290) 
nan

>  <Num_H_Atoms_ProtBoundConf>  (290) 
nan

>  <Num_Resolved_Atoms>  (290) 
nan

>  <Num_Not_Resolved_Atoms>  (290) 
nan

$$$$
CHEMBL3702155
     RDKit          3D

  0  0  0  0  0  0  0  0  0  0999 V3000
M  V30 BEGIN CTAB
M  V30 COUNTS 59 64 0 0 0
M  V30 BEGIN ATOM
M  V30 1 C 3.796847 -3.470771 5.907692 0
M  V30 2 C 3.774526 -4.048001 4.518781 0 CFG=2
M  V30 3 C 4.083782 -3.040407 3.436880 0
M  V30 4 N 2.891701 -2.260665 3.161929 0
M  V30 5 C 2.847949 -1.375007 2.052054 0
M  V30 6 C 3.895570 -1.230579 1.168329 0
M  V30 7 C 3.751992 -0.352546 0.115321 0
M  V30 8 C 2.611744 0.392730 -0.102071 0
M  V30 9 N 2.465960 1.293101 -1.219095 0
M  V30 10 C 1.238350 1.985197 -1.291795 0
M  V30 11 N 0.955479 3.316242 -1.174365 0
M  V30 12 C -0.295495 3.763364 -1.263646 0
M  V30 13 C -1.313786 2.873067 -1.476126 0
M  V30 14 C -2.682365 2.996092 -1.614186 0
M  V30 15 C -3.530499 4.084039 -1.588979 0
M  V30 16 C -4.896699 3.945145 -1.756923 0
M  V30 17 N -5.341082 2.694229 -1.944991 0
M  V30 18 C -4.531303 1.625899 -1.972463 0
M  V30 19 F -5.095331 0.413235 -2.171185 0
M  V30 20 C -3.166959 1.717991 -1.809541 0
M  V30 21 N -2.204956 0.768544 -1.808089 0
M  V30 22 C -2.265207 -0.640924 -1.964140 0
M  V30 23 C -2.915510 -1.403805 -0.839214 0
M  V30 24 C -3.379452 -2.694287 -1.480487 0
M  V30 25 C -3.681202 -2.356956 -2.922507 0
M  V30 26 C -2.789888 -1.168884 -3.258708 0
M  V30 27 C -1.079294 1.523952 -1.600552 0
M  V30 28 N 0.211110 1.146646 -1.499591 0
M  V30 29 N 1.637002 0.196138 0.803501 0
M  V30 30 N 1.734340 -0.638283 1.829152 0
M  V30 31 C 1.739704 -2.407906 4.029506 0
M  V30 32 C 1.406953 -3.886304 4.035585 0
M  V30 33 N 2.526160 -4.732537 4.339261 0
M  V30 34 H 2.816388 -3.632649 6.444168 0
M  V30 35 H 4.017246 -2.403858 5.968940 0
M  V30 36 H 4.540511 -4.003885 6.570421 0
M  V30 37 H 4.563509 -4.851846 4.484205 0
M  V30 38 H 4.408139 -3.618860 2.546896 0
M  V30 39 H 4.855085 -2.360758 3.814289 0
M  V30 40 H 4.789266 -1.807620 1.329477 0
M  V30 41 H 4.561043 -0.212929 -0.603606 0
M  V30 42 H 3.285189 1.342477 -1.864072 0
M  V30 43 H -0.496994 4.806898 -1.170024 0
M  V30 44 H -3.095461 5.065484 -1.433792 0
M  V30 45 H -5.504933 4.840033 -1.726592 0
M  V30 46 H -1.192525 -1.014170 -1.939536 0
M  V30 47 H -3.702835 -0.887191 -0.301480 0
M  V30 48 H -2.184911 -1.710881 -0.051791 0
M  V30 49 H -4.265447 -3.069501 -0.933100 0
M  V30 50 H -2.594818 -3.498320 -1.407249 0
M  V30 51 H -4.760053 -2.114215 -2.996492 0
M  V30 52 H -3.519956 -3.231734 -3.563441 0
M  V30 53 H -3.260579 -0.434631 -3.925321 0
M  V30 54 H -1.991062 -1.628645 -3.920316 0
M  V30 55 H 1.865798 -1.962526 5.013204 0
M  V30 56 H 0.866568 -1.896501 3.548779 0
M  V30 57 H 1.093846 -4.131378 2.979750 0
M  V30 58 H 0.575365 -4.032307 4.753362 0
M  V30 59 H 2.600352 -5.593170 3.753531 0
M  V30 END ATOM
M  V30 BEGIN BOND
M  V30 1 1 1 2
M  V30 2 1 2 3
M  V30 3 1 3 4
M  V30 4 1 4 5
M  V30 5 2 5 6
M  V30 6 1 6 7
M  V30 7 2 7 8
M  V30 8 1 8 9
M  V30 9 1 9 10
M  V30 10 2 10 11
M  V30 11 1 11 12
M  V30 12 2 12 13
M  V30 13 1 13 14
M  V30 14 2 14 15
M  V30 15 1 15 16
M  V30 16 2 16 17
M  V30 17 1 17 18
M  V30 18 1 18 19
M  V30 19 2 18 20
M  V30 20 1 20 21
M  V30 21 1 21 22
M  V30 22 1 22 23
M  V30 23 1 23 24
M  V30 24 1 24 25
M  V30 25 1 25 26
M  V30 26 1 21 27
M  V30 27 2 27 28
M  V30 28 1 8 29
M  V30 29 2 29 30
M  V30 30 1 4 31
M  V30 31 1 31 32
M  V30 32 1 32 33
M  V30 33 1 33 2
M  V30 34 1 30 5
M  V30 35 1 28 10
M  V30 36 1 27 13
M  V30 37 1 20 14
M  V30 38 1 26 22
M  V30 39 1 1 34
M  V30 40 1 1 35
M  V30 41 1 1 36
M  V30 42 1 2 37 CFG=1
M  V30 43 1 3 38
M  V30 44 1 3 39
M  V30 45 1 6 40
M  V30 46 1 7 41
M  V30 47 1 9 42
M  V30 48 1 12 43
M  V30 49 1 15 44
M  V30 50 1 16 45
M  V30 51 1 22 46
M  V30 52 1 23 47
M  V30 53 1 23 48
M  V30 54 1 24 49
M  V30 55 1 24 50
M  V30 56 1 25 51
M  V30 57 1 25 52
M  V30 58 1 26 53
M  V30 59 1 26 54
M  V30 60 1 31 55
M  V30 61 1 31 56
M  V30 62 1 32 57
M  V30 63 1 32 58
M  V30 64 1 33 59
M  V30 END BOND
M  V30 END CTAB
M  END
>  <Dataset>  (291) 
ChEMBL_Kinases

>  <Ligand_Instance>  (291) 
nan

>  <PDB_ID>  (291) 
nan

>  <Standardized_SMILES>  (291) 
C[C@@H]1CN(c2ccc(Nc3ncc4c5ccnc(F)c5n(C5CCCC5)c4n3)nn2)CCN1

>  <Name>  (291) 
nan

>  <Pocket>  (291) 
nan

>  <ATP_Site>  (291) 
nan

>  <Peripheral>  (291) 
nan

>  <Num_H_Atoms_ProtBoundConf>  (291) 
nan

>  <Num_Resolved_Atoms>  (291) 
nan

>  <Num_Not_Resolved_Atoms>  (291) 
nan

$$$$
CHEMBL456689
     RDKit          3D

  0  0  0  0  0  0  0  0  0  0999 V3000
M  V30 BEGIN CTAB
M  V30 COUNTS 69 74 0 0 0
M  V30 BEGIN ATOM
M  V30 1 C 4.653978 -0.199668 8.530306 0
M  V30 2 O 4.133674 0.827166 7.723105 0
M  V30 3 C 3.469543 0.436016 6.544732 0
M  V30 4 C 3.335772 -0.885380 6.197701 0
M  V30 5 C 2.688772 -1.300687 5.046210 0
M  V30 6 N 2.399905 -2.475022 4.460814 0
M  V30 7 C 1.722040 -2.284645 3.318767 0
M  V30 8 N 1.204894 -3.130444 2.386720 0
M  V30 9 C 0.544717 -2.597229 1.315723 0
M  V30 10 N 0.401246 -1.262926 1.172454 0
M  V30 11 C 0.918026 -0.426529 2.102158 0
M  V30 12 N 0.708509 0.931529 1.753589 0
M  V30 13 C 1.864062 1.691863 1.233632 0
M  V30 14 C 1.567332 1.859359 -0.266001 0
M  V30 15 N 0.174313 1.652996 -0.542468 0
M  V30 16 C -0.213901 0.823392 -1.623814 0
M  V30 17 S 0.909029 0.110182 -2.551986 0
M  V30 18 N -1.601681 0.654783 -1.842994 0
M  V30 19 C -2.531909 0.012819 -2.680571 0
M  V30 20 C -3.095530 0.558768 -3.817169 0
M  V30 21 C -4.015229 -0.175619 -4.569969 0
M  V30 22 C -4.333694 -1.443594 -4.142936 0
M  V30 23 S -5.502585 -2.310406 -5.111000 0
M  V30 24 O -6.508080 -1.351457 -5.721555 0
M  V30 25 O -6.319559 -3.251625 -4.260119 0
M  V30 26 N -4.780197 -3.190608 -6.395513 0
M  V30 27 C -3.848235 -4.234720 -6.268998 0
M  V30 28 N -3.279129 -4.938050 -7.266131 0
M  V30 29 C -2.398805 -5.912009 -7.083114 0
M  V30 30 C -2.044268 -6.223744 -5.781407 0
M  V30 31 C -2.610509 -5.522329 -4.756977 0
M  V30 32 N -3.507793 -4.532281 -4.993077 0
M  V30 33 C -3.819189 -2.062336 -3.024787 0
M  V30 34 C -2.904285 -1.278281 -2.312078 0
M  V30 35 C -0.592195 2.403840 0.427387 0
M  V30 36 C -0.497046 1.776851 1.810646 0
M  V30 37 C 1.581707 -0.920623 3.184923 0
M  V30 38 C 2.174838 -0.289308 4.249705 0
M  V30 39 C 2.289608 1.044932 4.565954 0
M  V30 40 C 2.946368 1.426130 5.730288 0
M  V30 41 O 3.098567 2.765002 6.109449 0
M  V30 42 C 2.562508 3.781274 5.277991 0
M  V30 43 H 5.060418 0.195993 9.488882 0
M  V30 44 H 5.493661 -0.677659 7.997246 0
M  V30 45 H 3.897938 -1.000311 8.734065 0
M  V30 46 H 3.736138 -1.672384 6.816196 0
M  V30 47 H 2.663292 -3.406772 4.837794 0
M  V30 48 H 0.189752 -3.389723 0.661245 0
M  V30 49 H 2.783816 1.104456 1.312878 0
M  V30 50 H 1.898635 2.659972 1.739825 0
M  V30 51 H 1.908590 2.890051 -0.506686 0
M  V30 52 H 2.185002 1.165028 -0.866005 0
M  V30 53 H -2.330781 1.107562 -1.252729 0
M  V30 54 H -2.787115 1.561370 -4.076069 0
M  V30 55 H -4.451353 0.263732 -5.460430 0
M  V30 56 H -5.009026 -2.984007 -7.404732 0
M  V30 57 H -1.973020 -6.446303 -7.935638 0
M  V30 58 H -1.336787 -7.004031 -5.563636 0
M  V30 59 H -2.325404 -5.773463 -3.733862 0
M  V30 60 H -4.064937 -3.056158 -2.687098 0
M  V30 61 H -2.479895 -1.737055 -1.422002 0
M  V30 62 H -1.685889 2.377576 0.177849 0
M  V30 63 H -0.262591 3.473172 0.444433 0
M  V30 64 H -1.394998 1.232774 2.094873 0
M  V30 65 H -0.276636 2.611837 2.524244 0
M  V30 66 H 1.916448 1.879426 4.017975 0
M  V30 67 H 2.643090 4.729973 5.856124 0
M  V30 68 H 1.500317 3.611095 5.027849 0
M  V30 69 H 3.164585 3.920690 4.352142 0
M  V30 END ATOM
M  V30 BEGIN BOND
M  V30 1 1 1 2
M  V30 2 1 2 3
M  V30 3 2 3 4
M  V30 4 1 4 5
M  V30 5 1 5 6
M  V30 6 1 6 7
M  V30 7 2 7 8
M  V30 8 1 8 9
M  V30 9 2 9 10
M  V30 10 1 10 11
M  V30 11 1 11 12
M  V30 12 1 12 13
M  V30 13 1 13 14
M  V30 14 1 14 15
M  V30 15 1 15 16
M  V30 16 2 16 17
M  V30 17 1 16 18
M  V30 18 1 18 19
M  V30 19 2 19 20
M  V30 20 1 20 21
M  V30 21 2 21 22
M  V30 22 1 22 23
M  V30 23 2 23 24
M  V30 24 2 23 25
M  V30 25 1 23 26
M  V30 26 1 26 27
M  V30 27 2 27 28
M  V30 28 1 28 29
M  V30 29 2 29 30
M  V30 30 1 30 31
M  V30 31 2 31 32
M  V30 32 1 22 33
M  V30 33 2 33 34
M  V30 34 1 15 35
M  V30 35 1 35 36
M  V30 36 2 11 37
M  V30 37 1 37 38
M  V30 38 1 38 39
M  V30 39 2 39 40
M  V30 40 1 40 41
M  V30 41 1 41 42
M  V30 42 1 40 3
M  V30 43 2 38 5
M  V30 44 1 37 7
M  V30 45 1 36 12
M  V30 46 1 34 19
M  V30 47 1 32 27
M  V30 48 1 1 43
M  V30 49 1 1 44
M  V30 50 1 1 45
M  V30 51 1 4 46
M  V30 52 1 6 47
M  V30 53 1 9 48
M  V30 54 1 13 49
M  V30 55 1 13 50
M  V30 56 1 14 51
M  V30 57 1 14 52
M  V30 58 1 18 53
M  V30 59 1 20 54
M  V30 60 1 21 55
M  V30 61 1 26 56
M  V30 62 1 29 57
M  V30 63 1 30 58
M  V30 64 1 31 59
M  V30 65 1 33 60
M  V30 66 1 34 61
M  V30 67 1 35 62
M  V30 68 1 35 63
M  V30 69 1 36 64
M  V30 70 1 36 65
M  V30 71 1 39 66
M  V30 72 1 42 67
M  V30 73 1 42 68
M  V30 74 1 42 69
M  V30 END BOND
M  V30 END CTAB
M  END
>  <Dataset>  (292) 
ChEMBL_Kinases

>  <Ligand_Instance>  (292) 
nan

>  <PDB_ID>  (292) 
nan

>  <Standardized_SMILES>  (292) 
COc1cc2[nH]c3ncnc(N4CCN(C(=S)Nc5ccc(S(=O)(=O)Nc6ncccn6)cc5)CC4)c3c2cc1OC

>  <Name>  (292) 
nan

>  <Pocket>  (292) 
nan

>  <ATP_Site>  (292) 
nan

>  <Peripheral>  (292) 
nan

>  <Num_H_Atoms_ProtBoundConf>  (292) 
nan

>  <Num_Resolved_Atoms>  (292) 
nan

>  <Num_Not_Resolved_Atoms>  (292) 
nan

$$$$
CHEMBL2204114
     RDKit          3D

  0  0  0  0  0  0  0  0  0  0999 V3000
M  V30 BEGIN CTAB
M  V30 COUNTS 59 62 0 0 0
M  V30 BEGIN ATOM
M  V30 1 C 3.825398 -2.399629 7.080191 0
M  V30 2 C 3.901024 -0.903668 7.056828 0
M  V30 3 N 3.270595 -0.337827 5.879138 0
M  V30 4 C 3.734670 -0.677073 4.583901 0
M  V30 5 O 4.706989 -1.484003 4.542300 0
M  V30 6 C 3.185502 -0.175788 3.330979 0
M  V30 7 C 3.713849 -0.581802 2.125340 0
M  V30 8 C 3.164847 -0.083775 0.935984 0
M  V30 9 C 2.090267 0.819870 0.889030 0
M  V30 10 C 1.690219 1.207152 -0.482619 0
M  V30 11 C 0.746960 0.279395 -1.134567 0
M  V30 12 C -0.600219 0.164301 -1.006168 0
M  V30 13 C -1.277384 1.141000 -0.175468 0
M  V30 14 O -1.287404 2.134857 0.550839 0
M  V30 15 O -2.632382 1.138578 0.060953 0
M  V30 16 C -3.282719 2.083651 0.864677 0
M  V30 17 N -1.401744 -0.730118 -1.597463 0
M  V30 18 C -2.807214 -0.754467 -1.391568 0
M  V30 19 C -3.452777 0.054600 -2.327591 0
M  V30 20 C -4.842732 0.170065 -2.301700 0
M  V30 21 C -5.514243 -0.539050 -1.329178 0
M  V30 22 C -4.898862 -1.349242 -0.388196 0
M  V30 23 C -3.509618 -1.437273 -0.448546 0
M  V30 24 C -0.857032 -1.635893 -2.420442 0
M  V30 25 N -1.678646 -2.546155 -3.016382 0
M  V30 26 C -1.162407 -3.468280 -3.844232 0
M  V30 27 C -2.119131 -4.436440 -4.462133 0
M  V30 28 C 0.188606 -3.520355 -4.110763 0
M  V30 29 C 0.984680 -2.582775 -3.488556 0
M  V30 30 C 0.504540 -1.608327 -2.624449 0
M  V30 31 C 1.302177 -0.673003 -1.999355 0
M  V30 32 O 2.506012 -0.805461 -2.309668 0
M  V30 33 C 1.631661 1.166735 2.135154 0
M  V30 34 C 2.131563 0.709424 3.327978 0
M  V30 35 H 4.822224 -2.882221 6.973164 0
M  V30 36 H 3.174501 -2.777678 6.260758 0
M  V30 37 H 3.441707 -2.721694 8.067134 0
M  V30 38 H 3.410070 -0.507383 7.966027 0
M  V30 39 H 4.975802 -0.586402 7.155779 0
M  V30 40 H 2.457387 0.336185 5.946560 0
M  V30 41 H 4.526986 -1.266211 2.179722 0
M  V30 42 H 3.707149 -0.506349 0.089234 0
M  V30 43 H 1.209748 2.212393 -0.410852 0
M  V30 44 H 2.606087 1.314292 -1.110377 0
M  V30 45 H -2.910296 2.037291 1.896676 0
M  V30 46 H -4.388819 1.850673 0.893090 0
M  V30 47 H -3.145677 3.138354 0.509078 0
M  V30 48 H -2.981339 0.639597 -3.119229 0
M  V30 49 H -5.371953 0.790449 -3.013742 0
M  V30 50 H -6.608066 -0.429130 -1.330904 0
M  V30 51 H -5.432418 -1.889815 0.355220 0
M  V30 52 H -2.919693 -2.035414 0.228239 0
M  V30 53 H -2.937898 -4.720083 -3.768035 0
M  V30 54 H -1.548396 -5.360493 -4.702757 0
M  V30 55 H -2.489914 -4.041882 -5.431124 0
M  V30 56 H 0.604972 -4.272166 -4.784740 0
M  V30 57 H 2.032195 -2.617730 -3.691115 0
M  V30 58 H 0.816134 1.866386 2.124193 0
M  V30 59 H 1.663329 1.074873 4.223300 0
M  V30 END ATOM
M  V30 BEGIN BOND
M  V30 1 1 1 2
M  V30 2 1 2 3
M  V30 3 1 3 4
M  V30 4 2 4 5
M  V30 5 1 4 6
M  V30 6 2 6 7
M  V30 7 1 7 8
M  V30 8 2 8 9
M  V30 9 1 9 10
M  V30 10 1 10 11
M  V30 11 2 11 12
M  V30 12 1 12 13
M  V30 13 2 13 14
M  V30 14 1 13 15
M  V30 15 1 15 16
M  V30 16 1 12 17
M  V30 17 1 17 18
M  V30 18 2 18 19
M  V30 19 1 19 20
M  V30 20 2 20 21
M  V30 21 1 21 22
M  V30 22 2 22 23
M  V30 23 1 17 24
M  V30 24 2 24 25
M  V30 25 1 25 26
M  V30 26 1 26 27
M  V30 27 2 26 28
M  V30 28 1 28 29
M  V30 29 2 29 30
M  V30 30 1 30 31
M  V30 31 2 31 32
M  V30 32 1 9 33
M  V30 33 2 33 34
M  V30 34 1 34 6
M  V30 35 1 31 11
M  V30 36 1 23 18
M  V30 37 1 30 24
M  V30 38 1 1 35
M  V30 39 1 1 36
M  V30 40 1 1 37
M  V30 41 1 2 38
M  V30 42 1 2 39
M  V30 43 1 3 40
M  V30 44 1 7 41
M  V30 45 1 8 42
M  V30 46 1 10 43
M  V30 47 1 10 44
M  V30 48 1 16 45
M  V30 49 1 16 46
M  V30 50 1 16 47
M  V30 51 1 19 48
M  V30 52 1 20 49
M  V30 53 1 21 50
M  V30 54 1 22 51
M  V30 55 1 23 52
M  V30 56 1 27 53
M  V30 57 1 27 54
M  V30 58 1 27 55
M  V30 59 1 28 56
M  V30 60 1 29 57
M  V30 61 1 33 58
M  V30 62 1 34 59
M  V30 END BOND
M  V30 END CTAB
M  END
>  <Dataset>  (293) 
ChEMBL_Kinases

>  <Ligand_Instance>  (293) 
nan

>  <PDB_ID>  (293) 
nan

>  <Standardized_SMILES>  (293) 
CCNC(=O)c1ccc(Cc2c(C(=O)OC)n(-c3ccccc3)c3nc(C)ccc3c2=O)cc1

>  <Name>  (293) 
nan

>  <Pocket>  (293) 
nan

>  <ATP_Site>  (293) 
nan

>  <Peripheral>  (293) 
nan

>  <Num_H_Atoms_ProtBoundConf>  (293) 
nan

>  <Num_Resolved_Atoms>  (293) 
nan

>  <Num_Not_Resolved_Atoms>  (293) 
nan

$$$$
CHEMBL4470271
     RDKit          3D

  0  0  0  0  0  0  0  0  0  0999 V3000
M  V30 BEGIN CTAB
M  V30 COUNTS 55 60 0 0 0
M  V30 BEGIN ATOM
M  V30 1 C 3.642684 -4.263289 1.567135 0
M  V30 2 C 3.508433 -3.478887 2.834916 0 CFG=1
M  V30 3 N 4.763968 -3.435735 3.572241 0
M  V30 4 C 5.161292 -2.076109 3.703817 0
M  V30 5 O 6.206506 -1.654052 4.288338 0
M  V30 6 C 4.162241 -1.238397 3.051317 0
M  V30 7 C 3.782543 0.047401 2.730260 0
M  V30 8 C 2.597605 0.034677 2.032427 0
M  V30 9 C 1.933994 1.238295 1.550256 0
M  V30 10 C 2.479229 2.507747 1.775503 0
M  V30 11 C 1.877189 3.655940 1.333905 0
M  V30 12 C 0.681725 3.566188 0.636276 0
M  V30 13 C 0.092307 2.356492 0.380472 0
M  V30 14 C -1.092514 2.247668 -0.309690 0
M  V30 15 O -1.557343 3.386387 -0.669358 0
M  V30 16 N -1.736910 1.066161 -0.600271 0
M  V30 17 C -2.912691 1.205851 -1.297863 0
M  V30 18 C -4.278855 1.079026 -0.687384 0
M  V30 19 C -4.710245 1.186576 -2.179978 0
M  V30 20 C -3.427761 0.297341 -2.356154 0
M  V30 21 C -1.023663 0.046521 -0.102369 0
M  V30 22 N -1.578937 -1.240976 -0.323096 0
M  V30 23 C -2.264310 -2.457656 -0.628675 0
M  V30 24 C -2.093672 -2.972455 -2.067414 0
M  V30 25 C -2.497207 -3.492141 0.433811 0
M  V30 26 C -3.630330 -2.686934 -0.062671 0
M  V30 27 N 0.139098 0.125918 0.576912 0
M  V30 28 C 0.762900 1.269380 0.857857 0
M  V30 29 N 2.280177 -1.266581 1.943534 0
M  V30 30 C 3.183341 -2.059937 2.536091 0
M  V30 31 H 3.529450 -3.587428 0.709396 0
M  V30 32 H 4.652711 -4.756867 1.583825 0
M  V30 33 H 2.891941 -5.085387 1.547298 0
M  V30 34 H 2.735633 -3.872692 3.521613 0
M  V30 35 H 5.229064 -4.294162 3.911466 0
M  V30 36 H 4.384852 0.908471 3.020439 0
M  V30 37 H 3.426593 2.612700 2.325766 0
M  V30 38 H 2.345238 4.614991 1.537142 0
M  V30 39 H 0.225451 4.500122 0.296768 0
M  V30 40 H -2.959962 2.246314 -1.807535 0
M  V30 41 H -4.581515 1.935267 -0.081682 0
M  V30 42 H -4.646101 0.109520 -0.375476 0
M  V30 43 H -5.634676 0.675450 -2.423530 0
M  V30 44 H -4.556491 2.225435 -2.490415 0
M  V30 45 H -3.022962 0.441784 -3.378103 0
M  V30 46 H -3.769596 -0.700939 -2.144086 0
M  V30 47 H -0.897827 -1.946465 0.037823 0
M  V30 48 H -3.089294 -2.963058 -2.543902 0
M  V30 49 H -1.380346 -2.329202 -2.596009 0
M  V30 50 H -1.766085 -4.035210 -2.048009 0
M  V30 51 H -2.159616 -3.286910 1.475986 0
M  V30 52 H -2.420203 -4.568173 0.138468 0
M  V30 53 H -4.107563 -1.990849 0.643474 0
M  V30 54 H -4.362687 -3.157696 -0.742243 0
M  V30 55 H 1.428278 -1.630370 1.468629 0
M  V30 END ATOM
M  V30 BEGIN BOND
M  V30 1 1 1 2
M  V30 2 1 2 3
M  V30 3 1 3 4
M  V30 4 2 4 5
M  V30 5 1 4 6
M  V30 6 1 6 7
M  V30 7 2 7 8
M  V30 8 1 8 9
M  V30 9 2 9 10
M  V30 10 1 10 11
M  V30 11 2 11 12
M  V30 12 1 12 13
M  V30 13 1 13 14
M  V30 14 2 14 15
M  V30 15 1 14 16
M  V30 16 1 16 17
M  V30 17 1 17 18
M  V30 18 1 18 19
M  V30 19 1 19 20
M  V30 20 1 16 21
M  V30 21 1 21 22
M  V30 22 1 22 23
M  V30 23 1 23 24
M  V30 24 1 23 25
M  V30 25 1 25 26
M  V30 26 2 21 27
M  V30 27 1 27 28
M  V30 28 1 8 29
M  V30 29 1 29 30
M  V30 30 1 30 2
M  V30 31 2 30 6
M  V30 32 1 28 9
M  V30 33 2 28 13
M  V30 34 1 20 17
M  V30 35 1 26 23
M  V30 36 1 1 31
M  V30 37 1 1 32
M  V30 38 1 1 33
M  V30 39 1 2 34 CFG=1
M  V30 40 1 3 35
M  V30 41 1 7 36
M  V30 42 1 10 37
M  V30 43 1 11 38
M  V30 44 1 12 39
M  V30 45 1 17 40
M  V30 46 1 18 41
M  V30 47 1 18 42
M  V30 48 1 19 43
M  V30 49 1 19 44
M  V30 50 1 20 45
M  V30 51 1 20 46
M  V30 52 1 22 47
M  V30 53 1 24 48
M  V30 54 1 24 49
M  V30 55 1 24 50
M  V30 56 1 25 51
M  V30 57 1 25 52
M  V30 58 1 26 53
M  V30 59 1 26 54
M  V30 60 1 29 55
M  V30 END BOND
M  V30 END CTAB
M  END
>  <Dataset>  (294) 
ChEMBL_Kinases

>  <Ligand_Instance>  (294) 
nan

>  <PDB_ID>  (294) 
nan

>  <Standardized_SMILES>  (294) 
C[C@H]1NC(=O)c2cc(-c3cccc4c(=O)n(C5CCC5)c(NC5(C)CC5)nc34)[nH]c21

>  <Name>  (294) 
nan

>  <Pocket>  (294) 
nan

>  <ATP_Site>  (294) 
nan

>  <Peripheral>  (294) 
nan

>  <Num_H_Atoms_ProtBoundConf>  (294) 
nan

>  <Num_Resolved_Atoms>  (294) 
nan

>  <Num_Not_Resolved_Atoms>  (294) 
nan

$$$$
CHEMBL4471195
     RDKit          3D

  0  0  0  0  0  0  0  0  0  0999 V3000
M  V30 BEGIN CTAB
M  V30 COUNTS 42 44 0 0 0
M  V30 BEGIN ATOM
M  V30 1 N 3.345861 -6.744565 0.780185 0
M  V30 2 C 4.263053 -5.667855 0.538150 0
M  V30 3 O 5.458279 -5.775351 0.904558 0
M  V30 4 C 3.784146 -4.468309 -0.130464 0
M  V30 5 C 4.569482 -3.392195 -0.394952 0
M  V30 6 C 4.126213 -2.246720 -1.031151 0
M  V30 7 C 2.816219 -2.152832 -1.436150 0
M  V30 8 C 2.296585 -0.945853 -2.122972 0
M  V30 9 N 1.787904 0.064280 -1.257070 0
M  V30 10 C 0.539608 0.053131 -0.583807 0
M  V30 11 O -0.246631 -0.917592 -0.723598 0
M  V30 12 C 0.091095 1.144813 0.299155 0
M  V30 13 C 0.775380 2.307428 0.609603 0
M  V30 14 N -0.028257 3.006372 1.457321 0
M  V30 15 N -1.151599 2.313998 1.661704 0
M  V30 16 C -2.278618 2.671234 2.486760 0
M  V30 17 C -2.209217 3.099948 3.799655 0
M  V30 18 C -3.379114 3.405744 4.467659 0
M  V30 19 C -4.602270 3.292560 3.855710 0
M  V30 20 C -4.668286 2.865452 2.548468 0
M  V30 21 C -3.514529 2.549362 1.845429 0
M  V30 22 C -1.107391 1.148040 0.952632 0
M  V30 23 N -2.128933 0.169854 0.932449 0
M  V30 24 C 1.997484 -3.230643 -1.179997 0
M  V30 25 C 2.472097 -4.366582 -0.539598 0
M  V30 26 H 2.368362 -6.772282 1.112437 0
M  V30 27 H 3.528430 -7.750215 0.651004 0
M  V30 28 H 5.604071 -3.381888 -0.113236 0
M  V30 29 H 4.773448 -1.404219 -1.228785 0
M  V30 30 H 1.509761 -1.315906 -2.814587 0
M  V30 31 H 3.110816 -0.588828 -2.787703 0
M  V30 32 H 2.341380 0.925345 -1.056043 0
M  V30 33 H 1.764652 2.604544 0.245457 0
M  V30 34 H -1.189110 3.151717 4.182091 0
M  V30 35 H -3.204543 3.728506 5.483262 0
M  V30 36 H -5.480077 3.547073 4.434591 0
M  V30 37 H -5.664359 2.787507 2.093932 0
M  V30 38 H -3.671161 2.223441 0.825021 0
M  V30 39 H -1.781027 -0.609045 1.560101 0
M  V30 40 H -1.914687 -0.649197 1.508625 0
M  V30 41 H 0.953407 -3.260096 -1.459035 0
M  V30 42 H 1.806968 -5.212718 -0.345100 0
M  V30 END ATOM
M  V30 BEGIN BOND
M  V30 1 1 1 2
M  V30 2 2 2 3
M  V30 3 1 2 4
M  V30 4 2 4 5
M  V30 5 1 5 6
M  V30 6 2 6 7
M  V30 7 1 7 8
M  V30 8 1 8 9
M  V30 9 1 9 10
M  V30 10 2 10 11
M  V30 11 1 10 12
M  V30 12 1 12 13
M  V30 13 2 13 14
M  V30 14 1 14 15
M  V30 15 1 15 16
M  V30 16 2 16 17
M  V30 17 1 17 18
M  V30 18 2 18 19
M  V30 19 1 19 20
M  V30 20 2 20 21
M  V30 21 1 15 22
M  V30 22 1 22 23
M  V30 23 1 7 24
M  V30 24 2 24 25
M  V30 25 1 25 4
M  V30 26 2 22 12
M  V30 27 1 21 16
M  V30 28 1 1 26
M  V30 29 1 1 27
M  V30 30 1 5 28
M  V30 31 1 6 29
M  V30 32 1 8 30
M  V30 33 1 8 31
M  V30 34 1 9 32
M  V30 35 1 13 33
M  V30 36 1 17 34
M  V30 37 1 18 35
M  V30 38 1 19 36
M  V30 39 1 20 37
M  V30 40 1 21 38
M  V30 41 1 23 39
M  V30 42 1 23 40
M  V30 43 1 24 41
M  V30 44 1 25 42
M  V30 END BOND
M  V30 END CTAB
M  END
>  <Dataset>  (295) 
ChEMBL_Kinases

>  <Ligand_Instance>  (295) 
nan

>  <PDB_ID>  (295) 
nan

>  <Standardized_SMILES>  (295) 
NC(=O)c1ccc(CNC(=O)c2cnn(-c3ccccc3)c2N)cc1

>  <Name>  (295) 
nan

>  <Pocket>  (295) 
nan

>  <ATP_Site>  (295) 
nan

>  <Peripheral>  (295) 
nan

>  <Num_H_Atoms_ProtBoundConf>  (295) 
nan

>  <Num_Resolved_Atoms>  (295) 
nan

>  <Num_Not_Resolved_Atoms>  (295) 
nan

$$$$
CHEMBL3698722
     RDKit          3D

  0  0  0  0  0  0  0  0  0  0999 V3000
M  V30 BEGIN CTAB
M  V30 COUNTS 56 61 0 0 0
M  V30 BEGIN ATOM
M  V30 1 C -3.960330 -6.355682 1.323520 0
M  V30 2 C -3.312591 -5.353620 2.054616 0
M  V30 3 C -2.231260 -4.700118 1.521818 0
M  V30 4 C -1.431580 -3.694561 2.026917 0
M  V30 5 C -1.370814 -2.963707 3.191846 0
M  V30 6 N -0.444489 -2.011872 3.410476 0
M  V30 7 C 0.477821 -1.747424 2.452078 0
M  V30 8 N 1.432935 -0.724857 2.748413 0
M  V30 9 C 1.061135 0.597706 2.369660 0
M  V30 10 C -0.157549 0.807132 1.758782 0
M  V30 11 C -0.580996 2.079959 1.362628 0
M  V30 12 C 0.275494 3.148444 1.605723 0
M  V30 13 N -0.094299 4.468938 1.226891 0
M  V30 14 C 0.838456 5.544261 1.504459 0 CFG=1
M  V30 15 C 2.168802 5.366585 0.829641 0
M  V30 16 C 2.541880 6.650779 0.155424 0
M  V30 17 N 1.569205 7.597876 0.624464 0
M  V30 18 C 0.352464 6.863902 0.946584 0
M  V30 19 N 1.451529 2.886722 2.204434 0
M  V30 20 N 1.837526 1.675338 2.573370 0
M  V30 21 N 0.460535 -2.438834 1.288428 0
M  V30 22 C -0.475193 -3.402575 1.063721 0
M  V30 23 N -0.659947 -4.202129 -0.028993 0
M  V30 24 C 0.082979 -4.246522 -1.242428 0
M  V30 25 C 0.645925 -5.604900 -1.566732 0
M  V30 26 C 0.362142 -5.796839 -3.035027 0
M  V30 27 C 0.231938 -4.386483 -3.562298 0
M  V30 28 C -0.637141 -3.764948 -2.461281 0
M  V30 29 C -1.727471 -4.989040 0.252885 0
M  V30 30 C -2.426395 -5.992892 -0.402516 0
M  V30 31 N -3.473196 -6.634010 0.098543 0
M  V30 32 H -4.803037 -6.810708 1.831882 0
M  V30 33 H -3.638175 -5.062875 3.054440 0
M  V30 34 H -2.123849 -3.205317 3.931016 0
M  V30 35 H 2.345976 -0.917665 3.210648 0
M  V30 36 H -0.842378 0.010950 1.555699 0
M  V30 37 H -1.526854 2.288061 0.881240 0
M  V30 38 H -1.016987 4.621226 0.765029 0
M  V30 39 H 0.966925 5.558762 2.595439 0
M  V30 40 H 2.137748 4.517053 0.100287 0
M  V30 41 H 2.955486 5.119999 1.581648 0
M  V30 42 H 2.595270 6.594161 -0.950329 0
M  V30 43 H 3.570977 6.986707 0.475963 0
M  V30 44 H 1.421484 8.309270 -0.131403 0
M  V30 45 H -0.238782 7.391460 1.720226 0
M  V30 46 H -0.249095 6.623278 0.048362 0
M  V30 47 H 0.967827 -3.555294 -1.114317 0
M  V30 48 H 0.265023 -6.408159 -0.927594 0
M  V30 49 H 1.764387 -5.636272 -1.450976 0
M  V30 50 H -0.572513 -6.324341 -3.259133 0
M  V30 51 H 1.208021 -6.341983 -3.516782 0
M  V30 52 H -0.273494 -4.320442 -4.535120 0
M  V30 53 H 1.209221 -3.877891 -3.498038 0
M  V30 54 H -0.512784 -2.662111 -2.601526 0
M  V30 55 H -1.687868 -4.095150 -2.544089 0
M  V30 56 H -2.106542 -6.285214 -1.395770 0
M  V30 END ATOM
M  V30 BEGIN BOND
M  V30 1 2 1 2
M  V30 2 1 2 3
M  V30 3 1 3 4
M  V30 4 2 4 5
M  V30 5 1 5 6
M  V30 6 2 6 7
M  V30 7 1 7 8
M  V30 8 1 8 9
M  V30 9 2 9 10
M  V30 10 1 10 11
M  V30 11 2 11 12
M  V30 12 1 12 13
M  V30 13 1 13 14
M  V30 14 1 14 15
M  V30 15 1 15 16
M  V30 16 1 16 17
M  V30 17 1 17 18
M  V30 18 1 12 19
M  V30 19 2 19 20
M  V30 20 1 7 21
M  V30 21 2 21 22
M  V30 22 1 22 23
M  V30 23 1 23 24
M  V30 24 1 24 25
M  V30 25 1 25 26
M  V30 26 1 26 27
M  V30 27 1 27 28
M  V30 28 1 23 29
M  V30 29 1 29 30
M  V30 30 2 30 31
M  V30 31 1 31 1
M  V30 32 2 29 3
M  V30 33 1 22 4
M  V30 34 1 28 24
M  V30 35 1 20 9
M  V30 36 1 18 14
M  V30 37 1 1 32
M  V30 38 1 2 33
M  V30 39 1 5 34
M  V30 40 1 8 35
M  V30 41 1 10 36
M  V30 42 1 11 37
M  V30 43 1 13 38
M  V30 44 1 14 39 CFG=1
M  V30 45 1 15 40
M  V30 46 1 15 41
M  V30 47 1 16 42
M  V30 48 1 16 43
M  V30 49 1 17 44
M  V30 50 1 18 45
M  V30 51 1 18 46
M  V30 52 1 24 47
M  V30 53 1 25 48
M  V30 54 1 25 49
M  V30 55 1 26 50
M  V30 56 1 26 51
M  V30 57 1 27 52
M  V30 58 1 27 53
M  V30 59 1 28 54
M  V30 60 1 28 55
M  V30 61 1 30 56
M  V30 END BOND
M  V30 END CTAB
M  END
>  <Dataset>  (296) 
ChEMBL_Kinases

>  <Ligand_Instance>  (296) 
nan

>  <PDB_ID>  (296) 
nan

>  <Standardized_SMILES>  (296) 
c1cc2c3cnc(Nc4ccc(N[C@H]5CCNC5)nn4)nc3n(C3CCCC3)c2cn1

>  <Name>  (296) 
nan

>  <Pocket>  (296) 
nan

>  <ATP_Site>  (296) 
nan

>  <Peripheral>  (296) 
nan

>  <Num_H_Atoms_ProtBoundConf>  (296) 
nan

>  <Num_Resolved_Atoms>  (296) 
nan

>  <Num_Not_Resolved_Atoms>  (296) 
nan

$$$$
CHEMBL3698721
     RDKit          3D

  0  0  0  0  0  0  0  0  0  0999 V3000
M  V30 BEGIN CTAB
M  V30 COUNTS 56 61 0 0 0
M  V30 BEGIN ATOM
M  V30 1 C -3.932305 -4.589221 4.463350 0
M  V30 2 C -2.862036 -3.732134 4.497903 0
M  V30 3 C -2.037750 -3.563107 3.401393 0
M  V30 4 C -0.921663 -2.780762 3.182480 0
M  V30 5 C -0.211633 -1.884827 3.954066 0
M  V30 6 N 0.884909 -1.238336 3.459204 0
M  V30 7 C 1.254492 -1.505922 2.181673 0
M  V30 8 N 2.364156 -0.930509 1.500929 0
M  V30 9 C 2.085804 0.284171 0.802859 0
M  V30 10 C 0.819569 0.831284 0.812071 0
M  V30 11 C 0.500919 2.001364 0.154766 0
M  V30 12 C 1.505157 2.650472 -0.544562 0
M  V30 13 N 1.224333 3.855114 -1.234234 0
M  V30 14 C 2.238527 4.558736 -1.970878 0 CFG=2
M  V30 15 C 3.409350 4.997880 -1.122087 0
M  V30 16 C 2.900595 6.246715 -0.464271 0
M  V30 17 N 1.909658 6.820676 -1.348426 0
M  V30 18 C 1.725422 5.908557 -2.454012 0
M  V30 19 N 2.730343 2.101143 -0.540900 0
M  V30 20 N 3.011567 0.977092 0.097655 0
M  V30 21 N 0.565665 -2.387627 1.404635 0
M  V30 22 C -0.529110 -3.039110 1.885018 0
M  V30 23 N -1.346312 -3.948524 1.275479 0
M  V30 24 C -1.271415 -4.471851 -0.054006 0
M  V30 25 C -1.299773 -5.953889 -0.186711 0
M  V30 26 C -2.324887 -6.220093 -1.282081 0
M  V30 27 C -2.192307 -4.952040 -2.132792 0
M  V30 28 C -2.295717 -3.910465 -1.009167 0
M  V30 29 C -2.256615 -4.249932 2.224218 0
M  V30 30 C -3.348154 -5.095571 2.254221 0
M  V30 31 N -4.159233 -5.266420 3.322807 0
M  V30 32 H -4.597386 -4.752125 5.287575 0
M  V30 33 H -2.655508 -3.175119 5.400179 0
M  V30 34 H -0.524037 -1.688516 4.966247 0
M  V30 35 H 3.309623 -1.321715 1.484677 0
M  V30 36 H 0.014088 0.344564 1.351223 0
M  V30 37 H -0.523712 2.394024 0.194278 0
M  V30 38 H 0.267538 4.251718 -1.216338 0
M  V30 39 H 2.643486 3.953794 -2.807199 0
M  V30 40 H 3.776200 4.234932 -0.436735 0
M  V30 41 H 4.241459 5.271067 -1.820345 0
M  V30 42 H 3.735459 6.978406 -0.326971 0
M  V30 43 H 2.408373 6.045033 0.512754 0
M  V30 44 H 2.188760 7.738478 -1.728520 0
M  V30 45 H 2.155064 6.226406 -3.401862 0
M  V30 46 H 0.622920 5.809190 -2.588325 0
M  V30 47 H -0.279707 -4.129333 -0.474155 0
M  V30 48 H -1.462436 -6.528140 0.727043 0
M  V30 49 H -0.345664 -6.376741 -0.615395 0
M  V30 50 H -3.359131 -6.218076 -0.939617 0
M  V30 51 H -2.142738 -7.138936 -1.844102 0
M  V30 52 H -1.171186 -4.912734 -2.538632 0
M  V30 53 H -2.981059 -4.850844 -2.879893 0
M  V30 54 H -1.921347 -2.965136 -1.488525 0
M  V30 55 H -3.305407 -3.825577 -0.610002 0
M  V30 56 H -3.611703 -5.683349 1.384885 0
M  V30 END ATOM
M  V30 BEGIN BOND
M  V30 1 2 1 2
M  V30 2 1 2 3
M  V30 3 1 3 4
M  V30 4 2 4 5
M  V30 5 1 5 6
M  V30 6 2 6 7
M  V30 7 1 7 8
M  V30 8 1 8 9
M  V30 9 2 9 10
M  V30 10 1 10 11
M  V30 11 2 11 12
M  V30 12 1 12 13
M  V30 13 1 13 14
M  V30 14 1 14 15
M  V30 15 1 15 16
M  V30 16 1 16 17
M  V30 17 1 17 18
M  V30 18 1 12 19
M  V30 19 2 19 20
M  V30 20 1 7 21
M  V30 21 2 21 22
M  V30 22 1 22 23
M  V30 23 1 23 24
M  V30 24 1 24 25
M  V30 25 1 25 26
M  V30 26 1 26 27
M  V30 27 1 27 28
M  V30 28 1 23 29
M  V30 29 1 29 30
M  V30 30 2 30 31
M  V30 31 1 31 1
M  V30 32 2 29 3
M  V30 33 1 22 4
M  V30 34 1 28 24
M  V30 35 1 20 9
M  V30 36 1 18 14
M  V30 37 1 1 32
M  V30 38 1 2 33
M  V30 39 1 5 34
M  V30 40 1 8 35
M  V30 41 1 10 36
M  V30 42 1 11 37
M  V30 43 1 13 38
M  V30 44 1 14 39 CFG=3
M  V30 45 1 15 40
M  V30 46 1 15 41
M  V30 47 1 16 42
M  V30 48 1 16 43
M  V30 49 1 17 44
M  V30 50 1 18 45
M  V30 51 1 18 46
M  V30 52 1 24 47
M  V30 53 1 25 48
M  V30 54 1 25 49
M  V30 55 1 26 50
M  V30 56 1 26 51
M  V30 57 1 27 52
M  V30 58 1 27 53
M  V30 59 1 28 54
M  V30 60 1 28 55
M  V30 61 1 30 56
M  V30 END BOND
M  V30 END CTAB
M  END
>  <Dataset>  (297) 
ChEMBL_Kinases

>  <Ligand_Instance>  (297) 
nan

>  <PDB_ID>  (297) 
nan

>  <Standardized_SMILES>  (297) 
c1cc2c3cnc(Nc4ccc(N[C@@H]5CCNC5)nn4)nc3n(C3CCCC3)c2cn1

>  <Name>  (297) 
nan

>  <Pocket>  (297) 
nan

>  <ATP_Site>  (297) 
nan

>  <Peripheral>  (297) 
nan

>  <Num_H_Atoms_ProtBoundConf>  (297) 
nan

>  <Num_Resolved_Atoms>  (297) 
nan

>  <Num_Not_Resolved_Atoms>  (297) 
nan

$$$$
CHEMBL3698708
     RDKit          3D

  0  0  0  0  0  0  0  0  0  0999 V3000
M  V30 BEGIN CTAB
M  V30 COUNTS 62 67 0 0 0
M  V30 BEGIN ATOM
M  V30 1 C 4.585091 -0.372329 6.853721 0
M  V30 2 N 3.939883 -1.378899 6.066822 0
M  V30 3 C 3.747574 -1.036953 4.675787 0
M  V30 4 C 5.050350 -0.783713 3.997323 0
M  V30 5 C 4.942745 -0.797753 2.486913 0
M  V30 6 N 3.594264 -0.932512 2.030165 0
M  V30 7 C 2.817012 -0.085202 1.198198 0
M  V30 8 C 3.300254 1.006188 0.508239 0
M  V30 9 C 2.418347 1.737196 -0.264800 0
M  V30 10 C 1.077836 1.422529 -0.375668 0
M  V30 11 N 0.142972 2.153422 -1.194319 0
M  V30 12 C -1.216477 1.722381 -1.171103 0
M  V30 13 N -2.018740 2.539483 -0.451905 0
M  V30 14 C -3.310729 2.276210 -0.317644 0
M  V30 15 C -3.879221 1.160660 -0.906046 0
M  V30 16 C -5.130374 0.573728 -0.987433 0
M  V30 17 C -6.291123 1.041067 -0.411497 0
M  V30 18 C -7.449260 0.290870 -0.622331 0
M  V30 19 N -7.386036 -0.837860 -1.366070 0
M  V30 20 C -6.250192 -1.280660 -1.920221 0
M  V30 21 C -5.057806 -0.581640 -1.750353 0
M  V30 22 N -3.762015 -0.705348 -2.138142 0
M  V30 23 C -3.369210 -1.832665 -2.945746 0
M  V30 24 C -3.101137 -3.061380 -2.071394 0
M  V30 25 C -2.516556 -4.004174 -3.098739 0
M  V30 26 C -1.724047 -3.125638 -4.004468 0
M  V30 27 C -2.026200 -1.686255 -3.605953 0
M  V30 28 C -3.054636 0.332095 -1.637547 0
M  V30 29 N -1.739430 0.628049 -1.756757 0
M  V30 30 N 0.690162 0.347499 0.327390 0
M  V30 31 N 1.512359 -0.365120 1.071154 0
M  V30 32 C 3.046768 -2.164954 2.552601 0
M  V30 33 C 2.974090 -2.197256 4.055947 0
M  V30 34 H 3.753914 0.276839 7.259576 0
M  V30 35 H 5.038474 -0.877230 7.730214 0
M  V30 36 H 5.320054 0.253951 6.312873 0
M  V30 37 H 4.274653 -2.344709 6.210028 0
M  V30 38 H 3.129117 -0.110160 4.651701 0
M  V30 39 H 5.894580 -1.406958 4.372187 0
M  V30 40 H 5.363782 0.267788 4.269762 0
M  V30 41 H 5.550770 -1.669112 2.152706 0
M  V30 42 H 5.433351 0.090377 2.011574 0
M  V30 43 H 4.329163 1.242757 0.597663 0
M  V30 44 H 2.783186 2.601725 -0.815445 0
M  V30 45 H 0.553686 2.958449 -1.748778 0
M  V30 46 H -4.037040 2.881735 0.246071 0
M  V30 47 H -6.398889 1.922531 0.180893 0
M  V30 48 H -8.444448 0.512780 -0.245750 0
M  V30 49 H -6.190473 -2.195432 -2.522936 0
M  V30 50 H -4.104289 -2.130154 -3.692181 0
M  V30 51 H -4.025496 -3.451236 -1.600755 0
M  V30 52 H -2.294652 -2.852123 -1.336258 0
M  V30 53 H -3.387205 -4.403550 -3.682229 0
M  V30 54 H -1.937976 -4.826863 -2.631214 0
M  V30 55 H -2.028959 -3.198707 -5.083061 0
M  V30 56 H -0.638858 -3.350871 -3.860567 0
M  V30 57 H -2.000266 -0.990769 -4.451567 0
M  V30 58 H -1.274970 -1.442271 -2.802602 0
M  V30 59 H 1.985560 -2.280748 2.196759 0
M  V30 60 H 3.638075 -3.049610 2.219084 0
M  V30 61 H 3.425913 -3.127577 4.475564 0
M  V30 62 H 1.931542 -2.124156 4.444272 0
M  V30 END ATOM
M  V30 BEGIN BOND
M  V30 1 1 1 2
M  V30 2 1 2 3
M  V30 3 1 3 4
M  V30 4 1 4 5
M  V30 5 1 5 6
M  V30 6 1 6 7
M  V30 7 2 7 8
M  V30 8 1 8 9
M  V30 9 2 9 10
M  V30 10 1 10 11
M  V30 11 1 11 12
M  V30 12 2 12 13
M  V30 13 1 13 14
M  V30 14 2 14 15
M  V30 15 1 15 16
M  V30 16 2 16 17
M  V30 17 1 17 18
M  V30 18 2 18 19
M  V30 19 1 19 20
M  V30 20 2 20 21
M  V30 21 1 21 22
M  V30 22 1 22 23
M  V30 23 1 23 24
M  V30 24 1 24 25
M  V30 25 1 25 26
M  V30 26 1 26 27
M  V30 27 1 22 28
M  V30 28 2 28 29
M  V30 29 1 10 30
M  V30 30 2 30 31
M  V30 31 1 6 32
M  V30 32 1 32 33
M  V30 33 1 33 3
M  V30 34 1 31 7
M  V30 35 1 29 12
M  V30 36 1 28 15
M  V30 37 1 21 16
M  V30 38 1 27 23
M  V30 39 1 1 34
M  V30 40 1 1 35
M  V30 41 1 1 36
M  V30 42 1 2 37
M  V30 43 1 3 38
M  V30 44 1 4 39
M  V30 45 1 4 40
M  V30 46 1 5 41
M  V30 47 1 5 42
M  V30 48 1 8 43
M  V30 49 1 9 44
M  V30 50 1 11 45
M  V30 51 1 14 46
M  V30 52 1 17 47
M  V30 53 1 18 48
M  V30 54 1 20 49
M  V30 55 1 23 50
M  V30 56 1 24 51
M  V30 57 1 24 52
M  V30 58 1 25 53
M  V30 59 1 25 54
M  V30 60 1 26 55
M  V30 61 1 26 56
M  V30 62 1 27 57
M  V30 63 1 27 58
M  V30 64 1 32 59
M  V30 65 1 32 60
M  V30 66 1 33 61
M  V30 67 1 33 62
M  V30 END BOND
M  V30 END CTAB
M  END
>  <Dataset>  (298) 
ChEMBL_Kinases

>  <Ligand_Instance>  (298) 
nan

>  <PDB_ID>  (298) 
nan

>  <Standardized_SMILES>  (298) 
CNC1CCN(c2ccc(Nc3ncc4c5ccncc5n(C5CCCC5)c4n3)nn2)CC1

>  <Name>  (298) 
nan

>  <Pocket>  (298) 
nan

>  <ATP_Site>  (298) 
nan

>  <Peripheral>  (298) 
nan

>  <Num_H_Atoms_ProtBoundConf>  (298) 
nan

>  <Num_Resolved_Atoms>  (298) 
nan

>  <Num_Not_Resolved_Atoms>  (298) 
nan

$$$$
CHEMBL3698700
     RDKit          3D

  0  0  0  0  0  0  0  0  0  0999 V3000
M  V30 BEGIN CTAB
M  V30 COUNTS 60 65 0 0 0
M  V30 BEGIN ATOM
M  V30 1 C 3.775448 -1.549012 7.421591 0
M  V30 2 C 3.991307 -1.084505 6.135580 0
M  V30 3 C 3.120724 -1.552804 5.178882 0
M  V30 4 C 3.058219 -1.292936 3.825290 0
M  V30 5 C 3.768644 -0.523762 2.911694 0
M  V30 6 N 3.427257 -0.494076 1.600477 0
M  V30 7 C 2.384973 -1.213021 1.145848 0
M  V30 8 N 1.941775 -1.261833 -0.180203 0
M  V30 9 C 0.978121 -0.407952 -0.775105 0
M  V30 10 C 0.348057 0.605353 -0.084070 0
M  V30 11 C -0.590732 1.437825 -0.658302 0
M  V30 12 C -0.924640 1.250358 -2.007504 0
M  V30 13 N -1.874805 2.070429 -2.668946 0
M  V30 14 C -2.352074 2.023607 -4.007461 0
M  V30 15 C -3.110577 0.779769 -4.386194 0
M  V30 16 C -3.013705 0.696788 -5.916792 0
M  V30 17 N -3.680917 1.856775 -6.453610 0
M  V30 18 C -3.200439 3.113850 -5.971488 0
M  V30 19 C -3.155362 3.190984 -4.440689 0
M  V30 20 C -0.267088 0.224317 -2.655100 0
M  V30 21 N 0.657117 -0.587040 -2.070098 0
M  V30 22 N 1.675789 -1.968738 2.005415 0
M  V30 23 C 1.981816 -2.026026 3.315014 0
M  V30 24 N 1.422258 -2.705714 4.356658 0
M  V30 25 C 0.273490 -3.577694 4.204945 0
M  V30 26 C -0.855066 -2.919426 3.474909 0
M  V30 27 C -1.147054 -3.735716 2.259986 0
M  V30 28 C -0.059172 -4.755740 2.124786 0
M  V30 29 C 0.633414 -4.829266 3.471708 0
M  V30 30 C 2.104962 -2.427203 5.496706 0
M  V30 31 C 1.923608 -2.866047 6.789567 0
M  V30 32 N 2.777887 -2.410874 7.747289 0
M  V30 33 H 4.420022 -1.226299 8.234470 0
M  V30 34 H 4.786287 -0.399309 5.883195 0
M  V30 35 H 4.596760 0.038747 3.311367 0
M  V30 36 H 2.397764 -2.008063 -0.715187 0
M  V30 37 H 0.579039 0.780741 0.958041 0
M  V30 38 H -1.076667 2.232620 -0.093615 0
M  V30 39 H -2.306535 2.844648 -2.088502 0
M  V30 40 H -1.425026 2.000886 -4.661209 0
M  V30 41 H -4.195671 1.027300 -4.180032 0
M  V30 42 H -2.802476 -0.136277 -3.891002 0
M  V30 43 H -3.536098 -0.195628 -6.257729 0
M  V30 44 H -1.918191 0.708471 -6.122219 0
M  V30 45 H -3.468872 1.844179 -7.486552 0
M  V30 46 H -2.180670 3.331139 -6.349214 0
M  V30 47 H -3.933726 3.886538 -6.296395 0
M  V30 48 H -4.204388 3.186813 -4.087022 0
M  V30 49 H -2.703174 4.175680 -4.211559 0
M  V30 50 H -0.442656 -0.005988 -3.694082 0
M  V30 51 H -0.102880 -3.856245 5.223934 0
M  V30 52 H -1.802934 -2.904136 4.084335 0
M  V30 53 H -0.655413 -1.839633 3.271887 0
M  V30 54 H -2.116154 -4.304865 2.339863 0
M  V30 55 H -1.256577 -3.117968 1.340699 0
M  V30 56 H -0.445351 -5.779714 1.850697 0
M  V30 57 H 0.630612 -4.473984 1.322200 0
M  V30 58 H 0.266279 -5.730465 4.003808 0
M  V30 59 H 1.729303 -4.929452 3.384868 0
M  V30 60 H 1.110832 -3.555368 6.999038 0
M  V30 END ATOM
M  V30 BEGIN BOND
M  V30 1 2 1 2
M  V30 2 1 2 3
M  V30 3 1 3 4
M  V30 4 2 4 5
M  V30 5 1 5 6
M  V30 6 2 6 7
M  V30 7 1 7 8
M  V30 8 1 8 9
M  V30 9 2 9 10
M  V30 10 1 10 11
M  V30 11 2 11 12
M  V30 12 1 12 13
M  V30 13 1 13 14
M  V30 14 1 14 15
M  V30 15 1 15 16
M  V30 16 1 16 17
M  V30 17 1 17 18
M  V30 18 1 18 19
M  V30 19 1 12 20
M  V30 20 2 20 21
M  V30 21 1 7 22
M  V30 22 2 22 23
M  V30 23 1 23 24
M  V30 24 1 24 25
M  V30 25 1 25 26
M  V30 26 1 26 27
M  V30 27 1 27 28
M  V30 28 1 28 29
M  V30 29 1 24 30
M  V30 30 1 30 31
M  V30 31 2 31 32
M  V30 32 1 32 1
M  V30 33 2 30 3
M  V30 34 1 23 4
M  V30 35 1 29 25
M  V30 36 1 21 9
M  V30 37 1 19 14
M  V30 38 1 1 33
M  V30 39 1 2 34
M  V30 40 1 5 35
M  V30 41 1 8 36
M  V30 42 1 10 37
M  V30 43 1 11 38
M  V30 44 1 13 39
M  V30 45 1 14 40
M  V30 46 1 15 41
M  V30 47 1 15 42
M  V30 48 1 16 43
M  V30 49 1 16 44
M  V30 50 1 17 45
M  V30 51 1 18 46
M  V30 52 1 18 47
M  V30 53 1 19 48
M  V30 54 1 19 49
M  V30 55 1 20 50
M  V30 56 1 25 51
M  V30 57 1 26 52
M  V30 58 1 26 53
M  V30 59 1 27 54
M  V30 60 1 27 55
M  V30 61 1 28 56
M  V30 62 1 28 57
M  V30 63 1 29 58
M  V30 64 1 29 59
M  V30 65 1 31 60
M  V30 END BOND
M  V30 END CTAB
M  END
>  <Dataset>  (299) 
ChEMBL_Kinases

>  <Ligand_Instance>  (299) 
nan

>  <PDB_ID>  (299) 
nan

>  <Standardized_SMILES>  (299) 
c1cc2c3cnc(Nc4ccc(NC5CCNCC5)cn4)nc3n(C3CCCC3)c2cn1

>  <Name>  (299) 
nan

>  <Pocket>  (299) 
nan

>  <ATP_Site>  (299) 
nan

>  <Peripheral>  (299) 
nan

>  <Num_H_Atoms_ProtBoundConf>  (299) 
nan

>  <Num_Resolved_Atoms>  (299) 
nan

>  <Num_Not_Resolved_Atoms>  (299) 
nan

$$$$
CHEMBL3698697
     RDKit          3D

  0  0  0  0  0  0  0  0  0  0999 V3000
M  V30 BEGIN CTAB
M  V30 COUNTS 58 63 0 0 0
M  V30 BEGIN ATOM
M  V30 1 O 2.821540 -5.980240 -0.994345 0
M  V30 2 S 4.134984 -5.630339 -0.357192 0
M  V30 3 O 4.667459 -6.909755 0.251597 0
M  V30 4 C 3.838507 -4.479941 0.939462 0
M  V30 5 C 4.913899 -3.393614 0.801110 0
M  V30 6 N 4.754444 -2.888218 -0.548312 0
M  V30 7 C 3.865901 -1.808539 -0.785594 0
M  V30 8 C 3.071964 -1.291250 0.213028 0
M  V30 9 C 2.199836 -0.240099 0.015101 0
M  V30 10 C 2.087394 0.349121 -1.227479 0
M  V30 11 N 1.198471 1.433492 -1.468147 0
M  V30 12 C 0.397274 1.934258 -0.405624 0
M  V30 13 N 0.709988 2.922378 0.456498 0
M  V30 14 C -0.174823 3.282327 1.422724 0
M  V30 15 C -1.400620 2.613646 1.501637 0
M  V30 16 C -2.487342 2.725556 2.332263 0
M  V30 17 C -2.727164 3.576951 3.407489 0
M  V30 18 C -3.940699 3.480804 4.096347 0
M  V30 19 N -4.867579 2.572363 3.721595 0
M  V30 20 C -4.616683 1.748090 2.668447 0
M  V30 21 C -3.428584 1.803653 1.952387 0
M  V30 22 N -2.950313 1.115747 0.897609 0
M  V30 23 C -3.629634 0.049431 0.191542 0
M  V30 24 C -3.935942 -1.106248 1.110882 0
M  V30 25 C -5.297711 -1.630267 0.734059 0
M  V30 26 C -5.954543 -0.556534 -0.070129 0
M  V30 27 C -4.935428 0.489409 -0.406998 0
M  V30 28 C -1.715753 1.590182 0.603028 0
M  V30 29 N -0.778089 1.287197 -0.336325 0
M  V30 30 N 2.856199 -0.144193 -2.214920 0
M  V30 31 C 3.697082 -1.169378 -1.992431 0
M  V30 32 C 5.541242 -3.572559 -1.521659 0
M  V30 33 C 5.274486 -5.054432 -1.579539 0
M  V30 34 H 2.847826 -4.010901 0.801793 0
M  V30 35 H 3.937423 -4.966639 1.940143 0
M  V30 36 H 5.876827 -3.959659 0.933126 0
M  V30 37 H 4.770057 -2.648683 1.583328 0
M  V30 38 H 3.061676 -1.660439 1.225839 0
M  V30 39 H 1.573785 0.171992 0.791808 0
M  V30 40 H 1.148433 1.842967 -2.417158 0
M  V30 41 H 0.073479 4.067372 2.107652 0
M  V30 42 H -1.977537 4.319749 3.719219 0
M  V30 43 H -4.096601 4.152508 4.922873 0
M  V30 44 H -5.387492 1.044233 2.412410 0
M  V30 45 H -3.001919 -0.334238 -0.620681 0
M  V30 46 H -3.189110 -1.936519 0.955461 0
M  V30 47 H -3.901399 -0.828986 2.191463 0
M  V30 48 H -5.238289 -2.551455 0.092229 0
M  V30 49 H -5.894741 -1.882612 1.657652 0
M  V30 50 H -6.438098 -0.983888 -0.995989 0
M  V30 51 H -6.827594 -0.126570 0.499066 0
M  V30 52 H -4.892690 0.583247 -1.517254 0
M  V30 53 H -5.270475 1.481100 -0.028348 0
M  V30 54 H 4.266366 -1.484845 -2.853077 0
M  V30 55 H 5.328673 -3.152776 -2.521337 0
M  V30 56 H 6.632592 -3.357082 -1.347641 0
M  V30 57 H 6.254027 -5.575699 -1.474030 0
M  V30 58 H 4.899626 -5.359031 -2.579391 0
M  V30 END ATOM
M  V30 BEGIN BOND
M  V30 1 2 1 2
M  V30 2 2 2 3
M  V30 3 1 2 4
M  V30 4 1 4 5
M  V30 5 1 5 6
M  V30 6 1 6 7
M  V30 7 2 7 8
M  V30 8 1 8 9
M  V30 9 2 9 10
M  V30 10 1 10 11
M  V30 11 1 11 12
M  V30 12 2 12 13
M  V30 13 1 13 14
M  V30 14 2 14 15
M  V30 15 1 15 16
M  V30 16 2 16 17
M  V30 17 1 17 18
M  V30 18 2 18 19
M  V30 19 1 19 20
M  V30 20 2 20 21
M  V30 21 1 21 22
M  V30 22 1 22 23
M  V30 23 1 23 24
M  V30 24 1 24 25
M  V30 25 1 25 26
M  V30 26 1 26 27
M  V30 27 1 22 28
M  V30 28 2 28 29
M  V30 29 1 10 30
M  V30 30 2 30 31
M  V30 31 1 6 32
M  V30 32 1 32 33
M  V30 33 1 33 2
M  V30 34 1 31 7
M  V30 35 1 29 12
M  V30 36 1 28 15
M  V30 37 1 21 16
M  V30 38 1 27 23
M  V30 39 1 4 34
M  V30 40 1 4 35
M  V30 41 1 5 36
M  V30 42 1 5 37
M  V30 43 1 8 38
M  V30 44 1 9 39
M  V30 45 1 11 40
M  V30 46 1 14 41
M  V30 47 1 17 42
M  V30 48 1 18 43
M  V30 49 1 20 44
M  V30 50 1 23 45
M  V30 51 1 24 46
M  V30 52 1 24 47
M  V30 53 1 25 48
M  V30 54 1 25 49
M  V30 55 1 26 50
M  V30 56 1 26 51
M  V30 57 1 27 52
M  V30 58 1 27 53
M  V30 59 1 31 54
M  V30 60 1 32 55
M  V30 61 1 32 56
M  V30 62 1 33 57
M  V30 63 1 33 58
M  V30 END BOND
M  V30 END CTAB
M  END
>  <Dataset>  (300) 
ChEMBL_Kinases

>  <Ligand_Instance>  (300) 
nan

>  <PDB_ID>  (300) 
nan

>  <Standardized_SMILES>  (300) 
O=S1(=O)CCN(c2ccc(Nc3ncc4c5ccncc5n(C5CCCC5)c4n3)nc2)CC1

>  <Name>  (300) 
nan

>  <Pocket>  (300) 
nan

>  <ATP_Site>  (300) 
nan

>  <Peripheral>  (300) 
nan

>  <Num_H_Atoms_ProtBoundConf>  (300) 
nan

>  <Num_Resolved_Atoms>  (300) 
nan

>  <Num_Not_Resolved_Atoms>  (300) 
nan

$$$$
CHEMBL3698696
     RDKit          3D

  0  0  0  0  0  0  0  0  0  0999 V3000
M  V30 BEGIN CTAB
M  V30 COUNTS 58 63 0 0 0
M  V30 BEGIN ATOM
M  V30 1 O 6.113187 -4.159525 5.525888 0
M  V30 2 S 5.823638 -4.259714 4.058342 0
M  V30 3 O 6.315088 -5.530324 3.442970 0
M  V30 4 C 6.469519 -2.835708 3.167670 0
M  V30 5 C 5.278622 -2.589549 2.229964 0
M  V30 6 C 4.091920 -2.645416 3.147441 0
M  V30 7 N 2.885656 -2.278714 2.488130 0
M  V30 8 C 2.460274 -1.028021 1.984178 0
M  V30 9 C 3.166991 0.150191 2.078792 0
M  V30 10 C 2.747874 1.362708 1.573607 0
M  V30 11 C 1.528459 1.383381 0.928345 0
M  V30 12 N 1.021683 2.575168 0.382071 0
M  V30 13 C -0.231355 2.679280 -0.300477 0
M  V30 14 N -0.736949 3.807367 -0.830894 0
M  V30 15 C -1.938723 3.789901 -1.457982 0
M  V30 16 C -2.663413 2.619950 -1.563899 0
M  V30 17 C -3.867659 2.211878 -2.100573 0
M  V30 18 C -4.824163 2.949669 -2.776164 0
M  V30 19 C -5.977309 2.303857 -3.230173 0
M  V30 20 N -6.116119 0.977806 -2.991730 0
M  V30 21 C -5.177325 0.283238 -2.335589 0
M  V30 22 C -4.012396 0.856691 -1.858402 0
M  V30 23 N -2.935871 0.383364 -1.181861 0
M  V30 24 C -2.718274 -0.962457 -0.751599 0
M  V30 25 C -3.742057 -1.545917 0.157390 0
M  V30 26 C -3.886129 -2.977024 -0.305768 0
M  V30 27 C -2.738797 -3.261484 -1.243206 0
M  V30 28 C -2.516862 -1.930660 -1.894156 0
M  V30 29 C -2.135638 1.474903 -1.017853 0
M  V30 30 N -0.939917 1.520045 -0.400440 0
M  V30 31 N 0.815008 0.248210 0.820551 0
M  V30 32 C 1.254840 -0.916203 1.325081 0
M  V30 33 C 4.066865 -4.024864 3.745753 0
M  V30 34 H 6.499078 -1.937844 3.812293 0
M  V30 35 H 7.391803 -3.057825 2.629679 0
M  V30 36 H 5.242701 -3.423423 1.476424 0
M  V30 37 H 5.314349 -1.636542 1.722831 0
M  V30 38 H 4.322721 -1.947609 3.999804 0
M  V30 39 H 2.222418 -3.084596 2.368758 0
M  V30 40 H 4.110008 0.171812 2.580378 0
M  V30 41 H 3.340917 2.265550 1.672785 0
M  V30 42 H 1.558602 3.468398 0.454095 0
M  V30 43 H -2.353939 4.679945 -1.885039 0
M  V30 44 H -4.650737 4.019996 -2.936384 0
M  V30 45 H -6.712483 2.896308 -3.755391 0
M  V30 46 H -5.306039 -0.779582 -2.153648 0
M  V30 47 H -1.753587 -0.973259 -0.193728 0
M  V30 48 H -3.400737 -1.601524 1.222006 0
M  V30 49 H -4.693069 -0.999831 0.198660 0
M  V30 50 H -3.794993 -3.712854 0.536126 0
M  V30 51 H -4.840057 -3.167353 -0.834878 0
M  V30 52 H -2.989692 -4.004172 -2.028093 0
M  V30 53 H -1.826647 -3.618249 -0.723777 0
M  V30 54 H -1.465570 -1.909628 -2.261963 0
M  V30 55 H -3.156189 -1.733195 -2.757135 0
M  V30 56 H 0.589135 -1.754289 1.172544 0
M  V30 57 H 3.690856 -4.800614 3.042910 0
M  V30 58 H 3.525089 -4.029494 4.712599 0
M  V30 END ATOM
M  V30 BEGIN BOND
M  V30 1 2 1 2
M  V30 2 2 2 3
M  V30 3 1 2 4
M  V30 4 1 4 5
M  V30 5 1 5 6
M  V30 6 1 6 7
M  V30 7 1 7 8
M  V30 8 2 8 9
M  V30 9 1 9 10
M  V30 10 2 10 11
M  V30 11 1 11 12
M  V30 12 1 12 13
M  V30 13 2 13 14
M  V30 14 1 14 15
M  V30 15 2 15 16
M  V30 16 1 16 17
M  V30 17 2 17 18
M  V30 18 1 18 19
M  V30 19 2 19 20
M  V30 20 1 20 21
M  V30 21 2 21 22
M  V30 22 1 22 23
M  V30 23 1 23 24
M  V30 24 1 24 25
M  V30 25 1 25 26
M  V30 26 1 26 27
M  V30 27 1 27 28
M  V30 28 1 23 29
M  V30 29 2 29 30
M  V30 30 1 11 31
M  V30 31 2 31 32
M  V30 32 1 6 33
M  V30 33 1 33 2
M  V30 34 1 32 8
M  V30 35 1 30 13
M  V30 36 1 29 16
M  V30 37 1 22 17
M  V30 38 1 28 24
M  V30 39 1 4 34
M  V30 40 1 4 35
M  V30 41 1 5 36
M  V30 42 1 5 37
M  V30 43 1 6 38
M  V30 44 1 7 39
M  V30 45 1 9 40
M  V30 46 1 10 41
M  V30 47 1 12 42
M  V30 48 1 15 43
M  V30 49 1 18 44
M  V30 50 1 19 45
M  V30 51 1 21 46
M  V30 52 1 24 47
M  V30 53 1 25 48
M  V30 54 1 25 49
M  V30 55 1 26 50
M  V30 56 1 26 51
M  V30 57 1 27 52
M  V30 58 1 27 53
M  V30 59 1 28 54
M  V30 60 1 28 55
M  V30 61 1 32 56
M  V30 62 1 33 57
M  V30 63 1 33 58
M  V30 END BOND
M  V30 END CTAB
M  END
>  <Dataset>  (301) 
ChEMBL_Kinases

>  <Ligand_Instance>  (301) 
nan

>  <PDB_ID>  (301) 
nan

>  <Standardized_SMILES>  (301) 
O=S1(=O)CCC(Nc2ccc(Nc3ncc4c5ccncc5n(C5CCCC5)c4n3)nc2)C1

>  <Name>  (301) 
nan

>  <Pocket>  (301) 
nan

>  <ATP_Site>  (301) 
nan

>  <Peripheral>  (301) 
nan

>  <Num_H_Atoms_ProtBoundConf>  (301) 
nan

>  <Num_Resolved_Atoms>  (301) 
nan

>  <Num_Not_Resolved_Atoms>  (301) 
nan

$$$$
CHEMBL3698695
     RDKit          3D

  0  0  0  0  0  0  0  0  0  0999 V3000
M  V30 BEGIN CTAB
M  V30 COUNTS 57 62 0 0 0
M  V30 BEGIN ATOM
M  V30 1 C 0.675657 -6.488258 3.508873 0
M  V30 2 C 1.254585 -5.243336 3.240654 0
M  V30 3 C 1.072810 -4.682326 1.978086 0
M  V30 4 C 1.522896 -3.486919 1.456328 0
M  V30 5 C 2.283943 -2.469811 1.986589 0
M  V30 6 N 2.549806 -1.402939 1.176329 0
M  V30 7 C 2.065902 -1.374856 -0.102701 0
M  V30 8 N 2.452867 -0.192426 -0.790413 0
M  V30 9 C 1.764077 1.031069 -0.575136 0
M  V30 10 C 0.724960 1.047219 0.327280 0
M  V30 11 C 0.030756 2.210757 0.569863 0
M  V30 12 C 0.322467 3.411122 -0.059502 0
M  V30 13 N -0.373178 4.614112 0.186173 0
M  V30 14 C -1.424876 4.809291 1.125787 0 CFG=1
M  V30 15 C -0.947418 4.758018 2.578650 0
M  V30 16 C -2.191680 5.320908 3.270146 0
M  V30 17 N -2.784659 6.275938 2.353358 0
M  V30 18 C -2.037775 6.180502 1.104326 0
M  V30 19 C 1.370064 3.324890 -0.947222 0
M  V30 20 N 2.068634 2.198414 -1.205599 0
M  V30 21 N 1.313013 -2.405867 -0.593158 0
M  V30 22 C 1.035548 -3.476886 0.190651 0
M  V30 23 N 0.315741 -4.560965 -0.139976 0
M  V30 24 C -0.366699 -5.022203 -1.278553 0
M  V30 25 C -1.759520 -4.613515 -1.520085 0
M  V30 26 C -1.981797 -4.947455 -2.980240 0
M  V30 27 C -0.669598 -4.793697 -3.657972 0
M  V30 28 C 0.348392 -4.565910 -2.557790 0
M  V30 29 C 0.342734 -5.320363 0.996502 0
M  V30 30 C -0.184688 -6.528057 1.344832 0
M  V30 31 N -0.040245 -7.117307 2.551535 0
M  V30 32 H 0.846368 -6.874456 4.499552 0
M  V30 33 H 1.829434 -4.703929 3.964208 0
M  V30 34 H 2.631476 -2.560279 3.005616 0
M  V30 35 H 3.269256 -0.271969 -1.463918 0
M  V30 36 H 0.475316 0.105658 0.840072 0
M  V30 37 H -0.758926 2.122516 1.275495 0
M  V30 38 H -0.105062 5.448059 -0.359298 0
M  V30 39 H -2.231200 4.042022 1.044296 0
M  V30 40 H -0.661311 3.774165 2.919265 0
M  V30 41 H -0.152506 5.542467 2.632024 0
M  V30 42 H -2.870394 4.449079 3.473696 0
M  V30 43 H -1.950887 5.771641 4.250915 0
M  V30 44 H -2.603982 7.226166 2.796425 0
M  V30 45 H -2.736550 6.316603 0.261198 0
M  V30 46 H -1.209235 6.929994 1.098632 0
M  V30 47 H 1.639540 4.247812 -1.470745 0
M  V30 48 H -0.349617 -6.152773 -1.373453 0
M  V30 49 H -1.954140 -3.526775 -1.441850 0
M  V30 50 H -2.536184 -5.214301 -0.976961 0
M  V30 51 H -2.345584 -6.014582 -3.059073 0
M  V30 52 H -2.759814 -4.269183 -3.423937 0
M  V30 53 H -0.744792 -3.950133 -4.373227 0
M  V30 54 H -0.393435 -5.683942 -4.279168 0
M  V30 55 H 1.228662 -5.176114 -2.783685 0
M  V30 56 H 0.523529 -3.465113 -2.561320 0
M  V30 57 H -0.770670 -7.115528 0.658716 0
M  V30 END ATOM
M  V30 BEGIN BOND
M  V30 1 2 1 2
M  V30 2 1 2 3
M  V30 3 1 3 4
M  V30 4 2 4 5
M  V30 5 1 5 6
M  V30 6 2 6 7
M  V30 7 1 7 8
M  V30 8 1 8 9
M  V30 9 2 9 10
M  V30 10 1 10 11
M  V30 11 2 11 12
M  V30 12 1 12 13
M  V30 13 1 13 14
M  V30 14 1 14 15
M  V30 15 1 15 16
M  V30 16 1 16 17
M  V30 17 1 17 18
M  V30 18 1 12 19
M  V30 19 2 19 20
M  V30 20 1 7 21
M  V30 21 2 21 22
M  V30 22 1 22 23
M  V30 23 1 23 24
M  V30 24 1 24 25
M  V30 25 1 25 26
M  V30 26 1 26 27
M  V30 27 1 27 28
M  V30 28 1 23 29
M  V30 29 1 29 30
M  V30 30 2 30 31
M  V30 31 1 31 1
M  V30 32 2 29 3
M  V30 33 1 22 4
M  V30 34 1 28 24
M  V30 35 1 20 9
M  V30 36 1 18 14
M  V30 37 1 1 32
M  V30 38 1 2 33
M  V30 39 1 5 34
M  V30 40 1 8 35
M  V30 41 1 10 36
M  V30 42 1 11 37
M  V30 43 1 13 38
M  V30 44 1 14 39 CFG=1
M  V30 45 1 15 40
M  V30 46 1 15 41
M  V30 47 1 16 42
M  V30 48 1 16 43
M  V30 49 1 17 44
M  V30 50 1 18 45
M  V30 51 1 18 46
M  V30 52 1 19 47
M  V30 53 1 24 48
M  V30 54 1 25 49
M  V30 55 1 25 50
M  V30 56 1 26 51
M  V30 57 1 26 52
M  V30 58 1 27 53
M  V30 59 1 27 54
M  V30 60 1 28 55
M  V30 61 1 28 56
M  V30 62 1 30 57
M  V30 END BOND
M  V30 END CTAB
M  END
>  <Dataset>  (302) 
ChEMBL_Kinases

>  <Ligand_Instance>  (302) 
nan

>  <PDB_ID>  (302) 
nan

>  <Standardized_SMILES>  (302) 
c1cc2c3cnc(Nc4ccc(N[C@H]5CCNC5)cn4)nc3n(C3CCCC3)c2cn1

>  <Name>  (302) 
nan

>  <Pocket>  (302) 
nan

>  <ATP_Site>  (302) 
nan

>  <Peripheral>  (302) 
nan

>  <Num_H_Atoms_ProtBoundConf>  (302) 
nan

>  <Num_Resolved_Atoms>  (302) 
nan

>  <Num_Not_Resolved_Atoms>  (302) 
nan

$$$$
CHEMBL3698694
     RDKit          3D

  0  0  0  0  0  0  0  0  0  0999 V3000
M  V30 BEGIN CTAB
M  V30 COUNTS 57 62 0 0 0
M  V30 BEGIN ATOM
M  V30 1 C -1.083085 -6.805477 3.688384 0
M  V30 2 C -0.477538 -5.575953 3.526383 0
M  V30 3 C -0.265091 -5.051773 2.265927 0
M  V30 4 C 0.311016 -3.860836 1.859255 0
M  V30 5 C 0.850822 -2.835753 2.584299 0
M  V30 6 N 1.338571 -1.798277 1.847651 0
M  V30 7 C 1.271758 -1.822268 0.484489 0
M  V30 8 N 1.879697 -0.597121 0.025050 0
M  V30 9 C 1.242590 0.660158 0.188492 0
M  V30 10 C 0.024829 0.732522 0.806883 0
M  V30 11 C -0.641460 1.912892 1.024214 0
M  V30 12 C -0.013820 3.050988 0.581387 0
M  V30 13 N -0.558701 4.358029 0.709204 0
M  V30 14 C 0.045667 5.595983 0.308992 0 CFG=2
M  V30 15 C 1.264722 5.925839 1.124748 0
M  V30 16 C 0.721500 6.817385 2.214513 0
M  V30 17 N -0.540747 7.337034 1.795537 0
M  V30 18 C -0.858852 6.762200 0.523396 0
M  V30 19 C 1.224778 2.988219 -0.052055 0
M  V30 20 N 1.839740 1.782403 -0.240087 0
M  V30 21 N 0.742507 -2.824574 -0.248772 0
M  V30 22 C 0.251572 -3.868224 0.467419 0
M  V30 23 N -0.327642 -4.998988 0.013889 0
M  V30 24 C -0.592443 -5.439266 -1.313002 0
M  V30 25 C -1.930209 -4.923873 -1.796036 0
M  V30 26 C -1.797265 -4.863647 -3.304639 0
M  V30 27 C -0.332332 -4.616569 -3.562872 0
M  V30 28 C 0.417287 -5.098754 -2.345653 0
M  V30 29 C -0.638991 -5.712834 1.112162 0
M  V30 30 C -1.247409 -6.953702 1.337530 0
M  V30 31 N -1.457111 -7.470259 2.561295 0
M  V30 32 H -1.233041 -7.182330 4.689568 0
M  V30 33 H -0.157301 -4.995040 4.382079 0
M  V30 34 H 0.855870 -2.911884 3.643246 0
M  V30 35 H 2.810325 -0.720581 -0.427480 0
M  V30 36 H -0.450124 -0.175951 1.147086 0
M  V30 37 H -1.587785 2.050189 1.497058 0
M  V30 38 H -1.521267 4.402120 1.155681 0
M  V30 39 H 0.346363 5.530797 -0.765126 0
M  V30 40 H 2.012772 6.452023 0.513913 0
M  V30 41 H 1.686827 4.994572 1.587813 0
M  V30 42 H 0.521746 6.209069 3.139182 0
M  V30 43 H 1.451026 7.583300 2.511743 0
M  V30 44 H -0.660585 8.354933 1.857849 0
M  V30 45 H -1.940374 6.462087 0.542330 0
M  V30 46 H -0.744166 7.512116 -0.287873 0
M  V30 47 H 1.806720 3.820630 -0.450702 0
M  V30 48 H -0.698497 -6.556091 -1.324556 0
M  V30 49 H -2.753867 -5.643363 -1.574472 0
M  V30 50 H -2.212213 -3.959551 -1.338921 0
M  V30 51 H -2.172147 -5.807109 -3.786145 0
M  V30 52 H -2.440747 -4.043439 -3.637066 0
M  V30 53 H -0.091086 -3.564633 -3.824788 0
M  V30 54 H -0.093414 -5.230441 -4.482021 0
M  V30 55 H 1.215309 -4.394755 -2.033170 0
M  V30 56 H 0.999776 -6.010021 -2.681281 0
M  V30 57 H -1.552465 -7.495903 0.449163 0
M  V30 END ATOM
M  V30 BEGIN BOND
M  V30 1 2 1 2
M  V30 2 1 2 3
M  V30 3 1 3 4
M  V30 4 2 4 5
M  V30 5 1 5 6
M  V30 6 2 6 7
M  V30 7 1 7 8
M  V30 8 1 8 9
M  V30 9 2 9 10
M  V30 10 1 10 11
M  V30 11 2 11 12
M  V30 12 1 12 13
M  V30 13 1 13 14
M  V30 14 1 14 15
M  V30 15 1 15 16
M  V30 16 1 16 17
M  V30 17 1 17 18
M  V30 18 1 12 19
M  V30 19 2 19 20
M  V30 20 1 7 21
M  V30 21 2 21 22
M  V30 22 1 22 23
M  V30 23 1 23 24
M  V30 24 1 24 25
M  V30 25 1 25 26
M  V30 26 1 26 27
M  V30 27 1 27 28
M  V30 28 1 23 29
M  V30 29 1 29 30
M  V30 30 2 30 31
M  V30 31 1 31 1
M  V30 32 2 29 3
M  V30 33 1 22 4
M  V30 34 1 28 24
M  V30 35 1 20 9
M  V30 36 1 18 14
M  V30 37 1 1 32
M  V30 38 1 2 33
M  V30 39 1 5 34
M  V30 40 1 8 35
M  V30 41 1 10 36
M  V30 42 1 11 37
M  V30 43 1 13 38
M  V30 44 1 14 39 CFG=3
M  V30 45 1 15 40
M  V30 46 1 15 41
M  V30 47 1 16 42
M  V30 48 1 16 43
M  V30 49 1 17 44
M  V30 50 1 18 45
M  V30 51 1 18 46
M  V30 52 1 19 47
M  V30 53 1 24 48
M  V30 54 1 25 49
M  V30 55 1 25 50
M  V30 56 1 26 51
M  V30 57 1 26 52
M  V30 58 1 27 53
M  V30 59 1 27 54
M  V30 60 1 28 55
M  V30 61 1 28 56
M  V30 62 1 30 57
M  V30 END BOND
M  V30 END CTAB
M  END
>  <Dataset>  (303) 
ChEMBL_Kinases

>  <Ligand_Instance>  (303) 
nan

>  <PDB_ID>  (303) 
nan

>  <Standardized_SMILES>  (303) 
c1cc2c3cnc(Nc4ccc(N[C@@H]5CCNC5)cn4)nc3n(C3CCCC3)c2cn1

>  <Name>  (303) 
nan

>  <Pocket>  (303) 
nan

>  <ATP_Site>  (303) 
nan

>  <Peripheral>  (303) 
nan

>  <Num_H_Atoms_ProtBoundConf>  (303) 
nan

>  <Num_Resolved_Atoms>  (303) 
nan

>  <Num_Not_Resolved_Atoms>  (303) 
nan

$$$$
CHEMBL2204109
     RDKit          3D

  0  0  0  0  0  0  0  0  0  0999 V3000
M  V30 BEGIN CTAB
M  V30 COUNTS 64 68 0 0 0
M  V30 BEGIN ATOM
M  V30 1 C 0.760820 1.485492 4.602283 0
M  V30 2 O 0.322091 0.330382 3.932896 0
M  V30 3 C 1.073852 -0.329612 3.010678 0
M  V30 4 O 1.892280 0.565083 3.271694 0
M  V30 5 C 0.614856 -1.524111 2.321417 0
M  V30 6 C 1.430329 -2.105656 1.406526 0
M  V30 7 C 2.731584 -1.611373 0.900353 0
M  V30 8 C 2.491421 -0.645202 -0.193887 0
M  V30 9 C 2.539187 -1.207094 -1.481208 0
M  V30 10 C 2.349576 -0.526102 -2.661854 0
M  V30 11 C 2.088199 0.824504 -2.617161 0
M  V30 12 S 1.840831 1.779523 -4.056380 0
M  V30 13 O 2.779265 1.304991 -5.127868 0
M  V30 14 O 2.189319 3.224685 -3.800794 0
M  V30 15 N 0.202591 1.733079 -4.584630 0
M  V30 16 C -0.249825 0.430516 -4.933960 0
M  V30 17 C -1.153475 -0.217249 -3.936352 0
M  V30 18 N -2.305236 0.682436 -3.784171 0
M  V30 19 C -1.786577 1.841387 -3.108006 0
M  V30 20 C -0.675461 2.545804 -3.824829 0
M  V30 21 C 2.030707 1.423788 -1.381148 0
M  V30 22 C 2.227807 0.697259 -0.233324 0
M  V30 23 C 0.953470 -3.278182 0.842562 0
M  V30 24 O 1.513555 -4.003129 -0.018212 0
M  V30 25 C -0.279315 -3.744369 1.244301 0
M  V30 26 C -0.832103 -4.905094 0.728565 0
M  V30 27 C -2.062267 -5.400352 1.102862 0
M  V30 28 C -2.816558 -4.731849 2.041420 0
M  V30 29 F -4.030631 -5.159326 2.454554 0
M  V30 30 C -2.309246 -3.559995 2.592696 0
M  V30 31 C -1.061603 -3.104136 2.179115 0
M  V30 32 N -0.584843 -1.974120 2.714865 0
M  V30 33 C -1.382518 -1.301441 3.694168 0
M  V30 34 C -2.329600 -0.308351 3.568117 0
M  V30 35 C -2.954445 0.161780 4.700060 0
M  V30 36 C -2.653378 -0.338906 5.955982 0
M  V30 37 C -1.703976 -1.336043 6.094338 0
M  V30 38 C -1.066742 -1.816303 4.945016 0
M  V30 39 H 0.957248 2.350062 3.916811 0
M  V30 40 H 1.658783 1.289494 5.228511 0
M  V30 41 H -0.011131 1.834045 5.353078 0
M  V30 42 H 3.359512 -2.460663 0.527165 0
M  V30 43 H 3.288986 -1.053287 1.696363 0
M  V30 44 H 2.740979 -2.259738 -1.683785 0
M  V30 45 H 2.387388 -0.962388 -3.646525 0
M  V30 46 H -0.783712 0.419412 -5.929664 0
M  V30 47 H 0.628465 -0.243335 -5.109031 0
M  V30 48 H -1.440079 -1.214541 -4.315712 0
M  V30 49 H -0.686296 -0.278488 -2.937482 0
M  V30 50 H -2.574013 0.979999 -4.754812 0
M  V30 51 H -1.469885 1.544204 -2.068523 0
M  V30 52 H -2.641338 2.560522 -2.976096 0
M  V30 53 H -0.063162 3.065915 -3.029757 0
M  V30 54 H -1.108369 3.410362 -4.406310 0
M  V30 55 H 1.831643 2.478808 -1.241471 0
M  V30 56 H 2.187854 1.164598 0.725651 0
M  V30 57 H -0.280601 -5.481540 -0.021444 0
M  V30 58 H -2.492398 -6.312790 0.693930 0
M  V30 59 H -2.894714 -3.019839 3.336927 0
M  V30 60 H -2.460334 -0.018556 2.542625 0
M  V30 61 H -3.685636 0.939852 4.529654 0
M  V30 62 H -3.167848 0.057047 6.828499 0
M  V30 63 H -1.513141 -1.685395 7.103875 0
M  V30 64 H -0.351674 -2.591854 5.210553 0
M  V30 END ATOM
M  V30 BEGIN BOND
M  V30 1 1 1 2
M  V30 2 1 2 3
M  V30 3 2 3 4
M  V30 4 1 3 5
M  V30 5 2 5 6
M  V30 6 1 6 7
M  V30 7 1 7 8
M  V30 8 2 8 9
M  V30 9 1 9 10
M  V30 10 2 10 11
M  V30 11 1 11 12
M  V30 12 2 12 13
M  V30 13 2 12 14
M  V30 14 1 12 15
M  V30 15 1 15 16
M  V30 16 1 16 17
M  V30 17 1 17 18
M  V30 18 1 18 19
M  V30 19 1 19 20
M  V30 20 1 11 21
M  V30 21 2 21 22
M  V30 22 1 6 23
M  V30 23 2 23 24
M  V30 24 1 23 25
M  V30 25 2 25 26
M  V30 26 1 26 27
M  V30 27 2 27 28
M  V30 28 1 28 29
M  V30 29 1 28 30
M  V30 30 2 30 31
M  V30 31 1 31 32
M  V30 32 1 32 33
M  V30 33 2 33 34
M  V30 34 1 34 35
M  V30 35 2 35 36
M  V30 36 1 36 37
M  V30 37 2 37 38
M  V30 38 1 32 5
M  V30 39 1 38 33
M  V30 40 1 22 8
M  V30 41 1 31 25
M  V30 42 1 20 15
M  V30 43 1 1 39
M  V30 44 1 1 40
M  V30 45 1 1 41
M  V30 46 1 7 42
M  V30 47 1 7 43
M  V30 48 1 9 44
M  V30 49 1 10 45
M  V30 50 1 16 46
M  V30 51 1 16 47
M  V30 52 1 17 48
M  V30 53 1 17 49
M  V30 54 1 18 50
M  V30 55 1 19 51
M  V30 56 1 19 52
M  V30 57 1 20 53
M  V30 58 1 20 54
M  V30 59 1 21 55
M  V30 60 1 22 56
M  V30 61 1 26 57
M  V30 62 1 27 58
M  V30 63 1 30 59
M  V30 64 1 34 60
M  V30 65 1 35 61
M  V30 66 1 36 62
M  V30 67 1 37 63
M  V30 68 1 38 64
M  V30 END BOND
M  V30 END CTAB
M  END
>  <Dataset>  (304) 
ChEMBL_Kinases

>  <Ligand_Instance>  (304) 
nan

>  <PDB_ID>  (304) 
nan

>  <Standardized_SMILES>  (304) 
COC(=O)c1c(Cc2ccc(S(=O)(=O)N3CCNCC3)cc2)c(=O)c2ccc(F)cc2n1-c1ccccc1

>  <Name>  (304) 
nan

>  <Pocket>  (304) 
nan

>  <ATP_Site>  (304) 
nan

>  <Peripheral>  (304) 
nan

>  <Num_H_Atoms_ProtBoundConf>  (304) 
nan

>  <Num_Resolved_Atoms>  (304) 
nan

>  <Num_Not_Resolved_Atoms>  (304) 
nan

$$$$
CHEMBL3698686
     RDKit          3D

  0  0  0  0  0  0  0  0  0  0999 V3000
M  V30 BEGIN CTAB
M  V30 COUNTS 60 65 0 0 0
M  V30 BEGIN ATOM
M  V30 1 C -0.647885 0.680711 4.845019 0
M  V30 2 C 0.161740 0.742225 3.611113 0
M  V30 3 C 1.532989 0.860887 3.629790 0
M  V30 4 C 2.362108 0.929080 2.539127 0
M  V30 5 N 3.784321 1.018122 2.553945 0
M  V30 6 C 4.502960 0.596083 3.716298 0
M  V30 7 C 5.790935 1.327879 3.840362 0
M  V30 8 N 6.393392 1.774524 2.626724 0
M  V30 9 C 5.468741 2.508963 1.782033 0
M  V30 10 C 4.357295 1.556655 1.315266 0
M  V30 11 C 1.648927 0.865213 1.331077 0
M  V30 12 N 0.290626 0.747626 1.274534 0
M  V30 13 C -0.465999 0.684021 2.382428 0
M  V30 14 N -1.879071 0.528919 2.229264 0
M  V30 15 C -2.649978 0.452602 1.035258 0
M  V30 16 N -3.538197 1.277363 0.447823 0
M  V30 17 C -4.106694 0.917209 -0.736545 0
M  V30 18 C -3.811296 -0.268170 -1.371191 0
M  V30 19 C -4.157089 -0.935166 -2.521528 0
M  V30 20 C -5.048960 -0.551828 -3.533201 0
M  V30 21 C -5.189414 -1.440251 -4.585886 0
M  V30 22 N -4.527867 -2.616452 -4.674745 0
M  V30 23 C -3.657807 -2.997069 -3.693202 0
M  V30 24 C -3.473176 -2.154212 -2.615014 0
M  V30 25 N -2.693589 -2.239057 -1.503332 0
M  V30 26 C -1.792594 -3.321472 -1.146116 0
M  V30 27 C -2.368716 -4.682243 -1.216177 0
M  V30 28 C -1.419291 -5.539719 -2.025442 0
M  V30 29 C -0.198651 -4.715340 -2.312839 0
M  V30 30 C -0.497041 -3.284766 -1.925644 0
M  V30 31 C -2.901097 -1.104169 -0.760845 0
M  V30 32 N -2.342894 -0.724512 0.427038 0
M  V30 33 H 0.028456 0.523327 5.731254 0
M  V30 34 H -1.409509 -0.090507 4.870678 0
M  V30 35 H -1.067665 1.712447 5.021233 0
M  V30 36 H 1.951822 0.902108 4.612757 0
M  V30 37 H 4.704019 -0.509969 3.689517 0
M  V30 38 H 3.933338 0.755777 4.647308 0
M  V30 39 H 6.528899 0.614630 4.304158 0
M  V30 40 H 5.675675 2.168169 4.563091 0
M  V30 41 H 6.800232 0.987064 2.073413 0
M  V30 42 H 5.008764 3.361611 2.289947 0
M  V30 43 H 6.032402 2.838126 0.883061 0
M  V30 44 H 3.648762 2.138188 0.732140 0
M  V30 45 H 4.812681 0.732617 0.719680 0
M  V30 46 H 2.118126 0.898820 0.359076 0
M  V30 47 H -2.523104 0.453509 3.043872 0
M  V30 48 H -4.811298 1.570679 -1.201857 0
M  V30 49 H -5.578435 0.386628 -3.465043 0
M  V30 50 H -5.882932 -1.111222 -5.346295 0
M  V30 51 H -3.128020 -3.940868 -3.771651 0
M  V30 52 H -1.481834 -3.129826 -0.076024 0
M  V30 53 H -2.399186 -5.172333 -0.196987 0
M  V30 54 H -3.426105 -4.748104 -1.555880 0
M  V30 55 H -1.952236 -5.869167 -2.957844 0
M  V30 56 H -1.112725 -6.472938 -1.500806 0
M  V30 57 H 0.137696 -4.724183 -3.360517 0
M  V30 58 H 0.670991 -5.046711 -1.683253 0
M  V30 59 H -0.600527 -2.618063 -2.806111 0
M  V30 60 H 0.351660 -2.848425 -1.319443 0
M  V30 END ATOM
M  V30 BEGIN BOND
M  V30 1 1 1 2
M  V30 2 2 2 3
M  V30 3 1 3 4
M  V30 4 1 4 5
M  V30 5 1 5 6
M  V30 6 1 6 7
M  V30 7 1 7 8
M  V30 8 1 8 9
M  V30 9 1 9 10
M  V30 10 2 4 11
M  V30 11 1 11 12
M  V30 12 2 12 13
M  V30 13 1 13 14
M  V30 14 1 14 15
M  V30 15 2 15 16
M  V30 16 1 16 17
M  V30 17 2 17 18
M  V30 18 1 18 19
M  V30 19 2 19 20
M  V30 20 1 20 21
M  V30 21 2 21 22
M  V30 22 1 22 23
M  V30 23 2 23 24
M  V30 24 1 24 25
M  V30 25 1 25 26
M  V30 26 1 26 27
M  V30 27 1 27 28
M  V30 28 1 28 29
M  V30 29 1 29 30
M  V30 30 1 25 31
M  V30 31 2 31 32
M  V30 32 1 13 2
M  V30 33 1 32 15
M  V30 34 1 10 5
M  V30 35 1 31 18
M  V30 36 1 24 19
M  V30 37 1 30 26
M  V30 38 1 1 33
M  V30 39 1 1 34
M  V30 40 1 1 35
M  V30 41 1 3 36
M  V30 42 1 6 37
M  V30 43 1 6 38
M  V30 44 1 7 39
M  V30 45 1 7 40
M  V30 46 1 8 41
M  V30 47 1 9 42
M  V30 48 1 9 43
M  V30 49 1 10 44
M  V30 50 1 10 45
M  V30 51 1 11 46
M  V30 52 1 14 47
M  V30 53 1 17 48
M  V30 54 1 20 49
M  V30 55 1 21 50
M  V30 56 1 23 51
M  V30 57 1 26 52
M  V30 58 1 27 53
M  V30 59 1 27 54
M  V30 60 1 28 55
M  V30 61 1 28 56
M  V30 62 1 29 57
M  V30 63 1 29 58
M  V30 64 1 30 59
M  V30 65 1 30 60
M  V30 END BOND
M  V30 END CTAB
M  END
>  <Dataset>  (305) 
ChEMBL_Kinases

>  <Ligand_Instance>  (305) 
nan

>  <PDB_ID>  (305) 
nan

>  <Standardized_SMILES>  (305) 
Cc1cc(N2CCNCC2)cnc1Nc1ncc2c3ccncc3n(C3CCCC3)c2n1

>  <Name>  (305) 
nan

>  <Pocket>  (305) 
nan

>  <ATP_Site>  (305) 
nan

>  <Peripheral>  (305) 
nan

>  <Num_H_Atoms_ProtBoundConf>  (305) 
nan

>  <Num_Resolved_Atoms>  (305) 
nan

>  <Num_Not_Resolved_Atoms>  (305) 
nan

$$$$
CHEMBL3698685
     RDKit          3D

  0  0  0  0  0  0  0  0  0  0999 V3000
M  V30 BEGIN CTAB
M  V30 COUNTS 56 61 0 0 0
M  V30 BEGIN ATOM
M  V30 1 O -0.534565 -5.771547 0.400729 0
M  V30 2 C -0.574348 -4.921251 -0.517299 0
M  V30 3 C 0.567267 -3.991678 -0.295387 0
M  V30 4 C 1.863281 -4.488641 -0.527030 0
M  V30 5 N 2.936492 -3.713676 -0.360465 0
M  V30 6 C 2.835623 -2.556506 -0.004183 0
M  V30 7 N 3.663254 -1.436407 0.256426 0
M  V30 8 C 3.255239 -0.155333 0.700860 0
M  V30 9 N 4.253878 0.774664 0.731967 0
M  V30 10 C 4.050278 2.037426 1.132861 0
M  V30 11 C 2.747351 2.313733 1.510524 0
M  V30 12 C 2.279830 3.552317 1.966205 0
M  V30 13 C 2.886129 4.785971 2.168439 0
M  V30 14 C 2.055475 5.779532 2.637318 0
M  V30 15 N 0.747879 5.610843 2.893696 0
M  V30 16 C 0.170858 4.408796 2.693625 0
M  V30 17 C 0.942295 3.344382 2.218836 0
M  V30 18 N 0.636448 2.049031 1.927085 0
M  V30 19 C -0.669139 1.512716 2.103618 0
M  V30 20 C -0.675966 0.277068 3.001125 0
M  V30 21 C -2.140898 -0.103800 2.895690 0
M  V30 22 C -2.525633 0.245741 1.464693 0
M  V30 23 C -1.334480 0.980260 0.861483 0
M  V30 24 C 1.719284 1.390586 1.489081 0
M  V30 25 N 1.994550 0.130511 1.071909 0
M  V30 26 S 0.972589 -2.260189 0.205029 0
M  V30 27 N -1.470077 -4.740016 -1.633401 0
M  V30 28 C -2.555521 -5.682315 -1.779645 0
M  V30 29 C -3.755866 -4.961645 -2.314174 0
M  V30 30 N -3.611691 -3.503700 -2.288763 0
M  V30 31 C -2.454079 -3.109844 -3.092335 0
M  V30 32 C -1.180065 -3.620085 -2.504930 0
M  V30 33 H 2.164397 -5.501713 -0.851644 0
M  V30 34 H 4.645560 -1.678871 0.077094 0
M  V30 35 H 4.855679 2.731605 1.141990 0
M  V30 36 H 3.937077 4.906011 1.960235 0
M  V30 37 H 2.483370 6.773371 2.814239 0
M  V30 38 H -0.878940 4.266465 2.895504 0
M  V30 39 H -1.372728 2.235314 2.568669 0
M  V30 40 H -0.088080 -0.522552 2.534362 0
M  V30 41 H -0.389221 0.530959 4.038381 0
M  V30 42 H -2.676594 0.563510 3.632395 0
M  V30 43 H -2.339871 -1.163559 3.100278 0
M  V30 44 H -3.361726 0.984865 1.517795 0
M  V30 45 H -2.759763 -0.652477 0.884697 0
M  V30 46 H -1.664596 1.784958 0.172442 0
M  V30 47 H -0.692730 0.226250 0.362590 0
M  V30 48 H -2.744674 -6.184542 -0.811848 0
M  V30 49 H -2.249226 -6.449022 -2.538087 0
M  V30 50 H -3.985076 -5.216179 -3.387167 0
M  V30 51 H -4.652012 -5.202923 -1.700279 0
M  V30 52 H -4.440310 -3.104970 -2.776506 0
M  V30 53 H -2.419556 -2.003260 -3.067114 0
M  V30 54 H -2.654038 -3.469631 -4.114787 0
M  V30 55 H -0.624331 -2.819366 -1.977404 0
M  V30 56 H -0.564781 -4.017055 -3.366580 0
M  V30 END ATOM
M  V30 BEGIN BOND
M  V30 1 2 1 2
M  V30 2 1 2 3
M  V30 3 2 3 4
M  V30 4 1 4 5
M  V30 5 2 5 6
M  V30 6 1 6 7
M  V30 7 1 7 8
M  V30 8 2 8 9
M  V30 9 1 9 10
M  V30 10 2 10 11
M  V30 11 1 11 12
M  V30 12 2 12 13
M  V30 13 1 13 14
M  V30 14 2 14 15
M  V30 15 1 15 16
M  V30 16 2 16 17
M  V30 17 1 17 18
M  V30 18 1 18 19
M  V30 19 1 19 20
M  V30 20 1 20 21
M  V30 21 1 21 22
M  V30 22 1 22 23
M  V30 23 1 18 24
M  V30 24 2 24 25
M  V30 25 1 6 26
M  V30 26 1 2 27
M  V30 27 1 27 28
M  V30 28 1 28 29
M  V30 29 1 29 30
M  V30 30 1 30 31
M  V30 31 1 31 32
M  V30 32 1 26 3
M  V30 33 1 32 27
M  V30 34 1 25 8
M  V30 35 1 24 11
M  V30 36 1 17 12
M  V30 37 1 23 19
M  V30 38 1 4 33
M  V30 39 1 7 34
M  V30 40 1 10 35
M  V30 41 1 13 36
M  V30 42 1 14 37
M  V30 43 1 16 38
M  V30 44 1 19 39
M  V30 45 1 20 40
M  V30 46 1 20 41
M  V30 47 1 21 42
M  V30 48 1 21 43
M  V30 49 1 22 44
M  V30 50 1 22 45
M  V30 51 1 23 46
M  V30 52 1 23 47
M  V30 53 1 28 48
M  V30 54 1 28 49
M  V30 55 1 29 50
M  V30 56 1 29 51
M  V30 57 1 30 52
M  V30 58 1 31 53
M  V30 59 1 31 54
M  V30 60 1 32 55
M  V30 61 1 32 56
M  V30 END BOND
M  V30 END CTAB
M  END
>  <Dataset>  (306) 
ChEMBL_Kinases

>  <Ligand_Instance>  (306) 
nan

>  <PDB_ID>  (306) 
nan

>  <Standardized_SMILES>  (306) 
O=C(c1cnc(Nc2ncc3c4ccncc4n(C4CCCC4)c3n2)s1)N1CCNCC1

>  <Name>  (306) 
nan

>  <Pocket>  (306) 
nan

>  <ATP_Site>  (306) 
nan

>  <Peripheral>  (306) 
nan

>  <Num_H_Atoms_ProtBoundConf>  (306) 
nan

>  <Num_Resolved_Atoms>  (306) 
nan

>  <Num_Not_Resolved_Atoms>  (306) 
nan

$$$$
CHEMBL3698684
     RDKit          3D

  0  0  0  0  0  0  0  0  0  0999 V3000
M  V30 BEGIN CTAB
M  V30 COUNTS 56 61 0 0 0
M  V30 BEGIN ATOM
M  V30 1 O -0.150908 -6.244453 -0.919686 0
M  V30 2 C 0.169712 -5.000864 -0.965927 0
M  V30 3 C 1.472939 -4.702732 -0.433750 0
M  V30 4 C 2.354697 -5.738347 -0.233645 0
M  V30 5 S 3.856776 -4.871043 0.412561 0
M  V30 6 C 2.997209 -3.181005 0.299224 0
M  V30 7 N 3.787108 -2.032518 0.695898 0
M  V30 8 C 3.365571 -0.672034 0.779201 0
M  V30 9 N 4.249950 0.322055 0.536054 0
M  V30 10 C 3.871115 1.599795 0.661364 0
M  V30 11 C 2.576566 1.824975 1.039620 0
M  V30 12 C 1.932891 3.007771 1.254157 0
M  V30 13 C 2.207781 4.366264 1.199666 0
M  V30 14 C 1.296403 5.372332 1.492693 0
M  V30 15 N 0.026825 5.022648 1.865481 0
M  V30 16 C -0.313960 3.715104 1.939918 0
M  V30 17 C 0.626434 2.781051 1.638596 0
M  V30 18 N 0.441418 1.435951 1.665662 0
M  V30 19 C -0.753382 0.700348 2.019821 0
M  V30 20 C -1.263336 0.999674 3.402881 0
M  V30 21 C -2.764511 1.150187 3.293915 0
M  V30 22 C -3.093025 1.354849 1.846498 0
M  V30 23 C -1.894452 0.860723 1.077944 0
M  V30 24 C 1.637385 0.864383 1.298536 0
M  V30 25 N 2.075857 -0.417827 1.154219 0
M  V30 26 N 2.131742 -3.678599 -0.073329 0
M  V30 27 N -0.888765 -4.309634 -1.546097 0
M  V30 28 C -1.995623 -5.153995 -1.920577 0
M  V30 29 C -2.892717 -4.401969 -2.880769 0
M  V30 30 N -3.256940 -3.103362 -2.371826 0
M  V30 31 C -2.168051 -2.247556 -2.042377 0
M  V30 32 C -0.865412 -2.898806 -1.752572 0
M  V30 33 H 2.372791 -6.914645 -0.364372 0
M  V30 34 H 4.807638 -2.163659 0.972344 0
M  V30 35 H 4.542315 2.444197 0.474379 0
M  V30 36 H 3.221756 4.670737 0.901367 0
M  V30 37 H 1.559838 6.417500 1.435087 0
M  V30 38 H -1.331430 3.579993 2.243131 0
M  V30 39 H -0.479335 -0.376285 2.037708 0
M  V30 40 H -0.757370 1.832944 3.912550 0
M  V30 41 H -1.122412 0.135827 4.109022 0
M  V30 42 H -3.048920 2.069426 3.859835 0
M  V30 43 H -3.335817 0.289497 3.689660 0
M  V30 44 H -3.348118 2.404518 1.583622 0
M  V30 45 H -4.030114 0.788503 1.571990 0
M  V30 46 H -1.658155 1.474493 0.186803 0
M  V30 47 H -2.216172 -0.144079 0.670956 0
M  V30 48 H -1.588439 -6.033390 -2.475447 0
M  V30 49 H -2.551646 -5.434981 -1.011811 0
M  V30 50 H -2.315502 -4.252319 -3.813394 0
M  V30 51 H -3.809128 -4.965193 -3.086458 0
M  V30 52 H -4.011298 -3.118472 -1.668520 0
M  V30 53 H -2.447881 -1.611640 -1.174973 0
M  V30 54 H -2.058324 -1.503930 -2.887003 0
M  V30 55 H -0.374297 -2.427011 -0.857511 0
M  V30 56 H -0.173773 -2.691261 -2.619475 0
M  V30 END ATOM
M  V30 BEGIN BOND
M  V30 1 2 1 2
M  V30 2 1 2 3
M  V30 3 2 3 4
M  V30 4 1 4 5
M  V30 5 1 5 6
M  V30 6 1 6 7
M  V30 7 1 7 8
M  V30 8 2 8 9
M  V30 9 1 9 10
M  V30 10 2 10 11
M  V30 11 1 11 12
M  V30 12 2 12 13
M  V30 13 1 13 14
M  V30 14 2 14 15
M  V30 15 1 15 16
M  V30 16 2 16 17
M  V30 17 1 17 18
M  V30 18 1 18 19
M  V30 19 1 19 20
M  V30 20 1 20 21
M  V30 21 1 21 22
M  V30 22 1 22 23
M  V30 23 1 18 24
M  V30 24 2 24 25
M  V30 25 2 6 26
M  V30 26 1 2 27
M  V30 27 1 27 28
M  V30 28 1 28 29
M  V30 29 1 29 30
M  V30 30 1 30 31
M  V30 31 1 31 32
M  V30 32 1 26 3
M  V30 33 1 32 27
M  V30 34 1 25 8
M  V30 35 1 24 11
M  V30 36 1 17 12
M  V30 37 1 23 19
M  V30 38 1 4 33
M  V30 39 1 7 34
M  V30 40 1 10 35
M  V30 41 1 13 36
M  V30 42 1 14 37
M  V30 43 1 16 38
M  V30 44 1 19 39
M  V30 45 1 20 40
M  V30 46 1 20 41
M  V30 47 1 21 42
M  V30 48 1 21 43
M  V30 49 1 22 44
M  V30 50 1 22 45
M  V30 51 1 23 46
M  V30 52 1 23 47
M  V30 53 1 28 48
M  V30 54 1 28 49
M  V30 55 1 29 50
M  V30 56 1 29 51
M  V30 57 1 30 52
M  V30 58 1 31 53
M  V30 59 1 31 54
M  V30 60 1 32 55
M  V30 61 1 32 56
M  V30 END BOND
M  V30 END CTAB
M  END
>  <Dataset>  (307) 
ChEMBL_Kinases

>  <Ligand_Instance>  (307) 
nan

>  <PDB_ID>  (307) 
nan

>  <Standardized_SMILES>  (307) 
O=C(c1csc(Nc2ncc3c4ccncc4n(C4CCCC4)c3n2)n1)N1CCNCC1

>  <Name>  (307) 
nan

>  <Pocket>  (307) 
nan

>  <ATP_Site>  (307) 
nan

>  <Peripheral>  (307) 
nan

>  <Num_H_Atoms_ProtBoundConf>  (307) 
nan

>  <Num_Resolved_Atoms>  (307) 
nan

>  <Num_Not_Resolved_Atoms>  (307) 
nan

$$$$
CHEMBL3698683
     RDKit          3D

  0  0  0  0  0  0  0  0  0  0999 V3000
M  V30 BEGIN CTAB
M  V30 COUNTS 60 65 0 0 0
M  V30 BEGIN ATOM
M  V30 1 C 3.101751 -4.634215 5.833103 0
M  V30 2 C 3.498926 -3.828752 4.782997 0
M  V30 3 C 2.635792 -3.757168 3.704837 0
M  V30 4 C 2.747958 -3.046249 2.516591 0
M  V30 5 C 3.710920 -2.193652 1.999810 0
M  V30 6 N 3.532393 -1.642124 0.786986 0
M  V30 7 C 2.407723 -1.930707 0.086358 0
M  V30 8 N 2.057840 -1.439861 -1.202355 0
M  V30 9 C 1.310760 -0.232255 -1.283936 0
M  V30 10 C 0.921621 0.466414 -0.160078 0
M  V30 11 C 0.197013 1.635422 -0.268416 0
M  V30 12 C -0.174734 2.165650 -1.485464 0
M  V30 13 N -0.916605 3.365118 -1.657967 0
M  V30 14 C -1.275204 4.176578 -0.538742 0
M  V30 15 C -2.754685 4.061164 -0.250807 0
M  V30 16 C -3.454450 3.606680 -1.495748 0
M  V30 17 N -3.430642 4.668117 -2.455755 0
M  V30 18 C -2.214542 4.805632 -3.172418 0
M  V30 19 C -1.259043 3.662182 -3.030476 0
M  V30 20 C 0.239553 1.428373 -2.574586 0
M  V30 21 N 0.946550 0.287631 -2.469382 0
M  V30 22 N 1.463887 -2.761678 0.584228 0
M  V30 23 C 1.588035 -3.346791 1.799381 0
M  V30 24 N 0.812315 -4.195527 2.514380 0
M  V30 25 C -0.468418 -4.727240 2.091046 0
M  V30 26 C -1.453959 -3.685616 1.676142 0
M  V30 27 C -1.632876 -3.784808 0.181756 0
M  V30 28 C -0.893866 -5.009945 -0.284403 0
M  V30 29 C -0.332258 -5.682322 0.929488 0
M  V30 30 C 1.445229 -4.455137 3.687048 0
M  V30 31 C 1.087110 -5.256407 4.772272 0
M  V30 32 N 1.935839 -5.324704 5.828546 0
M  V30 33 H 3.738631 -4.734934 6.717003 0
M  V30 34 H 4.442788 -3.279107 4.803911 0
M  V30 35 H 4.611164 -1.963186 2.561426 0
M  V30 36 H 2.321132 -1.919676 -2.081038 0
M  V30 37 H 1.211004 0.054045 0.795104 0
M  V30 38 H -0.076246 2.130600 0.629976 0
M  V30 39 H -1.124913 5.255102 -0.847714 0
M  V30 40 H -0.699959 4.033173 0.376742 0
M  V30 41 H -2.971623 3.364217 0.577454 0
M  V30 42 H -3.210828 5.038834 0.032520 0
M  V30 43 H -4.484032 3.331870 -1.197885 0
M  V30 44 H -3.020140 2.709391 -1.948274 0
M  V30 45 H -3.829298 5.549577 -2.104999 0
M  V30 46 H -1.671544 5.748756 -2.904824 0
M  V30 47 H -2.447814 4.888482 -4.254277 0
M  V30 48 H -1.695772 2.768627 -3.492028 0
M  V30 49 H -0.323530 3.918061 -3.560313 0
M  V30 50 H 0.031041 1.707753 -3.592216 0
M  V30 51 H -0.912673 -5.302784 2.933694 0
M  V30 52 H -2.468832 -3.876087 2.132237 0
M  V30 53 H -1.197428 -2.661086 2.001990 0
M  V30 54 H -1.243575 -2.857984 -0.314885 0
M  V30 55 H -2.707220 -3.870976 -0.109369 0
M  V30 56 H -1.557852 -5.683250 -0.875460 0
M  V30 57 H -0.105399 -4.681379 -1.017509 0
M  V30 58 H 0.719636 -5.999908 0.764512 0
M  V30 59 H -0.902352 -6.628935 1.085080 0
M  V30 60 H 0.152378 -5.777964 4.709574 0
M  V30 END ATOM
M  V30 BEGIN BOND
M  V30 1 2 1 2
M  V30 2 1 2 3
M  V30 3 1 3 4
M  V30 4 2 4 5
M  V30 5 1 5 6
M  V30 6 2 6 7
M  V30 7 1 7 8
M  V30 8 1 8 9
M  V30 9 2 9 10
M  V30 10 1 10 11
M  V30 11 2 11 12
M  V30 12 1 12 13
M  V30 13 1 13 14
M  V30 14 1 14 15
M  V30 15 1 15 16
M  V30 16 1 16 17
M  V30 17 1 17 18
M  V30 18 1 18 19
M  V30 19 1 12 20
M  V30 20 2 20 21
M  V30 21 1 7 22
M  V30 22 2 22 23
M  V30 23 1 23 24
M  V30 24 1 24 25
M  V30 25 1 25 26
M  V30 26 1 26 27
M  V30 27 1 27 28
M  V30 28 1 28 29
M  V30 29 1 24 30
M  V30 30 1 30 31
M  V30 31 2 31 32
M  V30 32 1 32 1
M  V30 33 2 30 3
M  V30 34 1 23 4
M  V30 35 1 29 25
M  V30 36 1 21 9
M  V30 37 1 19 13
M  V30 38 1 1 33
M  V30 39 1 2 34
M  V30 40 1 5 35
M  V30 41 1 8 36
M  V30 42 1 10 37
M  V30 43 1 11 38
M  V30 44 1 14 39
M  V30 45 1 14 40
M  V30 46 1 15 41
M  V30 47 1 15 42
M  V30 48 1 16 43
M  V30 49 1 16 44
M  V30 50 1 17 45
M  V30 51 1 18 46
M  V30 52 1 18 47
M  V30 53 1 19 48
M  V30 54 1 19 49
M  V30 55 1 20 50
M  V30 56 1 25 51
M  V30 57 1 26 52
M  V30 58 1 26 53
M  V30 59 1 27 54
M  V30 60 1 27 55
M  V30 61 1 28 56
M  V30 62 1 28 57
M  V30 63 1 29 58
M  V30 64 1 29 59
M  V30 65 1 31 60
M  V30 END BOND
M  V30 END CTAB
M  END
>  <Dataset>  (308) 
ChEMBL_Kinases

>  <Ligand_Instance>  (308) 
nan

>  <PDB_ID>  (308) 
nan

>  <Standardized_SMILES>  (308) 
c1cc2c3cnc(Nc4ccc(N5CCCNCC5)cn4)nc3n(C3CCCC3)c2cn1

>  <Name>  (308) 
nan

>  <Pocket>  (308) 
nan

>  <ATP_Site>  (308) 
nan

>  <Peripheral>  (308) 
nan

>  <Num_H_Atoms_ProtBoundConf>  (308) 
nan

>  <Num_Resolved_Atoms>  (308) 
nan

>  <Num_Not_Resolved_Atoms>  (308) 
nan

$$$$
CHEMBL3698682
     RDKit          3D

  0  0  0  0  0  0  0  0  0  0999 V3000
M  V30 BEGIN CTAB
M  V30 COUNTS 59 64 0 0 0
M  V30 BEGIN ATOM
M  V30 1 C 4.108180 -4.844287 4.319638 0
M  V30 2 C 3.153598 -5.762053 3.921910 0
M  V30 3 C 2.252330 -5.543780 2.880105 0
M  V30 4 C 2.340546 -4.328913 2.222626 0
M  V30 5 C 3.282860 -3.372926 2.584517 0
M  V30 6 C 4.168642 -3.632222 3.636008 0
M  V30 7 C 3.128429 -2.266952 1.749341 0
M  V30 8 C 3.771641 -1.047204 1.647547 0
M  V30 9 N 3.400617 -0.139390 0.715665 0
M  V30 10 C 2.376043 -0.466626 -0.115485 0
M  V30 11 N 1.831454 0.325839 -1.152161 0
M  V30 12 C 0.769287 1.205844 -0.876434 0
M  V30 13 C 0.258740 1.298155 0.406519 0
M  V30 14 C -0.783670 2.175823 0.629531 0
M  V30 15 C -1.367822 2.977526 -0.322847 0
M  V30 16 N -2.437260 3.869775 -0.057346 0
M  V30 17 C -2.996940 4.080843 1.264923 0
M  V30 18 C -4.316065 3.294877 1.275912 0
M  V30 19 N -4.911062 3.386658 -0.036770 0
M  V30 20 C -4.575468 4.630416 -0.703660 0
M  V30 21 C -3.081504 4.653911 -1.065851 0
M  V30 22 C -0.827855 2.851821 -1.582001 0
M  V30 23 C 0.213958 1.996849 -1.882245 0
M  V30 24 N 1.750602 -1.672730 -0.004214 0
M  V30 25 C 2.082976 -2.594738 0.897523 0
M  V30 26 N 1.617815 -3.831266 1.188775 0
M  V30 27 C 0.543306 -4.518428 0.528299 0
M  V30 28 C 1.039840 -5.432529 -0.575176 0
M  V30 29 C -0.044278 -5.318766 -1.651882 0
M  V30 30 C -0.327914 -3.814272 -1.536362 0
M  V30 31 C -0.525033 -3.686824 -0.054710 0
M  V30 32 H 4.777694 -5.083535 5.140809 0
M  V30 33 H 3.076211 -6.723617 4.434631 0
M  V30 34 H 1.522113 -6.283048 2.598868 0
M  V30 35 H 4.894156 -2.906829 3.921166 0
M  V30 36 H 4.585185 -0.817262 2.325645 0
M  V30 37 H 2.207428 0.272855 -2.142287 0
M  V30 38 H 0.696505 0.682750 1.169391 0
M  V30 39 H -1.130550 2.193846 1.651836 0
M  V30 40 H -2.334970 3.760911 2.070770 0
M  V30 41 H -3.329729 5.149402 1.405084 0
M  V30 42 H -4.036129 2.241248 1.471860 0
M  V30 43 H -4.963262 3.708119 2.067224 0
M  V30 44 H -4.663055 2.614461 -0.676379 0
M  V30 45 H -5.181319 4.658188 -1.627834 0
M  V30 46 H -4.849009 5.507079 -0.096062 0
M  V30 47 H -2.756721 5.725834 -0.950881 0
M  V30 48 H -2.912613 4.373653 -2.098163 0
M  V30 49 H -1.167932 3.401424 -2.420058 0
M  V30 50 H 0.651190 1.880854 -2.852705 0
M  V30 51 H 0.073122 -5.215775 1.281348 0
M  V30 52 H 1.961731 -5.047096 -1.049511 0
M  V30 53 H 1.110009 -6.494675 -0.271838 0
M  V30 54 H 0.327573 -5.596161 -2.655145 0
M  V30 55 H -0.979875 -5.830293 -1.352781 0
M  V30 56 H 0.571927 -3.325812 -1.933459 0
M  V30 57 H -1.243742 -3.554668 -2.110461 0
M  V30 58 H -1.545002 -4.129847 0.145708 0
M  V30 59 H -0.588054 -2.651376 0.311076 0
M  V30 END ATOM
M  V30 BEGIN BOND
M  V30 1 2 1 2
M  V30 2 1 2 3
M  V30 3 2 3 4
M  V30 4 1 4 5
M  V30 5 2 5 6
M  V30 6 1 5 7
M  V30 7 2 7 8
M  V30 8 1 8 9
M  V30 9 2 9 10
M  V30 10 1 10 11
M  V30 11 1 11 12
M  V30 12 2 12 13
M  V30 13 1 13 14
M  V30 14 2 14 15
M  V30 15 1 15 16
M  V30 16 1 16 17
M  V30 17 1 17 18
M  V30 18 1 18 19
M  V30 19 1 19 20
M  V30 20 1 20 21
M  V30 21 1 15 22
M  V30 22 2 22 23
M  V30 23 1 10 24
M  V30 24 2 24 25
M  V30 25 1 25 26
M  V30 26 1 26 27
M  V30 27 1 27 28
M  V30 28 1 28 29
M  V30 29 1 29 30
M  V30 30 1 30 31
M  V30 31 1 6 1
M  V30 32 1 25 7
M  V30 33 1 31 27
M  V30 34 1 26 4
M  V30 35 1 23 12
M  V30 36 1 21 16
M  V30 37 1 1 32
M  V30 38 1 2 33
M  V30 39 1 3 34
M  V30 40 1 6 35
M  V30 41 1 8 36
M  V30 42 1 11 37
M  V30 43 1 13 38
M  V30 44 1 14 39
M  V30 45 1 17 40
M  V30 46 1 17 41
M  V30 47 1 18 42
M  V30 48 1 18 43
M  V30 49 1 19 44
M  V30 50 1 20 45
M  V30 51 1 20 46
M  V30 52 1 21 47
M  V30 53 1 21 48
M  V30 54 1 22 49
M  V30 55 1 23 50
M  V30 56 1 27 51
M  V30 57 1 28 52
M  V30 58 1 28 53
M  V30 59 1 29 54
M  V30 60 1 29 55
M  V30 61 1 30 56
M  V30 62 1 30 57
M  V30 63 1 31 58
M  V30 64 1 31 59
M  V30 END BOND
M  V30 END CTAB
M  END
>  <Dataset>  (309) 
ChEMBL_Kinases

>  <Ligand_Instance>  (309) 
nan

>  <PDB_ID>  (309) 
nan

>  <Standardized_SMILES>  (309) 
c1ccc2c(c1)c1cnc(Nc3ccc(N4CCNCC4)cc3)nc1n2C1CCCC1

>  <Name>  (309) 
nan

>  <Pocket>  (309) 
nan

>  <ATP_Site>  (309) 
nan

>  <Peripheral>  (309) 
nan

>  <Num_H_Atoms_ProtBoundConf>  (309) 
nan

>  <Num_Resolved_Atoms>  (309) 
nan

>  <Num_Not_Resolved_Atoms>  (309) 
nan

$$$$
CHEMBL3698681
     RDKit          3D

  0  0  0  0  0  0  0  0  0  0999 V3000
M  V30 BEGIN CTAB
M  V30 COUNTS 60 65 0 0 0
M  V30 BEGIN ATOM
M  V30 1 C 4.027473 -6.276046 1.383215 0
M  V30 2 C 3.696179 -6.609634 0.064358 0
M  V30 3 C 3.158816 -5.621054 -0.728739 0
M  V30 4 C 2.948928 -4.354246 -0.264192 0
M  V30 5 C 3.288876 -4.067731 1.040456 0
M  V30 6 C 3.825090 -4.982230 1.896234 0
M  V30 7 C 2.979097 -2.730023 1.261031 0
M  V30 8 C 3.093115 -1.890976 2.363259 0
M  V30 9 N 2.667661 -0.637032 2.156440 0
M  V30 10 C 2.162565 -0.164516 1.005794 0
M  V30 11 N 1.797807 1.205300 1.113051 0
M  V30 12 C 0.423354 1.490129 1.340444 0
M  V30 13 C -0.535789 0.498623 1.365523 0
M  V30 14 C -1.865620 0.791444 1.580135 0
M  V30 15 C -2.310095 2.086698 1.781076 0
M  V30 16 N -3.682041 2.383506 1.989979 0
M  V30 17 C -4.801017 1.505238 1.908977 0
M  V30 18 C -5.690208 1.486952 3.126503 0
M  V30 19 N -5.820505 2.778169 3.741864 0
M  V30 20 C -5.527129 3.797164 2.734668 0
M  V30 21 C -4.062981 3.738202 2.337555 0
M  V30 22 C -1.356665 3.076574 1.757169 0
M  V30 23 C -0.024113 2.796771 1.543540 0
M  V30 24 N 2.062645 -1.014458 -0.063322 0
M  V30 25 C 2.467139 -2.298229 0.053188 0
M  V30 26 N 2.434622 -3.253362 -0.887327 0
M  V30 27 C 1.950650 -3.126054 -2.249605 0
M  V30 28 C 0.489860 -2.762421 -2.263961 0
M  V30 29 C 0.026205 -2.006295 -3.453153 0
M  V30 30 O 0.923078 -1.054225 -3.892040 0
M  V30 31 C 2.115168 -1.623154 -4.257498 0
M  V30 32 C 2.825931 -2.323941 -3.137467 0
M  V30 33 H 4.445788 -7.043339 2.004423 0
M  V30 34 H 3.864207 -7.615527 -0.297424 0
M  V30 35 H 2.922676 -5.929483 -1.735483 0
M  V30 36 H 4.092789 -4.757943 2.919861 0
M  V30 37 H 3.498957 -2.261993 3.289439 0
M  V30 38 H 2.450979 2.000905 1.039365 0
M  V30 39 H -0.200782 -0.531177 1.208388 0
M  V30 40 H -2.527493 -0.061429 1.579876 0
M  V30 41 H -5.375302 1.784546 0.986620 0
M  V30 42 H -4.472948 0.465691 1.725325 0
M  V30 43 H -5.358543 0.739790 3.882879 0
M  V30 44 H -6.688339 1.144390 2.781791 0
M  V30 45 H -6.821618 2.931615 4.022602 0
M  V30 46 H -6.136812 3.550369 1.832818 0
M  V30 47 H -5.775119 4.815859 3.102178 0
M  V30 48 H -3.411680 4.168419 3.118755 0
M  V30 49 H -3.953924 4.420300 1.449350 0
M  V30 50 H -1.657284 4.111671 1.912180 0
M  V30 51 H 0.722780 3.608262 1.529115 0
M  V30 52 H 1.980573 -4.176919 -2.669407 0
M  V30 53 H 0.306886 -2.120437 -1.356144 0
M  V30 54 H -0.156436 -3.648141 -2.096668 0
M  V30 55 H -0.904892 -1.427517 -3.176778 0
M  V30 56 H -0.307781 -2.720547 -4.243536 0
M  V30 57 H 1.973435 -2.321854 -5.115329 0
M  V30 58 H 2.748912 -0.790869 -4.651415 0
M  V30 59 H 3.363509 -1.572539 -2.523207 0
M  V30 60 H 3.646038 -2.946208 -3.601857 0
M  V30 END ATOM
M  V30 BEGIN BOND
M  V30 1 2 1 2
M  V30 2 1 2 3
M  V30 3 2 3 4
M  V30 4 1 4 5
M  V30 5 2 5 6
M  V30 6 1 5 7
M  V30 7 2 7 8
M  V30 8 1 8 9
M  V30 9 2 9 10
M  V30 10 1 10 11
M  V30 11 1 11 12
M  V30 12 2 12 13
M  V30 13 1 13 14
M  V30 14 2 14 15
M  V30 15 1 15 16
M  V30 16 1 16 17
M  V30 17 1 17 18
M  V30 18 1 18 19
M  V30 19 1 19 20
M  V30 20 1 20 21
M  V30 21 1 15 22
M  V30 22 2 22 23
M  V30 23 1 10 24
M  V30 24 2 24 25
M  V30 25 1 25 26
M  V30 26 1 26 27
M  V30 27 1 27 28
M  V30 28 1 28 29
M  V30 29 1 29 30
M  V30 30 1 30 31
M  V30 31 1 31 32
M  V30 32 1 6 1
M  V30 33 1 25 7
M  V30 34 1 32 27
M  V30 35 1 26 4
M  V30 36 1 23 12
M  V30 37 1 21 16
M  V30 38 1 1 33
M  V30 39 1 2 34
M  V30 40 1 3 35
M  V30 41 1 6 36
M  V30 42 1 8 37
M  V30 43 1 11 38
M  V30 44 1 13 39
M  V30 45 1 14 40
M  V30 46 1 17 41
M  V30 47 1 17 42
M  V30 48 1 18 43
M  V30 49 1 18 44
M  V30 50 1 19 45
M  V30 51 1 20 46
M  V30 52 1 20 47
M  V30 53 1 21 48
M  V30 54 1 21 49
M  V30 55 1 22 50
M  V30 56 1 23 51
M  V30 57 1 27 52
M  V30 58 1 28 53
M  V30 59 1 28 54
M  V30 60 1 29 55
M  V30 61 1 29 56
M  V30 62 1 31 57
M  V30 63 1 31 58
M  V30 64 1 32 59
M  V30 65 1 32 60
M  V30 END BOND
M  V30 END CTAB
M  END
>  <Dataset>  (310) 
ChEMBL_Kinases

>  <Ligand_Instance>  (310) 
nan

>  <PDB_ID>  (310) 
nan

>  <Standardized_SMILES>  (310) 
c1ccc2c(c1)c1cnc(Nc3ccc(N4CCNCC4)cc3)nc1n2C1CCOCC1

>  <Name>  (310) 
nan

>  <Pocket>  (310) 
nan

>  <ATP_Site>  (310) 
nan

>  <Peripheral>  (310) 
nan

>  <Num_H_Atoms_ProtBoundConf>  (310) 
nan

>  <Num_Resolved_Atoms>  (310) 
nan

>  <Num_Not_Resolved_Atoms>  (310) 
nan

$$$$
CHEMBL3698680
     RDKit          3D

  0  0  0  0  0  0  0  0  0  0999 V3000
M  V30 BEGIN CTAB
M  V30 COUNTS 60 64 0 0 0
M  V30 BEGIN ATOM
M  V30 1 C 1.422806 0.488453 2.156285 0
M  V30 2 C 2.528438 0.983192 1.271564 0
M  V30 3 C 3.562367 -0.112333 1.123859 0
M  V30 4 C 3.200469 2.156547 1.949332 0
M  V30 5 O 3.701452 1.683661 3.172079 0
M  V30 6 C 2.030951 1.359925 -0.107923 0
M  V30 7 N 1.034376 2.410259 -0.079858 0
M  V30 8 C 1.210402 3.745245 -0.143032 0
M  V30 9 C 2.341735 4.527190 -0.251606 0
M  V30 10 N 2.270565 5.886258 -0.299155 0
M  V30 11 C 1.092692 6.526892 -0.242319 0
M  V30 12 C -0.080249 5.798111 -0.132942 0
M  V30 13 C 0.011196 4.423040 -0.086189 0
M  V30 14 C -0.953144 3.442480 0.017819 0
M  V30 15 C -2.326710 3.426696 0.113109 0
M  V30 16 N -2.981927 2.261378 0.202739 0
M  V30 17 C -2.388655 1.061145 0.207623 0
M  V30 18 N -3.175758 -0.110679 0.306439 0
M  V30 19 C -2.751356 -1.460130 0.328279 0
M  V30 20 C -1.449715 -1.877940 0.254447 0
M  V30 21 C -1.027343 -3.188448 0.274735 0
M  V30 22 C -1.970086 -4.187514 0.377243 0
M  V30 23 N -1.701184 -5.583557 0.410799 0
M  V30 24 C -2.670738 -6.659056 0.521469 0
M  V30 25 C -2.659512 -7.403958 -0.795560 0
M  V30 26 N -1.476261 -7.257074 -1.559957 0
M  V30 27 C -0.268622 -7.117994 -0.816461 0
M  V30 28 C -0.371404 -6.146994 0.334317 0
M  V30 29 C -3.274275 -3.751816 0.450562 0
M  V30 30 N -3.619220 -2.454209 0.425409 0
M  V30 31 N -1.055724 1.112666 0.113788 0
M  V30 32 C -0.314384 2.223786 0.020300 0
M  V30 33 H 0.644424 1.251405 2.333412 0
M  V30 34 H 1.035653 -0.468529 1.739732 0
M  V30 35 H 1.849205 0.241147 3.147987 0
M  V30 36 H 3.362783 -0.643590 0.147473 0
M  V30 37 H 4.582147 0.325304 1.085377 0
M  V30 38 H 3.411505 -0.864980 1.900111 0
M  V30 39 H 4.052649 2.501521 1.362207 0
M  V30 40 H 2.466052 2.968632 2.186729 0
M  V30 41 H 3.965867 0.740881 3.029105 0
M  V30 42 H 2.890053 1.590024 -0.769898 0
M  V30 43 H 1.581870 0.430462 -0.553600 0
M  V30 44 H 3.318746 4.065633 -0.301612 0
M  V30 45 H 1.020404 7.608973 -0.279121 0
M  V30 46 H -1.056622 6.261363 -0.083228 0
M  V30 47 H -2.869686 4.366937 0.114689 0
M  V30 48 H -4.226834 0.033525 0.373681 0
M  V30 49 H -0.642643 -1.166749 0.172124 0
M  V30 50 H 0.011806 -3.473516 0.213703 0
M  V30 51 H -3.680766 -6.346770 0.769229 0
M  V30 52 H -2.351547 -7.347247 1.356903 0
M  V30 53 H -3.561344 -7.080828 -1.361641 0
M  V30 54 H -2.841788 -8.488552 -0.550667 0
M  V30 55 H -1.560376 -6.654688 -2.404714 0
M  V30 56 H 0.123660 -8.112133 -0.534877 0
M  V30 57 H 0.489358 -6.671626 -1.516970 0
M  V30 58 H 0.445796 -5.431376 0.376611 0
M  V30 59 H -0.246357 -6.784762 1.260271 0
M  V30 60 H -4.148523 -4.400643 0.534661 0
M  V30 END ATOM
M  V30 BEGIN BOND
M  V30 1 1 1 2
M  V30 2 1 2 3
M  V30 3 1 2 4
M  V30 4 1 4 5
M  V30 5 1 2 6
M  V30 6 1 6 7
M  V30 7 1 7 8
M  V30 8 2 8 9
M  V30 9 1 9 10
M  V30 10 2 10 11
M  V30 11 1 11 12
M  V30 12 2 12 13
M  V30 13 1 13 14
M  V30 14 2 14 15
M  V30 15 1 15 16
M  V30 16 2 16 17
M  V30 17 1 17 18
M  V30 18 1 18 19
M  V30 19 2 19 20
M  V30 20 1 20 21
M  V30 21 2 21 22
M  V30 22 1 22 23
M  V30 23 1 23 24
M  V30 24 1 24 25
M  V30 25 1 25 26
M  V30 26 1 26 27
M  V30 27 1 27 28
M  V30 28 1 22 29
M  V30 29 2 29 30
M  V30 30 1 17 31
M  V30 31 2 31 32
M  V30 32 1 32 7
M  V30 33 1 13 8
M  V30 34 1 32 14
M  V30 35 1 30 19
M  V30 36 1 28 23
M  V30 37 1 1 33
M  V30 38 1 1 34
M  V30 39 1 1 35
M  V30 40 1 3 36
M  V30 41 1 3 37
M  V30 42 1 3 38
M  V30 43 1 4 39
M  V30 44 1 4 40
M  V30 45 1 5 41
M  V30 46 1 6 42
M  V30 47 1 6 43
M  V30 48 1 9 44
M  V30 49 1 11 45
M  V30 50 1 12 46
M  V30 51 1 15 47
M  V30 52 1 18 48
M  V30 53 1 20 49
M  V30 54 1 21 50
M  V30 55 1 24 51
M  V30 56 1 24 52
M  V30 57 1 25 53
M  V30 58 1 25 54
M  V30 59 1 26 55
M  V30 60 1 27 56
M  V30 61 1 27 57
M  V30 62 1 28 58
M  V30 63 1 28 59
M  V30 64 1 29 60
M  V30 END BOND
M  V30 END CTAB
M  END
>  <Dataset>  (311) 
ChEMBL_Kinases

>  <Ligand_Instance>  (311) 
nan

>  <PDB_ID>  (311) 
nan

>  <Standardized_SMILES>  (311) 
CC(C)(CO)Cn1c2cnccc2c2cnc(Nc3ccc(N4CCNCC4)cn3)nc21

>  <Name>  (311) 
nan

>  <Pocket>  (311) 
nan

>  <ATP_Site>  (311) 
nan

>  <Peripheral>  (311) 
nan

>  <Num_H_Atoms_ProtBoundConf>  (311) 
nan

>  <Num_Resolved_Atoms>  (311) 
nan

>  <Num_Not_Resolved_Atoms>  (311) 
nan

$$$$
CHEMBL3698679
     RDKit          3D

  0  0  0  0  0  0  0  0  0  0999 V3000
M  V30 BEGIN CTAB
M  V30 COUNTS 61 66 0 0 0
M  V30 BEGIN ATOM
M  V30 1 O 2.322571 -3.457100 1.946720 0
M  V30 2 C 3.096333 -3.300428 0.806780 0
M  V30 3 C 2.909564 -1.942163 0.171334 0
M  V30 4 N 3.214692 -0.832114 0.995740 0
M  V30 5 C 4.174222 -0.534746 1.852507 0
M  V30 6 C 5.280644 -1.247291 2.253543 0
M  V30 7 N 6.198696 -0.833028 3.138386 0
M  V30 8 C 6.074904 0.375043 3.712702 0
M  V30 9 C 4.992924 1.155854 3.365582 0
M  V30 10 C 4.065171 0.702295 2.452505 0
M  V30 11 C 2.905889 1.229433 1.902301 0
M  V30 12 C 2.364793 2.472581 2.182031 0
M  V30 13 N 1.233618 2.781729 1.520203 0
M  V30 14 C 0.716099 1.894984 0.658124 0
M  V30 15 N -0.479354 2.299329 -0.002501 0
M  V30 16 C -1.673480 1.493693 0.041283 0
M  V30 17 C -2.872898 1.804189 -0.561494 0
M  V30 18 C -3.953106 0.949187 -0.445994 0
M  V30 19 C -3.808420 -0.211228 0.278058 0
M  V30 20 N -4.900352 -1.105909 0.423586 0
M  V30 21 C -6.276424 -0.856781 0.032885 0
M  V30 22 C -6.793268 -1.825141 -0.990968 0
M  V30 23 N -6.400066 -3.184060 -0.790867 0
M  V30 24 C -5.123339 -3.383023 -0.181441 0
M  V30 25 C -4.851853 -2.439986 0.980442 0
M  V30 26 C -2.617022 -0.521920 0.877818 0
M  V30 27 N -1.589290 0.329814 0.745958 0
M  V30 28 N 1.296327 0.717991 0.443644 0
M  V30 29 C 2.420112 0.279972 1.029589 0
M  V30 30 C 3.742271 -1.857761 -1.109706 0
M  V30 31 C 2.980663 -0.864572 -1.975973 0
M  V30 32 C 1.553588 -1.334187 -1.760802 0
M  V30 33 C 1.502657 -1.934652 -0.395647 0
M  V30 34 H 1.369739 -3.330425 1.725261 0
M  V30 35 H 4.125325 -3.660820 0.866499 0
M  V30 36 H 2.622834 -4.085146 0.091980 0
M  V30 37 H 5.481777 -2.217533 1.852614 0
M  V30 38 H 6.784568 0.746122 4.424302 0
M  V30 39 H 4.870095 2.132194 3.813333 0
M  V30 40 H 2.823617 3.149673 2.887517 0
M  V30 41 H -0.593544 3.194183 -0.564568 0
M  V30 42 H -2.908117 2.738203 -1.117590 0
M  V30 43 H -4.838671 1.264814 -0.942700 0
M  V30 44 H -6.932772 -0.970182 0.935390 0
M  V30 45 H -6.400682 0.163631 -0.331214 0
M  V30 46 H -7.915281 -1.799946 -0.911304 0
M  V30 47 H -6.598831 -1.444716 -2.036017 0
M  V30 48 H -6.344742 -3.614266 -1.762786 0
M  V30 49 H -4.263877 -3.315640 -0.883209 0
M  V30 50 H -5.093875 -4.418802 0.235197 0
M  V30 51 H -3.867598 -2.726496 1.391539 0
M  V30 52 H -5.658852 -2.609274 1.735401 0
M  V30 53 H -2.388303 -1.391467 1.465883 0
M  V30 54 H 4.724568 -1.421627 -0.906976 0
M  V30 55 H 3.737760 -2.842729 -1.585592 0
M  V30 56 H 3.305405 -1.003442 -3.023610 0
M  V30 57 H 3.131301 0.176505 -1.695212 0
M  V30 58 H 0.797302 -0.555630 -1.967496 0
M  V30 59 H 1.384636 -2.092572 -2.585570 0
M  V30 60 H 1.169350 -3.012163 -0.557116 0
M  V30 61 H 0.742186 -1.533067 0.285147 0
M  V30 END ATOM
M  V30 BEGIN BOND
M  V30 1 1 1 2
M  V30 2 1 2 3
M  V30 3 1 3 4
M  V30 4 1 4 5
M  V30 5 2 5 6
M  V30 6 1 6 7
M  V30 7 2 7 8
M  V30 8 1 8 9
M  V30 9 2 9 10
M  V30 10 1 10 11
M  V30 11 2 11 12
M  V30 12 1 12 13
M  V30 13 2 13 14
M  V30 14 1 14 15
M  V30 15 1 15 16
M  V30 16 2 16 17
M  V30 17 1 17 18
M  V30 18 2 18 19
M  V30 19 1 19 20
M  V30 20 1 20 21
M  V30 21 1 21 22
M  V30 22 1 22 23
M  V30 23 1 23 24
M  V30 24 1 24 25
M  V30 25 1 19 26
M  V30 26 2 26 27
M  V30 27 1 14 28
M  V30 28 2 28 29
M  V30 29 1 3 30
M  V30 30 1 30 31
M  V30 31 1 31 32
M  V30 32 1 32 33
M  V30 33 1 33 3
M  V30 34 1 29 4
M  V30 35 1 10 5
M  V30 36 1 29 11
M  V30 37 1 27 16
M  V30 38 1 25 20
M  V30 39 1 1 34
M  V30 40 1 2 35
M  V30 41 1 2 36
M  V30 42 1 6 37
M  V30 43 1 8 38
M  V30 44 1 9 39
M  V30 45 1 12 40
M  V30 46 1 15 41
M  V30 47 1 17 42
M  V30 48 1 18 43
M  V30 49 1 21 44
M  V30 50 1 21 45
M  V30 51 1 22 46
M  V30 52 1 22 47
M  V30 53 1 23 48
M  V30 54 1 24 49
M  V30 55 1 24 50
M  V30 56 1 25 51
M  V30 57 1 25 52
M  V30 58 1 26 53
M  V30 59 1 30 54
M  V30 60 1 30 55
M  V30 61 1 31 56
M  V30 62 1 31 57
M  V30 63 1 32 58
M  V30 64 1 32 59
M  V30 65 1 33 60
M  V30 66 1 33 61
M  V30 END BOND
M  V30 END CTAB
M  END
>  <Dataset>  (312) 
ChEMBL_Kinases

>  <Ligand_Instance>  (312) 
nan

>  <PDB_ID>  (312) 
nan

>  <Standardized_SMILES>  (312) 
OCC1(n2c3cnccc3c3cnc(Nc4ccc(N5CCNCC5)cn4)nc32)CCCC1

>  <Name>  (312) 
nan

>  <Pocket>  (312) 
nan

>  <ATP_Site>  (312) 
nan

>  <Peripheral>  (312) 
nan

>  <Num_H_Atoms_ProtBoundConf>  (312) 
nan

>  <Num_Resolved_Atoms>  (312) 
nan

>  <Num_Not_Resolved_Atoms>  (312) 
nan

$$$$
CHEMBL2204106
     RDKit          3D

  0  0  0  0  0  0  0  0  0  0999 V3000
M  V30 BEGIN CTAB
M  V30 COUNTS 55 58 0 0 0
M  V30 BEGIN ATOM
M  V30 1 C 5.695255 -0.588596 5.037534 0
M  V30 2 N 4.806635 0.431774 5.539764 0
M  V30 3 S 3.147197 0.062431 5.245956 0
M  V30 4 O 2.733209 -1.173851 5.991937 0
M  V30 5 O 2.344102 1.212646 5.825625 0
M  V30 6 C 2.805748 -0.057182 3.544277 0
M  V30 7 C 2.909629 -1.234650 2.812590 0
M  V30 8 C 2.622753 -1.279664 1.445577 0
M  V30 9 C 2.218705 -0.132733 0.764633 0
M  V30 10 C 1.972005 -0.354386 -0.673493 0
M  V30 11 C 0.690739 -1.006991 -0.988228 0
M  V30 12 C -0.575672 -0.501501 -1.043863 0
M  V30 13 C -0.720843 0.925019 -0.812628 0
M  V30 14 O -0.281273 2.056323 -0.572895 0
M  V30 15 O -1.930936 1.577404 -0.822559 0
M  V30 16 C -2.068163 2.942133 -0.601075 0
M  V30 17 N -1.697034 -1.156816 -1.314992 0
M  V30 18 C -2.960279 -0.521585 -1.344771 0
M  V30 19 C -3.567189 -0.560300 -0.086571 0
M  V30 20 C -4.827080 0.006607 0.123824 0
M  V30 21 C -5.473212 0.607942 -0.920669 0
M  V30 22 C -4.875875 0.645497 -2.156714 0
M  V30 23 C -3.638016 0.097026 -2.394952 0
M  V30 24 C -1.646804 -2.457661 -1.571510 0
M  V30 25 C -2.807863 -3.150873 -1.855207 0
M  V30 26 C -2.717350 -4.489663 -2.114403 0
M  V30 27 Cl -4.197175 -5.380759 -2.477456 0
M  V30 28 C -1.544203 -5.180093 -2.108815 0
M  V30 29 C -0.421449 -4.442985 -1.821127 0
M  V30 30 C -0.429150 -3.074817 -1.545645 0
M  V30 31 C 0.725480 -2.376461 -1.261349 0
M  V30 32 O 1.771623 -3.104246 -1.280169 0
M  V30 33 C 2.133382 1.000870 1.533784 0
M  V30 34 C 2.405975 1.087449 2.878660 0
M  V30 35 H 6.141768 -0.212192 4.097201 0
M  V30 36 H 5.211973 -1.588028 4.940337 0
M  V30 37 H 6.557702 -0.766368 5.737375 0
M  V30 38 H 4.918038 0.463502 6.580606 0
M  V30 39 H 3.229858 -2.058582 3.438940 0
M  V30 40 H 2.775945 -2.285343 1.110641 0
M  V30 41 H 1.978277 0.658914 -1.170618 0
M  V30 42 H 2.810730 -0.953067 -1.120575 0
M  V30 43 H -3.162027 3.233038 -0.632313 0
M  V30 44 H -1.529732 3.585542 -1.346503 0
M  V30 45 H -1.723117 3.259113 0.407432 0
M  V30 46 H -3.164826 -1.003138 0.816822 0
M  V30 47 H -5.343483 0.009558 1.061198 0
M  V30 48 H -6.450326 1.066359 -0.827296 0
M  V30 49 H -5.303407 1.098978 -3.053536 0
M  V30 50 H -3.065757 0.059429 -3.306197 0
M  V30 51 H -3.753733 -2.619487 -1.864890 0
M  V30 52 H -1.460194 -6.239991 -2.312378 0
M  V30 53 H 0.533056 -4.983853 -1.812106 0
M  V30 54 H 1.839545 1.878412 1.020627 0
M  V30 55 H 2.301921 2.028963 3.367411 0
M  V30 END ATOM
M  V30 BEGIN BOND
M  V30 1 1 1 2
M  V30 2 1 2 3
M  V30 3 2 3 4
M  V30 4 2 3 5
M  V30 5 1 3 6
M  V30 6 2 6 7
M  V30 7 1 7 8
M  V30 8 2 8 9
M  V30 9 1 9 10
M  V30 10 1 10 11
M  V30 11 2 11 12
M  V30 12 1 12 13
M  V30 13 2 13 14
M  V30 14 1 13 15
M  V30 15 1 15 16
M  V30 16 1 12 17
M  V30 17 1 17 18
M  V30 18 2 18 19
M  V30 19 1 19 20
M  V30 20 2 20 21
M  V30 21 1 21 22
M  V30 22 2 22 23
M  V30 23 1 17 24
M  V30 24 2 24 25
M  V30 25 1 25 26
M  V30 26 1 26 27
M  V30 27 2 26 28
M  V30 28 1 28 29
M  V30 29 2 29 30
M  V30 30 1 30 31
M  V30 31 2 31 32
M  V30 32 1 9 33
M  V30 33 2 33 34
M  V30 34 1 34 6
M  V30 35 1 31 11
M  V30 36 1 23 18
M  V30 37 1 30 24
M  V30 38 1 1 35
M  V30 39 1 1 36
M  V30 40 1 1 37
M  V30 41 1 2 38
M  V30 42 1 7 39
M  V30 43 1 8 40
M  V30 44 1 10 41
M  V30 45 1 10 42
M  V30 46 1 16 43
M  V30 47 1 16 44
M  V30 48 1 16 45
M  V30 49 1 19 46
M  V30 50 1 20 47
M  V30 51 1 21 48
M  V30 52 1 22 49
M  V30 53 1 23 50
M  V30 54 1 25 51
M  V30 55 1 28 52
M  V30 56 1 29 53
M  V30 57 1 33 54
M  V30 58 1 34 55
M  V30 END BOND
M  V30 END CTAB
M  END
>  <Dataset>  (313) 
ChEMBL_Kinases

>  <Ligand_Instance>  (313) 
nan

>  <PDB_ID>  (313) 
nan

>  <Standardized_SMILES>  (313) 
CNS(=O)(=O)c1ccc(Cc2c(C(=O)OC)n(-c3ccccc3)c3cc(Cl)ccc3c2=O)cc1

>  <Name>  (313) 
nan

>  <Pocket>  (313) 
nan

>  <ATP_Site>  (313) 
nan

>  <Peripheral>  (313) 
nan

>  <Num_H_Atoms_ProtBoundConf>  (313) 
nan

>  <Num_Resolved_Atoms>  (313) 
nan

>  <Num_Not_Resolved_Atoms>  (313) 
nan

$$$$
CHEMBL3698687
     RDKit          3D

  0  0  0  0  0  0  0  0  0  0999 V3000
M  V30 BEGIN CTAB
M  V30 COUNTS 61 66 0 0 0
M  V30 BEGIN ATOM
M  V30 1 C 4.769186 -5.823091 2.996549 0
M  V30 2 O 4.122953 -4.828086 2.235318 0
M  V30 3 C 4.540765 -3.520189 2.117412 0
M  V30 4 N 5.663159 -3.206794 2.801327 0
M  V30 5 C 6.175695 -1.963591 2.769756 0
M  V30 6 C 5.520058 -1.010882 2.015206 0
M  V30 7 C 4.381135 -1.347467 1.326984 0
M  V30 8 C 3.562685 -0.588224 0.519269 0
M  V30 9 C 3.613181 0.734988 0.140792 0
M  V30 10 N 2.631450 1.171621 -0.680029 0
M  V30 11 C 1.647641 0.355219 -1.110579 0
M  V30 12 N 0.572670 0.712263 -1.970894 0
M  V30 13 C -0.677341 1.179966 -1.480321 0
M  V30 14 C -0.931561 1.317821 -0.133159 0
M  V30 15 C -2.171859 1.776999 0.266195 0
M  V30 16 C -3.173644 2.106236 -0.612968 0
M  V30 17 N -4.463026 2.581367 -0.247899 0
M  V30 18 C -5.508775 2.919302 -1.166744 0
M  V30 19 C -6.818194 2.457146 -0.511586 0
M  V30 20 N -7.059886 3.136475 0.722087 0
M  V30 21 C -5.868182 3.751909 1.273374 0
M  V30 22 C -4.735959 2.733585 1.168950 0
M  V30 23 C -2.862297 1.948309 -1.946746 0
M  V30 24 N -1.642922 1.496300 -2.359979 0
M  V30 25 N 1.641687 -0.922701 -0.715220 0
M  V30 26 C 2.572053 -1.451647 0.098644 0
M  V30 27 N 2.715913 -2.695130 0.587840 0
M  V30 28 C 1.936245 -3.876153 0.413812 0
M  V30 29 C 1.240086 -3.916003 -0.931051 0
M  V30 30 C 0.316549 -5.103026 -0.747773 0
M  V30 31 C 0.022547 -5.176373 0.734004 0
M  V30 32 C 0.713262 -3.948391 1.324970 0
M  V30 33 C 3.839901 -2.617256 1.346911 0
M  V30 34 H 5.863024 -5.593129 3.051830 0
M  V30 35 H 4.318153 -5.901663 4.006626 0
M  V30 36 H 4.645576 -6.809047 2.468485 0
M  V30 37 H 7.075515 -1.660933 3.301878 0
M  V30 38 H 5.904327 -0.013153 1.971058 0
M  V30 39 H 4.387085 1.395528 0.473730 0
M  V30 40 H 0.752159 0.612228 -2.974152 0
M  V30 41 H -0.171601 1.070787 0.607774 0
M  V30 42 H -2.368738 1.884456 1.324023 0
M  V30 43 H -5.638795 3.993518 -1.363453 0
M  V30 44 H -5.465506 2.342979 -2.129134 0
M  V30 45 H -6.826162 1.356205 -0.393389 0
M  V30 46 H -7.604361 2.776623 -1.233325 0
M  V30 47 H -7.787668 3.890656 0.629810 0
M  V30 48 H -5.590297 4.586147 0.589716 0
M  V30 49 H -6.006349 4.107655 2.295246 0
M  V30 50 H -5.091924 1.767837 1.616955 0
M  V30 51 H -3.891689 3.173060 1.738046 0
M  V30 52 H -3.538012 2.163246 -2.760657 0
M  V30 53 H 2.533615 -4.811022 0.522697 0
M  V30 54 H 1.925760 -4.022418 -1.777362 0
M  V30 55 H 0.571833 -3.020819 -0.988250 0
M  V30 56 H 0.819923 -6.000889 -1.141502 0
M  V30 57 H -0.679068 -4.934942 -1.248870 0
M  V30 58 H 0.577367 -6.048474 1.170941 0
M  V30 59 H -1.042016 -5.199961 0.965399 0
M  V30 60 H 0.058623 -3.089746 1.085461 0
M  V30 61 H 0.956232 -4.059843 2.381399 0
M  V30 END ATOM
M  V30 BEGIN BOND
M  V30 1 1 1 2
M  V30 2 1 2 3
M  V30 3 2 3 4
M  V30 4 1 4 5
M  V30 5 2 5 6
M  V30 6 1 6 7
M  V30 7 1 7 8
M  V30 8 2 8 9
M  V30 9 1 9 10
M  V30 10 2 10 11
M  V30 11 1 11 12
M  V30 12 1 12 13
M  V30 13 2 13 14
M  V30 14 1 14 15
M  V30 15 2 15 16
M  V30 16 1 16 17
M  V30 17 1 17 18
M  V30 18 1 18 19
M  V30 19 1 19 20
M  V30 20 1 20 21
M  V30 21 1 21 22
M  V30 22 1 16 23
M  V30 23 2 23 24
M  V30 24 1 11 25
M  V30 25 2 25 26
M  V30 26 1 26 27
M  V30 27 1 27 28
M  V30 28 1 28 29
M  V30 29 1 29 30
M  V30 30 1 30 31
M  V30 31 1 31 32
M  V30 32 1 27 33
M  V30 33 1 33 3
M  V30 34 2 33 7
M  V30 35 1 26 8
M  V30 36 1 32 28
M  V30 37 1 24 13
M  V30 38 1 22 17
M  V30 39 1 1 34
M  V30 40 1 1 35
M  V30 41 1 1 36
M  V30 42 1 5 37
M  V30 43 1 6 38
M  V30 44 1 9 39
M  V30 45 1 12 40
M  V30 46 1 14 41
M  V30 47 1 15 42
M  V30 48 1 18 43
M  V30 49 1 18 44
M  V30 50 1 19 45
M  V30 51 1 19 46
M  V30 52 1 20 47
M  V30 53 1 21 48
M  V30 54 1 21 49
M  V30 55 1 22 50
M  V30 56 1 22 51
M  V30 57 1 23 52
M  V30 58 1 28 53
M  V30 59 1 29 54
M  V30 60 1 29 55
M  V30 61 1 30 56
M  V30 62 1 30 57
M  V30 63 1 31 58
M  V30 64 1 31 59
M  V30 65 1 32 60
M  V30 66 1 32 61
M  V30 END BOND
M  V30 END CTAB
M  END
>  <Dataset>  (314) 
ChEMBL_Kinases

>  <Ligand_Instance>  (314) 
nan

>  <PDB_ID>  (314) 
nan

>  <Standardized_SMILES>  (314) 
COc1nccc2c3cnc(Nc4ccc(N5CCNCC5)cn4)nc3n(C3CCCC3)c12

>  <Name>  (314) 
nan

>  <Pocket>  (314) 
nan

>  <ATP_Site>  (314) 
nan

>  <Peripheral>  (314) 
nan

>  <Num_H_Atoms_ProtBoundConf>  (314) 
nan

>  <Num_Resolved_Atoms>  (314) 
nan

>  <Num_Not_Resolved_Atoms>  (314) 
nan

$$$$
CHEMBL3702248
     RDKit          3D

  0  0  0  0  0  0  0  0  0  0999 V3000
M  V30 BEGIN CTAB
M  V30 COUNTS 59 64 0 0 0
M  V30 BEGIN ATOM
M  V30 1 C 2.159853 -2.677142 5.415023 0
M  V30 2 C 3.378431 -3.043687 4.550589 0
M  V30 3 C 4.473309 -3.361788 5.558020 0
M  V30 4 C 3.785832 -1.874375 3.700928 0
M  V30 5 N 3.943865 -2.262822 2.298255 0
M  V30 6 C 3.345715 -1.638589 1.171761 0
M  V30 7 C 3.714755 -1.846748 -0.138888 0
M  V30 8 C 3.072503 -1.199708 -1.172244 0
M  V30 9 C 2.031259 -0.321356 -0.865229 0
M  V30 10 N 1.362605 0.379755 -1.918077 0
M  V30 11 C 0.275551 1.238646 -1.605750 0
M  V30 12 N 0.245201 2.475972 -1.079005 0
M  V30 13 C -0.910348 3.135406 -0.871343 0
M  V30 14 C -2.102436 2.547861 -1.199570 0
M  V30 15 C -3.438115 2.891049 -1.140701 0
M  V30 16 C -4.028416 4.062910 -0.676625 0
M  V30 17 C -5.405712 4.121169 -0.742331 0
M  V30 18 N -6.129609 3.093150 -1.230999 0
M  V30 19 C -5.598651 1.952580 -1.685241 0
M  V30 20 C -4.202392 1.837724 -1.642499 0
M  V30 21 N -3.365421 0.835449 -2.016698 0
M  V30 22 C -3.717897 -0.422057 -2.593127 0
M  V30 23 C -4.681270 -1.305419 -1.887139 0
M  V30 24 C -5.435110 -1.427048 -3.218505 0
M  V30 25 C -4.585773 -0.358008 -3.829714 0
M  V30 26 C -2.099733 1.280263 -1.741847 0
M  V30 27 N -0.906974 0.666826 -1.926644 0
M  V30 28 N 1.705371 -0.150014 0.426540 0
M  V30 29 N 2.336286 -0.782166 1.405869 0
M  V30 30 C 4.819368 -3.410396 2.325821 0
M  V30 31 C 4.179478 -4.606392 2.958206 0
M  V30 32 N 3.077889 -4.212152 3.784749 0
M  V30 33 H 1.286687 -2.538533 4.774442 0
M  V30 34 H 2.007803 -3.483524 6.170755 0
M  V30 35 H 2.465774 -1.741201 5.956451 0
M  V30 36 H 5.365669 -3.789971 5.086224 0
M  V30 37 H 4.792378 -2.386601 6.029258 0
M  V30 38 H 4.077853 -4.081680 6.308741 0
M  V30 39 H 3.034503 -1.068724 3.813143 0
M  V30 40 H 4.799681 -1.527171 4.030724 0
M  V30 41 H 4.508214 -2.518274 -0.350039 0
M  V30 42 H 3.377926 -1.377458 -2.192791 0
M  V30 43 H 1.684121 0.249415 -2.899124 0
M  V30 44 H -0.888219 4.114718 -0.449304 0
M  V30 45 H -3.429652 4.875573 -0.288690 0
M  V30 46 H -5.933172 5.009414 -0.395252 0
M  V30 47 H -6.214080 1.151672 -2.067765 0
M  V30 48 H -2.793560 -1.014274 -2.855594 0
M  V30 49 H -5.309926 -0.884235 -1.106250 0
M  V30 50 H -4.271370 -2.297652 -1.538493 0
M  V30 51 H -6.512444 -1.183346 -3.094772 0
M  V30 52 H -5.305571 -2.447964 -3.630973 0
M  V30 53 H -5.033947 0.602672 -4.073588 0
M  V30 54 H -4.108304 -0.768654 -4.765101 0
M  V30 55 H 5.007327 -3.665565 1.242758 0
M  V30 56 H 5.793514 -3.193056 2.832541 0
M  V30 57 H 4.922410 -5.150195 3.582466 0
M  V30 58 H 3.872503 -5.347472 2.175113 0
M  V30 59 H 2.173338 -4.171744 3.301079 0
M  V30 END ATOM
M  V30 BEGIN BOND
M  V30 1 1 1 2
M  V30 2 1 2 3
M  V30 3 1 2 4
M  V30 4 1 4 5
M  V30 5 1 5 6
M  V30 6 2 6 7
M  V30 7 1 7 8
M  V30 8 2 8 9
M  V30 9 1 9 10
M  V30 10 1 10 11
M  V30 11 2 11 12
M  V30 12 1 12 13
M  V30 13 2 13 14
M  V30 14 1 14 15
M  V30 15 2 15 16
M  V30 16 1 16 17
M  V30 17 2 17 18
M  V30 18 1 18 19
M  V30 19 2 19 20
M  V30 20 1 20 21
M  V30 21 1 21 22
M  V30 22 1 22 23
M  V30 23 1 23 24
M  V30 24 1 24 25
M  V30 25 1 21 26
M  V30 26 2 26 27
M  V30 27 1 9 28
M  V30 28 2 28 29
M  V30 29 1 5 30
M  V30 30 1 30 31
M  V30 31 1 31 32
M  V30 32 1 32 2
M  V30 33 1 29 6
M  V30 34 1 27 11
M  V30 35 1 26 14
M  V30 36 1 20 15
M  V30 37 1 25 22
M  V30 38 1 1 33
M  V30 39 1 1 34
M  V30 40 1 1 35
M  V30 41 1 3 36
M  V30 42 1 3 37
M  V30 43 1 3 38
M  V30 44 1 4 39
M  V30 45 1 4 40
M  V30 46 1 7 41
M  V30 47 1 8 42
M  V30 48 1 10 43
M  V30 49 1 13 44
M  V30 50 1 16 45
M  V30 51 1 17 46
M  V30 52 1 19 47
M  V30 53 1 22 48
M  V30 54 1 23 49
M  V30 55 1 23 50
M  V30 56 1 24 51
M  V30 57 1 24 52
M  V30 58 1 25 53
M  V30 59 1 25 54
M  V30 60 1 30 55
M  V30 61 1 30 56
M  V30 62 1 31 57
M  V30 63 1 31 58
M  V30 64 1 32 59
M  V30 END BOND
M  V30 END CTAB
M  END
>  <Dataset>  (315) 
ChEMBL_Kinases

>  <Ligand_Instance>  (315) 
nan

>  <PDB_ID>  (315) 
nan

>  <Standardized_SMILES>  (315) 
CC1(C)CN(c2ccc(Nc3ncc4c5ccncc5n(C5CCC5)c4n3)nn2)CCN1

>  <Name>  (315) 
nan

>  <Pocket>  (315) 
nan

>  <ATP_Site>  (315) 
nan

>  <Peripheral>  (315) 
nan

>  <Num_H_Atoms_ProtBoundConf>  (315) 
nan

>  <Num_Resolved_Atoms>  (315) 
nan

>  <Num_Not_Resolved_Atoms>  (315) 
nan

$$$$
CHEMBL3698747
     RDKit          3D

  0  0  0  0  0  0  0  0  0  0999 V3000
M  V30 BEGIN CTAB
M  V30 COUNTS 59 64 0 0 0
M  V30 BEGIN ATOM
M  V30 1 C 2.745454 -5.617434 4.360302 0
M  V30 2 C 3.374815 -4.468514 3.869690 0
M  V30 3 C 2.768097 -3.930287 2.767340 0
M  V30 4 C 3.093338 -2.824595 2.018589 0
M  V30 5 C 4.100170 -1.884961 2.097056 0
M  V30 6 N 4.176591 -0.891748 1.219672 0
M  V30 7 C 3.269883 -0.755568 0.206179 0
M  V30 8 N 3.021753 0.138085 -0.871152 0
M  V30 9 C 1.915057 1.016275 -0.714377 0
M  V30 10 C 1.138128 1.016734 0.439130 0
M  V30 11 C 0.041432 1.887290 0.503256 0
M  V30 12 C -0.246546 2.730121 -0.585866 0
M  V30 13 N -1.395442 3.514506 -0.303440 0
M  V30 14 C -1.639478 3.917421 1.043047 0
M  V30 15 C -2.850694 3.255273 1.661432 0
M  V30 16 C -3.510295 2.246212 0.771195 0
M  V30 17 N -4.293198 2.912584 -0.211357 0
M  V30 18 C -3.727506 4.034474 -0.865453 0
M  V30 19 C -2.320657 3.868102 -1.370623 0
M  V30 20 N 0.549579 2.668134 -1.656290 0
M  V30 21 N 1.580991 1.846482 -1.709761 0
M  V30 22 N 2.332839 -1.691699 0.191012 0
M  V30 23 C 2.143262 -2.721008 0.994895 0
M  V30 24 N 1.233762 -3.745120 1.098896 0
M  V30 25 C 0.179929 -3.822717 0.158304 0
M  V30 26 C -0.058001 -5.146015 -0.493094 0
M  V30 27 C -1.065436 -4.808997 -1.598820 0
M  V30 28 C -0.610968 -3.471565 -2.077462 0
M  V30 29 C 0.367525 -2.933677 -1.049606 0
M  V30 30 C 1.653952 -4.425406 2.164215 0
M  V30 31 C 1.096547 -5.557141 2.708773 0
M  V30 32 N 1.636070 -6.160030 3.806644 0
M  V30 33 H 3.166806 -6.098700 5.226870 0
M  V30 34 H 4.252705 -4.039841 4.309641 0
M  V30 35 H 4.857090 -1.896157 2.845307 0
M  V30 36 H 3.594856 0.169955 -1.732146 0
M  V30 37 H 1.434414 0.332542 1.226511 0
M  V30 38 H -0.457373 1.766050 1.454580 0
M  V30 39 H -0.791283 3.747149 1.709363 0
M  V30 40 H -1.809055 5.031602 1.029999 0
M  V30 41 H -2.586163 2.761986 2.644767 0
M  V30 42 H -3.634489 4.015754 1.930856 0
M  V30 43 H -4.200694 1.646993 1.432727 0
M  V30 44 H -2.805279 1.498154 0.374819 0
M  V30 45 H -5.172717 3.222974 0.259003 0
M  V30 46 H -3.744073 4.990376 -0.296868 0
M  V30 47 H -4.347331 4.242058 -1.777590 0
M  V30 48 H -2.263106 3.139942 -2.224210 0
M  V30 49 H -1.989107 4.839455 -1.776529 0
M  V30 50 H -0.769620 -3.522810 0.645172 0
M  V30 51 H -0.538421 -5.915037 0.102763 0
M  V30 52 H 0.847904 -5.584727 -0.952541 0
M  V30 53 H -2.093679 -4.691108 -1.198228 0
M  V30 54 H -1.045946 -5.573020 -2.407393 0
M  V30 55 H -1.433705 -2.752789 -2.272305 0
M  V30 56 H -0.132138 -3.616027 -3.085605 0
M  V30 57 H 0.058822 -1.900999 -0.810384 0
M  V30 58 H 1.358364 -3.017651 -1.512242 0
M  V30 59 H 0.211137 -6.006271 2.290887 0
M  V30 END ATOM
M  V30 BEGIN BOND
M  V30 1 2 1 2
M  V30 2 1 2 3
M  V30 3 1 3 4
M  V30 4 2 4 5
M  V30 5 1 5 6
M  V30 6 2 6 7
M  V30 7 1 7 8
M  V30 8 1 8 9
M  V30 9 2 9 10
M  V30 10 1 10 11
M  V30 11 2 11 12
M  V30 12 1 12 13
M  V30 13 1 13 14
M  V30 14 1 14 15
M  V30 15 1 15 16
M  V30 16 1 16 17
M  V30 17 1 17 18
M  V30 18 1 18 19
M  V30 19 1 12 20
M  V30 20 2 20 21
M  V30 21 1 7 22
M  V30 22 2 22 23
M  V30 23 1 23 24
M  V30 24 1 24 25
M  V30 25 1 25 26
M  V30 26 1 26 27
M  V30 27 1 27 28
M  V30 28 1 28 29
M  V30 29 1 24 30
M  V30 30 1 30 31
M  V30 31 2 31 32
M  V30 32 1 32 1
M  V30 33 2 30 3
M  V30 34 1 23 4
M  V30 35 1 29 25
M  V30 36 1 21 9
M  V30 37 1 19 13
M  V30 38 1 1 33
M  V30 39 1 2 34
M  V30 40 1 5 35
M  V30 41 1 8 36
M  V30 42 1 10 37
M  V30 43 1 11 38
M  V30 44 1 14 39
M  V30 45 1 14 40
M  V30 46 1 15 41
M  V30 47 1 15 42
M  V30 48 1 16 43
M  V30 49 1 16 44
M  V30 50 1 17 45
M  V30 51 1 18 46
M  V30 52 1 18 47
M  V30 53 1 19 48
M  V30 54 1 19 49
M  V30 55 1 25 50
M  V30 56 1 26 51
M  V30 57 1 26 52
M  V30 58 1 27 53
M  V30 59 1 27 54
M  V30 60 1 28 55
M  V30 61 1 28 56
M  V30 62 1 29 57
M  V30 63 1 29 58
M  V30 64 1 31 59
M  V30 END BOND
M  V30 END CTAB
M  END
>  <Dataset>  (316) 
ChEMBL_Kinases

>  <Ligand_Instance>  (316) 
nan

>  <PDB_ID>  (316) 
nan

>  <Standardized_SMILES>  (316) 
c1cc2c3cnc(Nc4ccc(N5CCCNCC5)nn4)nc3n(C3CCCC3)c2cn1

>  <Name>  (316) 
nan

>  <Pocket>  (316) 
nan

>  <ATP_Site>  (316) 
nan

>  <Peripheral>  (316) 
nan

>  <Num_H_Atoms_ProtBoundConf>  (316) 
nan

>  <Num_Resolved_Atoms>  (316) 
nan

>  <Num_Not_Resolved_Atoms>  (316) 
nan

$$$$
CHEMBL3698744
     RDKit          3D

  0  0  0  0  0  0  0  0  0  0999 V3000
M  V30 BEGIN CTAB
M  V30 COUNTS 59 64 0 0 0
M  V30 BEGIN ATOM
M  V30 1 N 2.761681 -4.393366 6.787988 0
M  V30 2 C 3.416681 -3.586674 5.744086 0
M  V30 3 C 3.882349 -4.484661 4.640712 0
M  V30 4 C 3.940364 -3.867626 3.283926 0
M  V30 5 N 2.788464 -3.038686 3.001260 0
M  V30 6 C 2.657970 -2.171677 1.884428 0
M  V30 7 C 1.626618 -1.268849 1.732126 0
M  V30 8 C 1.518157 -0.449633 0.630529 0
M  V30 9 C 2.477957 -0.545172 -0.346753 0
M  V30 10 N 2.354382 0.293217 -1.487252 0
M  V30 11 C 1.267322 1.205808 -1.557012 0
M  V30 12 N 1.423423 2.548304 -1.502010 0
M  V30 13 C 0.351723 3.369733 -1.563694 0
M  V30 14 C -0.897912 2.812414 -1.683168 0
M  V30 15 C -2.163527 3.371846 -1.768514 0
M  V30 16 C -2.623476 4.683628 -1.767925 0
M  V30 17 C -3.996448 4.938226 -1.873602 0
M  V30 18 N -4.868280 3.891774 -1.976156 0
M  V30 19 C -4.398827 2.619888 -1.975057 0
M  V30 20 C -3.058838 2.316466 -1.873364 0
M  V30 21 N -2.404651 1.144155 -1.857128 0
M  V30 22 C -2.894644 -0.190065 -1.929728 0
M  V30 23 C -1.792122 -1.224360 -1.897992 0
M  V30 24 C -2.592902 -2.490133 -2.197147 0
M  V30 25 C -3.810125 -2.052021 -2.973081 0
M  V30 26 C -3.559944 -0.557387 -3.238706 0
M  V30 27 C -1.089601 1.450360 -1.742316 0
M  V30 28 N 0.020355 0.712106 -1.675051 0
M  V30 29 N 3.499708 -1.438628 -0.196570 0
M  V30 30 N 3.581304 -2.227113 0.893173 0
M  V30 31 C 1.771679 -3.218410 4.016635 0
M  V30 32 C 2.327449 -2.608685 5.293140 0
M  V30 33 H 2.099777 -3.830318 7.358219 0
M  V30 34 H 2.176463 -5.150737 6.319177 0
M  V30 35 H 4.222721 -3.000972 6.211861 0
M  V30 36 H 3.308118 -5.448187 4.603991 0
M  V30 37 H 4.929506 -4.810176 4.911797 0
M  V30 38 H 3.879539 -4.707207 2.535279 0
M  V30 39 H 4.909118 -3.354803 3.075129 0
M  V30 40 H 0.863195 -1.174172 2.474176 0
M  V30 41 H 0.698169 0.248988 0.549189 0
M  V30 42 H 2.970343 0.345703 -2.324291 0
M  V30 43 H 0.500384 4.427140 -1.517976 0
M  V30 44 H -1.864721 5.462394 -1.679382 0
M  V30 45 H -4.285823 5.979954 -1.865455 0
M  V30 46 H -5.110929 1.834596 -2.057925 0
M  V30 47 H -3.625517 -0.391073 -1.114662 0
M  V30 48 H -1.334965 -1.348409 -0.916486 0
M  V30 49 H -1.107406 -1.076945 -2.747565 0
M  V30 50 H -2.941308 -2.920252 -1.216917 0
M  V30 51 H -1.953257 -3.207717 -2.741253 0
M  V30 52 H -3.960228 -2.624171 -3.897299 0
M  V30 53 H -4.725881 -2.062850 -2.315549 0
M  V30 54 H -2.833092 -0.505115 -4.082094 0
M  V30 55 H -4.490837 -0.029279 -3.444512 0
M  V30 56 H 1.630289 -4.313195 4.261547 0
M  V30 57 H 0.822529 -2.779590 3.694348 0
M  V30 58 H 1.559689 -2.464279 6.071880 0
M  V30 59 H 2.816704 -1.659038 5.038546 0
M  V30 END ATOM
M  V30 BEGIN BOND
M  V30 1 1 1 2
M  V30 2 1 2 3
M  V30 3 1 3 4
M  V30 4 1 4 5
M  V30 5 1 5 6
M  V30 6 2 6 7
M  V30 7 1 7 8
M  V30 8 2 8 9
M  V30 9 1 9 10
M  V30 10 1 10 11
M  V30 11 2 11 12
M  V30 12 1 12 13
M  V30 13 2 13 14
M  V30 14 1 14 15
M  V30 15 2 15 16
M  V30 16 1 16 17
M  V30 17 2 17 18
M  V30 18 1 18 19
M  V30 19 2 19 20
M  V30 20 1 20 21
M  V30 21 1 21 22
M  V30 22 1 22 23
M  V30 23 1 23 24
M  V30 24 1 24 25
M  V30 25 1 25 26
M  V30 26 1 21 27
M  V30 27 2 27 28
M  V30 28 1 9 29
M  V30 29 2 29 30
M  V30 30 1 5 31
M  V30 31 1 31 32
M  V30 32 1 32 2
M  V30 33 1 30 6
M  V30 34 1 28 11
M  V30 35 1 27 14
M  V30 36 1 20 15
M  V30 37 1 26 22
M  V30 38 1 1 33
M  V30 39 1 1 34
M  V30 40 1 2 35
M  V30 41 1 3 36
M  V30 42 1 3 37
M  V30 43 1 4 38
M  V30 44 1 4 39
M  V30 45 1 7 40
M  V30 46 1 8 41
M  V30 47 1 10 42
M  V30 48 1 13 43
M  V30 49 1 16 44
M  V30 50 1 17 45
M  V30 51 1 19 46
M  V30 52 1 22 47
M  V30 53 1 23 48
M  V30 54 1 23 49
M  V30 55 1 24 50
M  V30 56 1 24 51
M  V30 57 1 25 52
M  V30 58 1 25 53
M  V30 59 1 26 54
M  V30 60 1 26 55
M  V30 61 1 31 56
M  V30 62 1 31 57
M  V30 63 1 32 58
M  V30 64 1 32 59
M  V30 END BOND
M  V30 END CTAB
M  END
>  <Dataset>  (317) 
ChEMBL_Kinases

>  <Ligand_Instance>  (317) 
nan

>  <PDB_ID>  (317) 
nan

>  <Standardized_SMILES>  (317) 
NC1CCN(c2ccc(Nc3ncc4c5ccncc5n(C5CCCC5)c4n3)nn2)CC1

>  <Name>  (317) 
nan

>  <Pocket>  (317) 
nan

>  <ATP_Site>  (317) 
nan

>  <Peripheral>  (317) 
nan

>  <Num_H_Atoms_ProtBoundConf>  (317) 
nan

>  <Num_Resolved_Atoms>  (317) 
nan

>  <Num_Not_Resolved_Atoms>  (317) 
nan

$$$$
CHEMBL3698741
     RDKit          3D

  0  0  0  0  0  0  0  0  0  0999 V3000
M  V30 BEGIN CTAB
M  V30 COUNTS 54 59 0 0 0
M  V30 BEGIN ATOM
M  V30 1 C 0.227662 -6.654863 2.694235 0
M  V30 2 C 0.971625 -5.734858 1.984950 0
M  V30 3 C 0.299560 -4.744608 1.256083 0
M  V30 4 C 0.791184 -3.717750 0.475997 0
M  V30 5 C 2.092637 -3.362757 0.189058 0
M  V30 6 N 2.230891 -2.291258 -0.608820 0
M  V30 7 C 1.160594 -1.606884 -1.097711 0
M  V30 8 N 1.628575 -0.515097 -1.884025 0
M  V30 9 C 1.585149 0.718506 -1.171946 0
M  V30 10 C 1.081880 0.786286 0.134068 0
M  V30 11 C 1.012717 1.961656 0.894969 0
M  V30 12 C 1.478178 3.135657 0.304881 0
M  V30 13 N 1.425130 4.354898 1.033687 0
M  V30 14 C 1.957445 5.693860 0.828196 0
M  V30 15 C 2.551886 6.081377 2.172074 0
M  V30 16 C 1.835366 5.200336 3.183275 0
M  V30 17 C 0.756030 4.611187 2.293464 0
M  V30 18 N 1.952141 3.030462 -0.945278 0
M  V30 19 N 2.007603 1.911345 -1.644664 0
M  V30 20 N -0.089792 -1.994752 -0.787719 0
M  V30 21 C -0.329717 -3.037864 -0.008697 0
M  V30 22 N -1.425329 -3.618900 0.452184 0
M  V30 23 C -2.793354 -3.233488 0.207385 0
M  V30 24 C -3.520895 -4.301155 -0.574256 0
M  V30 25 C -3.237847 -3.914115 -2.025162 0
M  V30 26 C -3.060083 -2.415217 -2.010963 0
M  V30 27 C -2.988283 -2.003380 -0.581084 0
M  V30 28 C -1.090103 -4.656208 1.221778 0
M  V30 29 C -1.758756 -5.616063 1.959288 0
M  V30 30 N -1.119407 -6.584486 2.672682 0
M  V30 31 H 0.819645 -7.383422 3.227693 0
M  V30 32 H 2.071001 -5.753622 1.973870 0
M  V30 33 H 2.916011 -3.938412 0.600854 0
M  V30 34 H 1.996148 -0.429384 -2.873452 0
M  V30 35 H 0.705740 -0.101130 0.638717 0
M  V30 36 H 0.610489 1.917469 1.886208 0
M  V30 37 H 2.765640 5.685317 0.083227 0
M  V30 38 H 1.119089 6.371386 0.604122 0
M  V30 39 H 3.632745 5.961438 2.239335 0
M  V30 40 H 2.285412 7.122195 2.411794 0
M  V30 41 H 2.471634 4.424857 3.616908 0
M  V30 42 H 1.338739 5.758633 3.988421 0
M  V30 43 H 0.267847 3.726491 2.719772 0
M  V30 44 H -0.008017 5.406592 2.069192 0
M  V30 45 H -3.281637 -3.105076 1.201666 0
M  V30 46 H -3.137841 -5.329122 -0.372486 0
M  V30 47 H -4.629199 -4.221238 -0.371399 0
M  V30 48 H -2.331252 -4.469708 -2.311628 0
M  V30 49 H -4.126676 -4.173104 -2.668708 0
M  V30 50 H -3.926093 -1.928279 -2.542791 0
M  V30 51 H -2.177747 -2.182187 -2.623447 0
M  V30 52 H -4.000163 -1.572326 -0.318276 0
M  V30 53 H -2.283517 -1.175935 -0.374562 0
M  V30 54 H -2.839725 -5.616753 1.985739 0
M  V30 END ATOM
M  V30 BEGIN BOND
M  V30 1 2 1 2
M  V30 2 1 2 3
M  V30 3 1 3 4
M  V30 4 2 4 5
M  V30 5 1 5 6
M  V30 6 2 6 7
M  V30 7 1 7 8
M  V30 8 1 8 9
M  V30 9 2 9 10
M  V30 10 1 10 11
M  V30 11 2 11 12
M  V30 12 1 12 13
M  V30 13 1 13 14
M  V30 14 1 14 15
M  V30 15 1 15 16
M  V30 16 1 16 17
M  V30 17 1 12 18
M  V30 18 2 18 19
M  V30 19 1 7 20
M  V30 20 2 20 21
M  V30 21 1 21 22
M  V30 22 1 22 23
M  V30 23 1 23 24
M  V30 24 1 24 25
M  V30 25 1 25 26
M  V30 26 1 26 27
M  V30 27 1 22 28
M  V30 28 1 28 29
M  V30 29 2 29 30
M  V30 30 1 30 1
M  V30 31 2 28 3
M  V30 32 1 21 4
M  V30 33 1 27 23
M  V30 34 1 19 9
M  V30 35 1 17 13
M  V30 36 1 1 31
M  V30 37 1 2 32
M  V30 38 1 5 33
M  V30 39 1 8 34
M  V30 40 1 10 35
M  V30 41 1 11 36
M  V30 42 1 14 37
M  V30 43 1 14 38
M  V30 44 1 15 39
M  V30 45 1 15 40
M  V30 46 1 16 41
M  V30 47 1 16 42
M  V30 48 1 17 43
M  V30 49 1 17 44
M  V30 50 1 23 45
M  V30 51 1 24 46
M  V30 52 1 24 47
M  V30 53 1 25 48
M  V30 54 1 25 49
M  V30 55 1 26 50
M  V30 56 1 26 51
M  V30 57 1 27 52
M  V30 58 1 27 53
M  V30 59 1 29 54
M  V30 END BOND
M  V30 END CTAB
M  END
>  <Dataset>  (318) 
ChEMBL_Kinases

>  <Ligand_Instance>  (318) 
nan

>  <PDB_ID>  (318) 
nan

>  <Standardized_SMILES>  (318) 
c1cc2c3cnc(Nc4ccc(N5CCCC5)nn4)nc3n(C3CCCC3)c2cn1

>  <Name>  (318) 
nan

>  <Pocket>  (318) 
nan

>  <ATP_Site>  (318) 
nan

>  <Peripheral>  (318) 
nan

>  <Num_H_Atoms_ProtBoundConf>  (318) 
nan

>  <Num_Resolved_Atoms>  (318) 
nan

>  <Num_Not_Resolved_Atoms>  (318) 
nan

$$$$
CHEMBL3698739
     RDKit          3D

  0  0  0  0  0  0  0  0  0  0999 V3000
M  V30 BEGIN CTAB
M  V30 COUNTS 56 61 0 0 0
M  V30 BEGIN ATOM
M  V30 1 N 0.606669 -2.573466 4.671101 0
M  V30 2 C 1.870049 -3.209974 4.947056 0 CFG=2
M  V30 3 C 2.811731 -2.168608 5.560433 0
M  V30 4 C 4.026607 -2.166105 4.646889 0
M  V30 5 N 3.369716 -2.465525 3.364497 0
M  V30 6 C 3.356553 -1.898071 2.062876 0
M  V30 7 C 2.323168 -0.983901 1.878725 0
M  V30 8 C 2.168809 -0.348474 0.659111 0
M  V30 9 C 3.018599 -0.593124 -0.402216 0
M  V30 10 N 2.836868 0.059519 -1.650600 0
M  V30 11 C 1.744502 0.970880 -1.709433 0
M  V30 12 N 1.718004 2.309958 -1.744204 0
M  V30 13 C 0.533072 2.953187 -1.775665 0
M  V30 14 C -0.658423 2.237059 -1.771248 0
M  V30 15 C -1.965947 2.621101 -1.792823 0
M  V30 16 C -2.599594 3.846147 -1.829783 0
M  V30 17 C -3.969739 3.886199 -1.839995 0
M  V30 18 N -4.672822 2.728835 -1.813896 0
M  V30 19 C -4.043198 1.524827 -1.778004 0
M  V30 20 C -2.676004 1.416942 -1.765883 0
M  V30 21 N -1.903109 0.340452 -1.731455 0
M  V30 22 C -2.194471 -1.050760 -1.691961 0
M  V30 23 C -2.753461 -1.552461 -0.374351 0
M  V30 24 C -3.016915 -3.010739 -0.789838 0
M  V30 25 C -3.860870 -2.730259 -2.041605 0
M  V30 26 C -3.088071 -1.602615 -2.739581 0
M  V30 27 C -0.635449 0.865898 -1.735187 0
M  V30 28 N 0.578363 0.289016 -1.706131 0
M  V30 29 N 4.000317 -1.492727 -0.150362 0
M  V30 30 N 4.142992 -2.088780 0.998325 0
M  V30 31 C 2.598973 -3.653812 3.712750 0
M  V30 32 H 0.315550 -2.639440 3.666482 0
M  V30 33 H 0.648573 -1.543061 4.900412 0
M  V30 34 H 1.662525 -4.046128 5.642136 0
M  V30 35 H 3.072461 -2.482990 6.579975 0
M  V30 36 H 2.364129 -1.171396 5.543724 0
M  V30 37 H 4.640092 -3.070284 4.873886 0
M  V30 38 H 4.578008 -1.226550 4.633877 0
M  V30 39 H 1.595144 -0.724313 2.662736 0
M  V30 40 H 1.344237 0.370037 0.544226 0
M  V30 41 H 3.507475 -0.166567 -2.430207 0
M  V30 42 H 0.546463 4.032734 -1.804102 0
M  V30 43 H -1.921862 4.710530 -1.847509 0
M  V30 44 H -4.438884 4.865389 -1.868897 0
M  V30 45 H -4.659884 0.663525 -1.757027 0
M  V30 46 H -1.230999 -1.642375 -1.787866 0
M  V30 47 H -3.711211 -1.134537 -0.085846 0
M  V30 48 H -1.947381 -1.497094 0.387578 0
M  V30 49 H -3.528442 -3.594053 -0.036407 0
M  V30 50 H -2.029987 -3.420935 -1.132000 0
M  V30 51 H -4.834108 -2.346176 -1.642617 0
M  V30 52 H -3.986413 -3.617936 -2.657560 0
M  V30 53 H -3.725468 -0.909044 -3.280895 0
M  V30 54 H -2.519877 -2.155571 -3.549171 0
M  V30 55 H 1.948629 -4.005621 2.904858 0
M  V30 56 H 3.267815 -4.514625 3.995516 0
M  V30 END ATOM
M  V30 BEGIN BOND
M  V30 1 1 1 2
M  V30 2 1 2 3
M  V30 3 1 3 4
M  V30 4 1 4 5
M  V30 5 1 5 6
M  V30 6 2 6 7
M  V30 7 1 7 8
M  V30 8 2 8 9
M  V30 9 1 9 10
M  V30 10 1 10 11
M  V30 11 2 11 12
M  V30 12 1 12 13
M  V30 13 2 13 14
M  V30 14 1 14 15
M  V30 15 2 15 16
M  V30 16 1 16 17
M  V30 17 2 17 18
M  V30 18 1 18 19
M  V30 19 2 19 20
M  V30 20 1 20 21
M  V30 21 1 21 22
M  V30 22 1 22 23
M  V30 23 1 23 24
M  V30 24 1 24 25
M  V30 25 1 25 26
M  V30 26 1 21 27
M  V30 27 2 27 28
M  V30 28 1 9 29
M  V30 29 2 29 30
M  V30 30 1 5 31
M  V30 31 1 31 2
M  V30 32 1 30 6
M  V30 33 1 28 11
M  V30 34 1 27 14
M  V30 35 1 20 15
M  V30 36 1 26 22
M  V30 37 1 1 32
M  V30 38 1 1 33
M  V30 39 1 2 34 CFG=1
M  V30 40 1 3 35
M  V30 41 1 3 36
M  V30 42 1 4 37
M  V30 43 1 4 38
M  V30 44 1 7 39
M  V30 45 1 8 40
M  V30 46 1 10 41
M  V30 47 1 13 42
M  V30 48 1 16 43
M  V30 49 1 17 44
M  V30 50 1 19 45
M  V30 51 1 22 46
M  V30 52 1 23 47
M  V30 53 1 23 48
M  V30 54 1 24 49
M  V30 55 1 24 50
M  V30 56 1 25 51
M  V30 57 1 25 52
M  V30 58 1 26 53
M  V30 59 1 26 54
M  V30 60 1 31 55
M  V30 61 1 31 56
M  V30 END BOND
M  V30 END CTAB
M  END
>  <Dataset>  (319) 
ChEMBL_Kinases

>  <Ligand_Instance>  (319) 
nan

>  <PDB_ID>  (319) 
nan

>  <Standardized_SMILES>  (319) 
N[C@@H]1CCN(c2ccc(Nc3ncc4c5ccncc5n(C5CCCC5)c4n3)nn2)C1

>  <Name>  (319) 
nan

>  <Pocket>  (319) 
nan

>  <ATP_Site>  (319) 
nan

>  <Peripheral>  (319) 
nan

>  <Num_H_Atoms_ProtBoundConf>  (319) 
nan

>  <Num_Resolved_Atoms>  (319) 
nan

>  <Num_Not_Resolved_Atoms>  (319) 
nan

$$$$
CHEMBL3698738
     RDKit          3D

  0  0  0  0  0  0  0  0  0  0999 V3000
M  V30 BEGIN CTAB
M  V30 COUNTS 56 61 0 0 0
M  V30 BEGIN ATOM
M  V30 1 N -0.235907 -2.732086 4.992253 0
M  V30 2 C 1.017372 -2.667869 5.712497 0 CFG=1
M  V30 3 C 1.931218 -3.836032 5.413967 0
M  V30 4 C 3.153939 -3.101558 4.845143 0
M  V30 5 N 2.559985 -2.018380 4.093238 0
M  V30 6 C 2.585975 -1.582177 2.763922 0
M  V30 7 C 1.757506 -0.556661 2.297734 0
M  V30 8 C 1.828366 -0.177446 0.964752 0
M  V30 9 C 2.725246 -0.821113 0.101289 0
M  V30 10 N 2.789165 -0.461665 -1.276636 0
M  V30 11 C 1.885659 0.560269 -1.670931 0
M  V30 12 N 2.057818 1.838256 -2.050769 0
M  V30 13 C 1.007483 2.629865 -2.369249 0
M  V30 14 C -0.259840 2.096966 -2.295860 0
M  V30 15 C -1.502580 2.648075 -2.549266 0
M  V30 16 C -1.926370 3.905678 -2.964535 0
M  V30 17 C -3.278919 4.062312 -3.102698 0
M  V30 18 N -4.180339 3.081198 -2.860229 0
M  V30 19 C -3.739810 1.878417 -2.460877 0
M  V30 20 C -2.393516 1.632760 -2.296047 0
M  V30 21 N -1.809405 0.492163 -1.907192 0
M  V30 22 C -2.268945 -0.816391 -1.534836 0
M  V30 23 C -1.124585 -1.799367 -1.373709 0
M  V30 24 C -1.863982 -3.116641 -1.297394 0
M  V30 25 C -3.243170 -2.875918 -1.878537 0
M  V30 26 C -3.049754 -1.535950 -2.613347 0
M  V30 27 C -0.477013 0.795636 -1.911753 0
M  V30 28 N 0.630564 0.126468 -1.627581 0
M  V30 29 N 3.495027 -1.800143 0.617074 0
M  V30 30 N 3.421860 -2.156823 1.887396 0
M  V30 31 C 1.877670 -1.494088 5.257296 0
M  V30 32 H -0.134635 -2.157847 4.135891 0
M  V30 33 H -0.940765 -2.203210 5.590656 0
M  V30 34 H 0.890824 -2.596075 6.807264 0
M  V30 35 H 1.479266 -4.423988 4.585818 0
M  V30 36 H 2.194915 -4.437301 6.295293 0
M  V30 37 H 3.741562 -2.718909 5.686577 0
M  V30 38 H 3.730824 -3.806055 4.203280 0
M  V30 39 H 1.086190 -0.102136 3.026906 0
M  V30 40 H 1.179158 0.614817 0.627875 0
M  V30 41 H 3.485636 -0.970497 -1.872255 0
M  V30 42 H 1.210836 3.646046 -2.667088 0
M  V30 43 H -1.206119 4.669301 -3.152148 0
M  V30 44 H -3.653723 5.043429 -3.433414 0
M  V30 45 H -4.479678 1.114513 -2.269157 0
M  V30 46 H -2.846508 -0.842694 -0.598930 0
M  V30 47 H -0.531094 -1.835339 -2.309650 0
M  V30 48 H -0.517190 -1.611188 -0.467393 0
M  V30 49 H -1.402090 -3.931572 -1.881560 0
M  V30 50 H -1.973657 -3.410319 -0.223172 0
M  V30 51 H -3.949380 -2.670034 -1.035610 0
M  V30 52 H -3.599790 -3.660090 -2.547818 0
M  V30 53 H -3.989092 -1.094655 -2.903199 0
M  V30 54 H -2.366170 -1.760499 -3.459484 0
M  V30 55 H 1.237441 -0.625413 5.025088 0
M  V30 56 H 2.606026 -1.233906 6.053960 0
M  V30 END ATOM
M  V30 BEGIN BOND
M  V30 1 1 1 2
M  V30 2 1 2 3
M  V30 3 1 3 4
M  V30 4 1 4 5
M  V30 5 1 5 6
M  V30 6 2 6 7
M  V30 7 1 7 8
M  V30 8 2 8 9
M  V30 9 1 9 10
M  V30 10 1 10 11
M  V30 11 2 11 12
M  V30 12 1 12 13
M  V30 13 2 13 14
M  V30 14 1 14 15
M  V30 15 2 15 16
M  V30 16 1 16 17
M  V30 17 2 17 18
M  V30 18 1 18 19
M  V30 19 2 19 20
M  V30 20 1 20 21
M  V30 21 1 21 22
M  V30 22 1 22 23
M  V30 23 1 23 24
M  V30 24 1 24 25
M  V30 25 1 25 26
M  V30 26 1 21 27
M  V30 27 2 27 28
M  V30 28 1 9 29
M  V30 29 2 29 30
M  V30 30 1 5 31
M  V30 31 1 31 2
M  V30 32 1 30 6
M  V30 33 1 28 11
M  V30 34 1 27 14
M  V30 35 1 20 15
M  V30 36 1 26 22
M  V30 37 1 1 32
M  V30 38 1 1 33
M  V30 39 1 2 34 CFG=1
M  V30 40 1 3 35
M  V30 41 1 3 36
M  V30 42 1 4 37
M  V30 43 1 4 38
M  V30 44 1 7 39
M  V30 45 1 8 40
M  V30 46 1 10 41
M  V30 47 1 13 42
M  V30 48 1 16 43
M  V30 49 1 17 44
M  V30 50 1 19 45
M  V30 51 1 22 46
M  V30 52 1 23 47
M  V30 53 1 23 48
M  V30 54 1 24 49
M  V30 55 1 24 50
M  V30 56 1 25 51
M  V30 57 1 25 52
M  V30 58 1 26 53
M  V30 59 1 26 54
M  V30 60 1 31 55
M  V30 61 1 31 56
M  V30 END BOND
M  V30 END CTAB
M  END
>  <Dataset>  (320) 
ChEMBL_Kinases

>  <Ligand_Instance>  (320) 
nan

>  <PDB_ID>  (320) 
nan

>  <Standardized_SMILES>  (320) 
N[C@H]1CCN(c2ccc(Nc3ncc4c5ccncc5n(C5CCCC5)c4n3)nn2)C1

>  <Name>  (320) 
nan

>  <Pocket>  (320) 
nan

>  <ATP_Site>  (320) 
nan

>  <Peripheral>  (320) 
nan

>  <Num_H_Atoms_ProtBoundConf>  (320) 
nan

>  <Num_Resolved_Atoms>  (320) 
nan

>  <Num_Not_Resolved_Atoms>  (320) 
nan

$$$$
CHEMBL3698737
     RDKit          3D

  0  0  0  0  0  0  0  0  0  0999 V3000
M  V30 BEGIN CTAB
M  V30 COUNTS 57 62 0 0 0
M  V30 BEGIN ATOM
M  V30 1 C -1.294905 -7.322095 2.860440 0
M  V30 2 C -0.706761 -6.109937 3.160881 0
M  V30 3 C -0.246433 -5.310785 2.139923 0
M  V30 4 C 0.381061 -4.070994 2.012500 0
M  V30 5 C 0.735348 -3.233361 3.077214 0
M  V30 6 N 1.343738 -2.050422 2.783586 0
M  V30 7 C 1.567214 -1.762287 1.465804 0
M  V30 8 N 2.201895 -0.506513 1.284725 0
M  V30 9 C 1.523109 0.718859 1.041547 0
M  V30 10 C 0.148119 0.743406 0.954211 0
M  V30 11 C -0.423351 1.999057 0.708291 0
M  V30 12 C 0.369813 3.118111 0.568648 0
M  V30 13 N -0.153069 4.413638 0.309380 0
M  V30 14 C 0.686079 5.610023 0.258005 0
M  V30 15 C 0.305729 6.562286 1.382551 0
M  V30 16 C -0.952431 6.077680 2.078965 0
M  V30 17 C -2.039454 5.721747 1.112317 0
M  V30 18 C -1.505530 4.791907 0.055065 0
M  V30 19 N 1.704727 3.003155 0.669432 0
M  V30 20 N 2.293908 1.830562 0.901885 0
M  V30 21 N 1.216789 -2.583195 0.477834 0
M  V30 22 C 0.607494 -3.777279 0.686438 0
M  V30 23 N 0.128207 -4.822827 -0.053171 0
M  V30 24 C 0.268758 -4.695037 -1.465743 0
M  V30 25 C -0.495276 -5.605745 -2.334176 0
M  V30 26 C -0.397285 -4.893164 -3.699556 0
M  V30 27 C -0.290062 -3.438478 -3.386692 0
M  V30 28 C 0.083876 -3.284313 -1.959756 0
M  V30 29 C -0.362556 -5.699686 0.824996 0
M  V30 30 C -0.952319 -6.911638 0.556758 0
M  V30 31 N -1.386648 -7.660297 1.563895 0
M  V30 32 H -1.625022 -7.878352 3.725246 0
M  V30 33 H -0.567434 -5.713541 4.157975 0
M  V30 34 H 0.536181 -3.510285 4.101826 0
M  V30 35 H 3.226715 -0.582249 1.350916 0
M  V30 36 H -0.463805 -0.130396 1.064378 0
M  V30 37 H -1.481627 2.064694 0.633402 0
M  V30 38 H 0.649091 6.076467 -0.729469 0
M  V30 39 H 1.721357 5.271936 0.464247 0
M  V30 40 H 0.079530 7.538813 0.907006 0
M  V30 41 H 1.110880 6.696342 2.127041 0
M  V30 42 H -1.280073 6.811812 2.830800 0
M  V30 43 H -0.708744 5.149494 2.673467 0
M  V30 44 H -2.453595 6.652414 0.666566 0
M  V30 45 H -2.839385 5.218694 1.722810 0
M  V30 46 H -2.172716 3.880838 0.044353 0
M  V30 47 H -1.616387 5.317072 -0.941230 0
M  V30 48 H 1.358259 -4.933418 -1.674319 0
M  V30 49 H -0.033677 -6.617039 -2.426197 0
M  V30 50 H -1.556970 -5.731618 -2.165202 0
M  V30 51 H 0.534149 -5.297077 -4.166391 0
M  V30 52 H -1.286604 -5.080617 -4.303378 0
M  V30 53 H -1.229496 -2.880257 -3.623636 0
M  V30 54 H 0.466531 -2.982900 -4.090547 0
M  V30 55 H -0.636042 -2.704334 -1.356323 0
M  V30 56 H 1.041123 -2.731072 -1.889062 0
M  V30 57 H -1.070012 -7.271551 -0.449385 0
M  V30 END ATOM
M  V30 BEGIN BOND
M  V30 1 2 1 2
M  V30 2 1 2 3
M  V30 3 1 3 4
M  V30 4 2 4 5
M  V30 5 1 5 6
M  V30 6 2 6 7
M  V30 7 1 7 8
M  V30 8 1 8 9
M  V30 9 2 9 10
M  V30 10 1 10 11
M  V30 11 2 11 12
M  V30 12 1 12 13
M  V30 13 1 13 14
M  V30 14 1 14 15
M  V30 15 1 15 16
M  V30 16 1 16 17
M  V30 17 1 17 18
M  V30 18 1 12 19
M  V30 19 2 19 20
M  V30 20 1 7 21
M  V30 21 2 21 22
M  V30 22 1 22 23
M  V30 23 1 23 24
M  V30 24 1 24 25
M  V30 25 1 25 26
M  V30 26 1 26 27
M  V30 27 1 27 28
M  V30 28 1 23 29
M  V30 29 1 29 30
M  V30 30 2 30 31
M  V30 31 1 31 1
M  V30 32 2 29 3
M  V30 33 1 22 4
M  V30 34 1 28 24
M  V30 35 1 20 9
M  V30 36 1 18 13
M  V30 37 1 1 32
M  V30 38 1 2 33
M  V30 39 1 5 34
M  V30 40 1 8 35
M  V30 41 1 10 36
M  V30 42 1 11 37
M  V30 43 1 14 38
M  V30 44 1 14 39
M  V30 45 1 15 40
M  V30 46 1 15 41
M  V30 47 1 16 42
M  V30 48 1 16 43
M  V30 49 1 17 44
M  V30 50 1 17 45
M  V30 51 1 18 46
M  V30 52 1 18 47
M  V30 53 1 24 48
M  V30 54 1 25 49
M  V30 55 1 25 50
M  V30 56 1 26 51
M  V30 57 1 26 52
M  V30 58 1 27 53
M  V30 59 1 27 54
M  V30 60 1 28 55
M  V30 61 1 28 56
M  V30 62 1 30 57
M  V30 END BOND
M  V30 END CTAB
M  END
>  <Dataset>  (321) 
ChEMBL_Kinases

>  <Ligand_Instance>  (321) 
nan

>  <PDB_ID>  (321) 
nan

>  <Standardized_SMILES>  (321) 
c1cc2c3cnc(Nc4ccc(N5CCCCC5)nn4)nc3n(C3CCCC3)c2cn1

>  <Name>  (321) 
nan

>  <Pocket>  (321) 
nan

>  <ATP_Site>  (321) 
nan

>  <Peripheral>  (321) 
nan

>  <Num_H_Atoms_ProtBoundConf>  (321) 
nan

>  <Num_Resolved_Atoms>  (321) 
nan

>  <Num_Not_Resolved_Atoms>  (321) 
nan

$$$$
CHEMBL3698736
     RDKit          3D

  0  0  0  0  0  0  0  0  0  0999 V3000
M  V30 BEGIN CTAB
M  V30 COUNTS 55 60 0 0 0
M  V30 BEGIN ATOM
M  V30 1 C -1.242551 -5.688427 4.810938 0
M  V30 2 C -0.432951 -4.594898 4.632600 0
M  V30 3 C -0.193540 -4.216513 3.323117 0
M  V30 4 C 0.547849 -3.197359 2.753710 0
M  V30 5 C 1.322361 -2.183708 3.323183 0
M  V30 6 N 1.969667 -1.282298 2.560019 0
M  V30 7 C 1.876980 -1.347971 1.220620 0
M  V30 8 N 2.603134 -0.343724 0.522537 0
M  V30 9 C 1.909278 0.868851 0.242470 0
M  V30 10 C 0.602063 1.036713 0.637646 0
M  V30 11 C -0.099284 2.199209 0.382188 0
M  V30 12 C 0.546420 3.218993 -0.293684 0
M  V30 13 N 0.023038 4.490182 -0.660241 0
M  V30 14 C 0.763095 5.533140 -1.379342 0
M  V30 15 C 0.767248 6.739726 -0.459404 0
M  V30 16 O -0.490745 7.108464 -0.035860 0
M  V30 17 C -1.130805 6.073710 0.655682 0
M  V30 18 C -1.325206 4.958234 -0.381748 0
M  V30 19 N 1.824329 3.020278 -0.664910 0
M  V30 20 N 2.477289 1.898622 -0.409916 0
M  V30 21 N 1.131300 -2.322043 0.630253 0
M  V30 22 C 0.479499 -3.228836 1.378787 0
M  V30 23 N -0.311060 -4.276059 1.083349 0
M  V30 24 C -0.709667 -4.754267 -0.204546 0
M  V30 25 C -1.866806 -4.020387 -0.819048 0
M  V30 26 C -1.682777 -4.128534 -2.328883 0
M  V30 27 C -0.393090 -4.924685 -2.521034 0
M  V30 28 C 0.364103 -4.526815 -1.256925 0
M  V30 29 C -0.727869 -4.885057 2.226445 0
M  V30 30 C -1.533978 -5.978170 2.502540 0
M  V30 31 N -1.769722 -6.349855 3.770963 0
M  V30 32 H -1.436517 -5.992908 5.824600 0
M  V30 33 H 0.021259 -4.020658 5.428285 0
M  V30 34 H 1.421173 -2.098998 4.415054 0
M  V30 35 H 3.599299 -0.432748 0.204362 0
M  V30 36 H 0.047805 0.253399 1.177675 0
M  V30 37 H -1.113656 2.413038 0.652451 0
M  V30 38 H 0.228061 5.815400 -2.302867 0
M  V30 39 H 1.821487 5.250247 -1.540578 0
M  V30 40 H 1.483372 6.612493 0.388538 0
M  V30 41 H 1.163973 7.591463 -1.050334 0
M  V30 42 H -2.068290 6.445275 1.067953 0
M  V30 43 H -0.414921 5.657182 1.398479 0
M  V30 44 H -1.785924 5.470450 -1.252401 0
M  V30 45 H -1.955793 4.155516 0.012471 0
M  V30 46 H -0.934603 -5.842583 -0.215764 0
M  V30 47 H -1.931324 -2.964772 -0.471955 0
M  V30 48 H -2.805636 -4.567680 -0.583465 0
M  V30 49 H -1.629583 -3.129756 -2.787201 0
M  V30 50 H -2.480770 -4.692876 -2.818092 0
M  V30 51 H 0.168459 -4.606127 -3.417263 0
M  V30 52 H -0.607220 -6.010338 -2.481986 0
M  V30 53 H 0.586815 -3.451857 -1.392102 0
M  V30 54 H 1.243944 -5.158311 -1.072117 0
M  V30 55 H -1.973931 -6.532306 1.682002 0
M  V30 END ATOM
M  V30 BEGIN BOND
M  V30 1 2 1 2
M  V30 2 1 2 3
M  V30 3 1 3 4
M  V30 4 2 4 5
M  V30 5 1 5 6
M  V30 6 2 6 7
M  V30 7 1 7 8
M  V30 8 1 8 9
M  V30 9 2 9 10
M  V30 10 1 10 11
M  V30 11 2 11 12
M  V30 12 1 12 13
M  V30 13 1 13 14
M  V30 14 1 14 15
M  V30 15 1 15 16
M  V30 16 1 16 17
M  V30 17 1 17 18
M  V30 18 1 12 19
M  V30 19 2 19 20
M  V30 20 1 7 21
M  V30 21 2 21 22
M  V30 22 1 22 23
M  V30 23 1 23 24
M  V30 24 1 24 25
M  V30 25 1 25 26
M  V30 26 1 26 27
M  V30 27 1 27 28
M  V30 28 1 23 29
M  V30 29 1 29 30
M  V30 30 2 30 31
M  V30 31 1 31 1
M  V30 32 2 29 3
M  V30 33 1 22 4
M  V30 34 1 28 24
M  V30 35 1 20 9
M  V30 36 1 18 13
M  V30 37 1 1 32
M  V30 38 1 2 33
M  V30 39 1 5 34
M  V30 40 1 8 35
M  V30 41 1 10 36
M  V30 42 1 11 37
M  V30 43 1 14 38
M  V30 44 1 14 39
M  V30 45 1 15 40
M  V30 46 1 15 41
M  V30 47 1 17 42
M  V30 48 1 17 43
M  V30 49 1 18 44
M  V30 50 1 18 45
M  V30 51 1 24 46
M  V30 52 1 25 47
M  V30 53 1 25 48
M  V30 54 1 26 49
M  V30 55 1 26 50
M  V30 56 1 27 51
M  V30 57 1 27 52
M  V30 58 1 28 53
M  V30 59 1 28 54
M  V30 60 1 30 55
M  V30 END BOND
M  V30 END CTAB
M  END
>  <Dataset>  (322) 
ChEMBL_Kinases

>  <Ligand_Instance>  (322) 
nan

>  <PDB_ID>  (322) 
nan

>  <Standardized_SMILES>  (322) 
c1cc2c3cnc(Nc4ccc(N5CCOCC5)nn4)nc3n(C3CCCC3)c2cn1

>  <Name>  (322) 
nan

>  <Pocket>  (322) 
nan

>  <ATP_Site>  (322) 
nan

>  <Peripheral>  (322) 
nan

>  <Num_H_Atoms_ProtBoundConf>  (322) 
nan

>  <Num_Resolved_Atoms>  (322) 
nan

>  <Num_Not_Resolved_Atoms>  (322) 
nan

$$$$
CHEMBL3698735
     RDKit          3D

  0  0  0  0  0  0  0  0  0  0999 V3000
M  V30 BEGIN CTAB
M  V30 COUNTS 58 63 0 0 0
M  V30 BEGIN ATOM
M  V30 1 O 3.671185 -2.510017 3.845397 0
M  V30 2 C 4.870278 -1.792736 3.784143 0 CFG=1
M  V30 3 C 5.863579 -2.470184 2.898303 0
M  V30 4 C 6.862512 -1.460857 2.414590 0
M  V30 5 C 6.157877 -0.534264 1.436899 0
M  V30 6 N 4.813551 -0.237188 1.885076 0
M  V30 7 C 3.791457 0.186888 0.971420 0
M  V30 8 C 4.185726 0.365610 -0.361697 0
M  V30 9 C 3.200388 0.763174 -1.271547 0
M  V30 10 C 1.899472 0.961648 -0.833711 0
M  V30 11 N 0.818339 1.337696 -1.662784 0
M  V30 12 C -0.544641 1.592050 -1.383525 0
M  V30 13 N -1.213629 2.746118 -1.267713 0
M  V30 14 C -2.521442 2.815373 -0.993757 0
M  V30 15 C -3.223878 1.646477 -0.818709 0
M  V30 16 C -4.534992 1.362707 -0.532181 0
M  V30 17 C -5.685152 2.152599 -0.312877 0
M  V30 18 C -6.798833 1.392823 -0.058125 0
M  V30 19 N -6.940895 0.066121 0.008410 0
M  V30 20 C -5.813228 -0.699632 -0.206844 0
M  V30 21 C -4.683191 0.002779 -0.463819 0
M  V30 22 N -3.478891 -0.576032 -0.706424 0
M  V30 23 C -3.089324 -1.984451 -0.750562 0
M  V30 24 C -3.234413 -2.632395 0.604856 0
M  V30 25 C -3.829002 -3.982494 0.379748 0
M  V30 26 C -4.406777 -4.010899 -1.023538 0
M  V30 27 C -3.925933 -2.780639 -1.729198 0
M  V30 28 C -2.565222 0.415818 -0.928603 0
M  V30 29 N -1.266072 0.480535 -1.205312 0
M  V30 30 N 1.625173 0.764311 0.463963 0
M  V30 31 N 2.534949 0.387329 1.354488 0
M  V30 32 C 4.588863 -0.400425 3.307532 0
M  V30 33 H 3.002071 -2.089736 3.274406 0
M  V30 34 H 5.271317 -1.788325 4.823746 0
M  V30 35 H 5.307211 -2.810364 1.981994 0
M  V30 36 H 6.376869 -3.344055 3.350017 0
M  V30 37 H 7.660362 -2.000756 1.850233 0
M  V30 38 H 7.249263 -0.892196 3.255916 0
M  V30 39 H 6.697410 0.428371 1.357629 0
M  V30 40 H 6.187793 -0.969746 0.400543 0
M  V30 41 H 5.142701 0.246150 -0.791429 0
M  V30 42 H 3.416312 0.926626 -2.326752 0
M  V30 43 H 1.054191 1.456413 -2.676881 0
M  V30 44 H -3.038997 3.757218 -0.906356 0
M  V30 45 H -5.541299 3.203150 -0.372343 0
M  V30 46 H -7.683985 2.023817 0.104311 0
M  V30 47 H -6.029014 -1.745312 -0.127514 0
M  V30 48 H -2.037525 -2.084411 -1.073218 0
M  V30 49 H -2.235123 -2.792175 1.068440 0
M  V30 50 H -3.814284 -2.001702 1.302793 0
M  V30 51 H -4.613904 -4.253296 1.087321 0
M  V30 52 H -3.039621 -4.793298 0.397983 0
M  V30 53 H -5.508756 -4.085406 -1.000182 0
M  V30 54 H -4.066152 -4.906197 -1.603524 0
M  V30 55 H -4.747488 -2.114499 -2.085371 0
M  V30 56 H -3.336183 -3.044847 -2.654962 0
M  V30 57 H 5.349220 0.273638 3.803287 0
M  V30 58 H 3.594382 -0.004759 3.603279 0
M  V30 END ATOM
M  V30 BEGIN BOND
M  V30 1 1 1 2
M  V30 2 1 2 3
M  V30 3 1 3 4
M  V30 4 1 4 5
M  V30 5 1 5 6
M  V30 6 1 6 7
M  V30 7 2 7 8
M  V30 8 1 8 9
M  V30 9 2 9 10
M  V30 10 1 10 11
M  V30 11 1 11 12
M  V30 12 2 12 13
M  V30 13 1 13 14
M  V30 14 2 14 15
M  V30 15 1 15 16
M  V30 16 2 16 17
M  V30 17 1 17 18
M  V30 18 2 18 19
M  V30 19 1 19 20
M  V30 20 2 20 21
M  V30 21 1 21 22
M  V30 22 1 22 23
M  V30 23 1 23 24
M  V30 24 1 24 25
M  V30 25 1 25 26
M  V30 26 1 26 27
M  V30 27 1 22 28
M  V30 28 2 28 29
M  V30 29 1 10 30
M  V30 30 2 30 31
M  V30 31 1 6 32
M  V30 32 1 32 2
M  V30 33 1 31 7
M  V30 34 1 29 12
M  V30 35 1 28 15
M  V30 36 1 21 16
M  V30 37 1 27 23
M  V30 38 1 1 33
M  V30 39 1 2 34 CFG=1
M  V30 40 1 3 35
M  V30 41 1 3 36
M  V30 42 1 4 37
M  V30 43 1 4 38
M  V30 44 1 5 39
M  V30 45 1 5 40
M  V30 46 1 8 41
M  V30 47 1 9 42
M  V30 48 1 11 43
M  V30 49 1 14 44
M  V30 50 1 17 45
M  V30 51 1 18 46
M  V30 52 1 20 47
M  V30 53 1 23 48
M  V30 54 1 24 49
M  V30 55 1 24 50
M  V30 56 1 25 51
M  V30 57 1 25 52
M  V30 58 1 26 53
M  V30 59 1 26 54
M  V30 60 1 27 55
M  V30 61 1 27 56
M  V30 62 1 32 57
M  V30 63 1 32 58
M  V30 END BOND
M  V30 END CTAB
M  END
>  <Dataset>  (323) 
ChEMBL_Kinases

>  <Ligand_Instance>  (323) 
nan

>  <PDB_ID>  (323) 
nan

>  <Standardized_SMILES>  (323) 
O[C@H]1CCCN(c2ccc(Nc3ncc4c5ccncc5n(C5CCCC5)c4n3)nn2)C1

>  <Name>  (323) 
nan

>  <Pocket>  (323) 
nan

>  <ATP_Site>  (323) 
nan

>  <Peripheral>  (323) 
nan

>  <Num_H_Atoms_ProtBoundConf>  (323) 
nan

>  <Num_Resolved_Atoms>  (323) 
nan

>  <Num_Not_Resolved_Atoms>  (323) 
nan

$$$$
CHEMBL3698723
     RDKit          3D

  0  0  0  0  0  0  0  0  0  0999 V3000
M  V30 BEGIN CTAB
M  V30 COUNTS 57 62 0 0 0
M  V30 BEGIN ATOM
M  V30 1 O 1.735209 -4.783723 3.419833 0
M  V30 2 S 1.919819 -3.556059 2.579376 0
M  V30 3 O 0.627352 -3.099900 1.968787 0
M  V30 4 C 2.720613 -2.242236 3.454897 0
M  V30 5 C 4.132485 -2.342701 2.995589 0
M  V30 6 C 4.277108 -2.983393 1.680755 0
M  V30 7 N 4.576587 -2.042526 0.618592 0
M  V30 8 C 3.856775 -0.969832 0.054372 0
M  V30 9 C 4.259895 -0.106795 -0.970811 0
M  V30 10 C 3.394389 0.875454 -1.385219 0
M  V30 11 C 2.137619 1.069847 -0.850908 0
M  V30 12 N 1.281630 2.105369 -1.315262 0
M  V30 13 C -0.020376 2.336652 -0.799894 0
M  V30 14 N -0.588010 3.445786 -0.292659 0
M  V30 15 C -1.860846 3.411160 0.133986 0
M  V30 16 C -2.645766 2.280393 0.084100 0
M  V30 17 C -3.938701 1.947131 0.431471 0
M  V30 18 C -4.954419 2.701307 0.990654 0
M  V30 19 C -6.160641 2.052951 1.218870 0
M  V30 20 N -6.320704 0.752823 0.906373 0
M  V30 21 C -5.334886 0.020256 0.363531 0
M  V30 22 C -4.115639 0.617980 0.116622 0
M  V30 23 N -2.967270 0.154358 -0.406533 0
M  V30 24 C -2.796141 -1.194319 -0.847763 0
M  V30 25 C -2.552746 -2.180873 0.291327 0
M  V30 26 C -2.217732 -3.431484 -0.529620 0
M  V30 27 C -1.524471 -2.911842 -1.781181 0
M  V30 28 C -1.495772 -1.387673 -1.622150 0
M  V30 29 C -2.049528 1.151773 -0.438613 0
M  V30 30 N -0.769396 1.221612 -0.857635 0
M  V30 31 N 1.819640 0.207468 0.125097 0
M  V30 32 N 2.628165 -0.742506 0.542589 0
M  V30 33 C 3.157042 -3.899155 1.361039 0
M  V30 34 H 2.669996 -2.428973 4.563707 0
M  V30 35 H 2.230977 -1.269033 3.212484 0
M  V30 36 H 4.618355 -1.334300 2.933239 0
M  V30 37 H 4.689009 -2.907323 3.795056 0
M  V30 38 H 5.199281 -3.652245 1.757056 0
M  V30 39 H 5.512556 -2.105456 0.107763 0
M  V30 40 H 5.242021 -0.293913 -1.354831 0
M  V30 41 H 3.757225 1.501052 -2.166892 0
M  V30 42 H 1.632975 2.723169 -2.072226 0
M  V30 43 H -2.287137 4.315957 0.534374 0
M  V30 44 H -4.790763 3.759705 1.233554 0
M  V30 45 H -6.975104 2.644200 1.663255 0
M  V30 46 H -5.519097 -1.028221 0.131051 0
M  V30 47 H -3.601036 -1.573390 -1.475262 0
M  V30 48 H -1.629059 -1.860219 0.811861 0
M  V30 49 H -3.421506 -2.321996 0.934769 0
M  V30 50 H -3.213613 -3.862746 -0.836914 0
M  V30 51 H -1.613147 -4.156924 0.015846 0
M  V30 52 H -2.112134 -3.117979 -2.701117 0
M  V30 53 H -0.518204 -3.328905 -1.856388 0
M  V30 54 H -0.671072 -1.152126 -0.917155 0
M  V30 55 H -1.469216 -0.854284 -2.571897 0
M  V30 56 H 2.685213 -3.711698 0.372925 0
M  V30 57 H 3.434210 -4.975404 1.337220 0
M  V30 END ATOM
M  V30 BEGIN BOND
M  V30 1 2 1 2
M  V30 2 2 2 3
M  V30 3 1 2 4
M  V30 4 1 4 5
M  V30 5 1 5 6
M  V30 6 1 6 7
M  V30 7 1 7 8
M  V30 8 2 8 9
M  V30 9 1 9 10
M  V30 10 2 10 11
M  V30 11 1 11 12
M  V30 12 1 12 13
M  V30 13 2 13 14
M  V30 14 1 14 15
M  V30 15 2 15 16
M  V30 16 1 16 17
M  V30 17 2 17 18
M  V30 18 1 18 19
M  V30 19 2 19 20
M  V30 20 1 20 21
M  V30 21 2 21 22
M  V30 22 1 22 23
M  V30 23 1 23 24
M  V30 24 1 24 25
M  V30 25 1 25 26
M  V30 26 1 26 27
M  V30 27 1 27 28
M  V30 28 1 23 29
M  V30 29 2 29 30
M  V30 30 1 11 31
M  V30 31 2 31 32
M  V30 32 1 6 33
M  V30 33 1 33 2
M  V30 34 1 32 8
M  V30 35 1 30 13
M  V30 36 1 29 16
M  V30 37 1 22 17
M  V30 38 1 28 24
M  V30 39 1 4 34
M  V30 40 1 4 35
M  V30 41 1 5 36
M  V30 42 1 5 37
M  V30 43 1 6 38
M  V30 44 1 7 39
M  V30 45 1 9 40
M  V30 46 1 10 41
M  V30 47 1 12 42
M  V30 48 1 15 43
M  V30 49 1 18 44
M  V30 50 1 19 45
M  V30 51 1 21 46
M  V30 52 1 24 47
M  V30 53 1 25 48
M  V30 54 1 25 49
M  V30 55 1 26 50
M  V30 56 1 26 51
M  V30 57 1 27 52
M  V30 58 1 27 53
M  V30 59 1 28 54
M  V30 60 1 28 55
M  V30 61 1 33 56
M  V30 62 1 33 57
M  V30 END BOND
M  V30 END CTAB
M  END
>  <Dataset>  (324) 
ChEMBL_Kinases

>  <Ligand_Instance>  (324) 
nan

>  <PDB_ID>  (324) 
nan

>  <Standardized_SMILES>  (324) 
O=S1(=O)CCC(Nc2ccc(Nc3ncc4c5ccncc5n(C5CCCC5)c4n3)nn2)C1

>  <Name>  (324) 
nan

>  <Pocket>  (324) 
nan

>  <ATP_Site>  (324) 
nan

>  <Peripheral>  (324) 
nan

>  <Num_H_Atoms_ProtBoundConf>  (324) 
nan

>  <Num_Resolved_Atoms>  (324) 
nan

>  <Num_Not_Resolved_Atoms>  (324) 
nan

$$$$
CHEMBL3698733
     RDKit          3D

  0  0  0  0  0  0  0  0  0  0999 V3000
M  V30 BEGIN CTAB
M  V30 COUNTS 61 66 0 0 0
M  V30 BEGIN ATOM
M  V30 1 O 5.349439 -4.237153 3.420037 0
M  V30 2 C 4.170901 -3.499710 3.413154 0
M  V30 3 C 4.252306 -2.291321 4.313414 0
M  V30 4 C 5.331434 -1.342018 3.919945 0
M  V30 5 C 5.052429 -0.465977 2.747468 0
M  V30 6 N 3.667369 -0.060045 2.767960 0
M  V30 7 C 2.923997 0.403345 1.647266 0
M  V30 8 C 1.540087 0.600844 1.662517 0
M  V30 9 C 0.894791 1.049489 0.519256 0
M  V30 10 C 1.572844 1.313493 -0.653322 0
M  V30 11 N 0.861131 1.744656 -1.810143 0
M  V30 12 C -0.548974 1.864223 -1.691056 0
M  V30 13 N -1.435999 2.900789 -1.693072 0
M  V30 14 C -2.748657 2.682828 -1.547012 0
M  V30 15 C -3.228033 1.398154 -1.391087 0
M  V30 16 C -4.506494 0.958633 -1.225151 0
M  V30 17 C -5.724061 1.594921 -1.161268 0
M  V30 18 C -6.857319 0.835697 -0.982201 0
M  V30 19 N -6.751509 -0.520391 -0.872677 0
M  V30 20 C -5.546467 -1.121094 -0.938507 0
M  V30 21 C -4.394936 -0.391897 -1.116561 0
M  V30 22 N -3.094099 -0.804925 -1.208738 0
M  V30 23 C -2.463746 -2.050221 -1.149044 0
M  V30 24 C -3.145162 -3.310277 -1.380102 0
M  V30 25 C -3.574081 -3.266114 -2.794973 0
M  V30 26 C -2.426205 -2.464745 -3.429941 0
M  V30 27 C -1.467512 -2.227645 -2.311864 0
M  V30 28 C -2.355626 0.334493 -1.384511 0
M  V30 29 N -1.048172 0.626494 -1.536615 0
M  V30 30 N 2.901840 1.105556 -0.606949 0
M  V30 31 N 3.523763 0.678175 0.479346 0
M  V30 32 C 3.094004 -0.184605 4.097491 0
M  V30 33 C 2.917913 -1.642975 4.460606 0
M  V30 34 H 5.729231 -4.168112 4.351253 0
M  V30 35 H 3.335689 -4.158120 3.709968 0
M  V30 36 H 3.979387 -3.178992 2.360130 0
M  V30 37 H 4.526245 -2.663629 5.348979 0
M  V30 38 H 5.548149 -0.684834 4.799902 0
M  V30 39 H 6.304324 -1.903688 3.788131 0
M  V30 40 H 5.654875 0.480966 2.825475 0
M  V30 41 H 5.364736 -0.908591 1.777598 0
M  V30 42 H 0.971114 0.401701 2.553708 0
M  V30 43 H -0.175113 1.181038 0.599868 0
M  V30 44 H 1.407408 1.946082 -2.669592 0
M  V30 45 H -3.408133 3.531275 -1.555270 0
M  V30 46 H -5.832762 2.660558 -1.246268 0
M  V30 47 H -7.840025 1.249402 -0.921798 0
M  V30 48 H -5.502204 -2.191837 -0.848297 0
M  V30 49 H -1.819905 -2.187560 -0.213766 0
M  V30 50 H -2.308049 -4.103294 -1.392730 0
M  V30 51 H -3.793637 -3.758346 -0.629643 0
M  V30 52 H -3.619707 -4.286135 -3.244012 0
M  V30 53 H -4.480058 -2.729671 -3.046770 0
M  V30 54 H -1.959746 -3.110707 -4.203207 0
M  V30 55 H -2.781296 -1.533729 -3.909074 0
M  V30 56 H -0.976410 -3.225559 -2.111265 0
M  V30 57 H -0.705094 -1.509572 -2.405462 0
M  V30 58 H 3.794514 0.331886 4.797756 0
M  V30 59 H 2.155119 0.376838 4.153385 0
M  V30 60 H 2.188866 -2.054679 3.727634 0
M  V30 61 H 2.477471 -1.673984 5.475132 0
M  V30 END ATOM
M  V30 BEGIN BOND
M  V30 1 1 1 2
M  V30 2 1 2 3
M  V30 3 1 3 4
M  V30 4 1 4 5
M  V30 5 1 5 6
M  V30 6 1 6 7
M  V30 7 2 7 8
M  V30 8 1 8 9
M  V30 9 2 9 10
M  V30 10 1 10 11
M  V30 11 1 11 12
M  V30 12 2 12 13
M  V30 13 1 13 14
M  V30 14 2 14 15
M  V30 15 1 15 16
M  V30 16 2 16 17
M  V30 17 1 17 18
M  V30 18 2 18 19
M  V30 19 1 19 20
M  V30 20 2 20 21
M  V30 21 1 21 22
M  V30 22 1 22 23
M  V30 23 1 23 24
M  V30 24 1 24 25
M  V30 25 1 25 26
M  V30 26 1 26 27
M  V30 27 1 22 28
M  V30 28 2 28 29
M  V30 29 1 10 30
M  V30 30 2 30 31
M  V30 31 1 6 32
M  V30 32 1 32 33
M  V30 33 1 33 3
M  V30 34 1 31 7
M  V30 35 1 29 12
M  V30 36 1 28 15
M  V30 37 1 21 16
M  V30 38 1 27 23
M  V30 39 1 1 34
M  V30 40 1 2 35
M  V30 41 1 2 36
M  V30 42 1 3 37
M  V30 43 1 4 38
M  V30 44 1 4 39
M  V30 45 1 5 40
M  V30 46 1 5 41
M  V30 47 1 8 42
M  V30 48 1 9 43
M  V30 49 1 11 44
M  V30 50 1 14 45
M  V30 51 1 17 46
M  V30 52 1 18 47
M  V30 53 1 20 48
M  V30 54 1 23 49
M  V30 55 1 24 50
M  V30 56 1 24 51
M  V30 57 1 25 52
M  V30 58 1 25 53
M  V30 59 1 26 54
M  V30 60 1 26 55
M  V30 61 1 27 56
M  V30 62 1 27 57
M  V30 63 1 32 58
M  V30 64 1 32 59
M  V30 65 1 33 60
M  V30 66 1 33 61
M  V30 END BOND
M  V30 END CTAB
M  END
>  <Dataset>  (325) 
ChEMBL_Kinases

>  <Ligand_Instance>  (325) 
nan

>  <PDB_ID>  (325) 
nan

>  <Standardized_SMILES>  (325) 
OCC1CCN(c2ccc(Nc3ncc4c5ccncc5n(C5CCCC5)c4n3)nn2)CC1

>  <Name>  (325) 
nan

>  <Pocket>  (325) 
nan

>  <ATP_Site>  (325) 
nan

>  <Peripheral>  (325) 
nan

>  <Num_H_Atoms_ProtBoundConf>  (325) 
nan

>  <Num_Resolved_Atoms>  (325) 
nan

>  <Num_Not_Resolved_Atoms>  (325) 
nan

$$$$
CHEMBL3698732
     RDKit          3D

  0  0  0  0  0  0  0  0  0  0999 V3000
M  V30 BEGIN CTAB
M  V30 COUNTS 58 63 0 0 0
M  V30 BEGIN ATOM
M  V30 1 O 0.374242 -5.223658 3.461649 0
M  V30 2 C 1.467463 -4.456275 3.088292 0
M  V30 3 C 2.069806 -3.665411 4.226005 0
M  V30 4 C 3.197967 -2.838351 3.656840 0
M  V30 5 N 3.386000 -3.121099 2.248749 0
M  V30 6 C 3.212802 -2.160012 1.225122 0
M  V30 7 C 2.407466 -1.075200 1.475460 0
M  V30 8 C 2.189451 -0.088537 0.505882 0
M  V30 9 C 2.834380 -0.277172 -0.712525 0
M  V30 10 N 2.623534 0.676002 -1.775234 0
M  V30 11 C 1.695804 1.712810 -1.424501 0
M  V30 12 N 1.769161 3.030114 -1.117645 0
M  V30 13 C 0.612296 3.691535 -0.819937 0
M  V30 14 C -0.591677 3.059799 -0.825395 0
M  V30 15 C -1.897442 3.466491 -0.572813 0
M  V30 16 C -2.403259 4.696943 -0.224498 0
M  V30 17 C -3.772894 4.774538 -0.047135 0
M  V30 18 N -4.546359 3.686739 -0.212470 0
M  V30 19 C -4.043861 2.478181 -0.555315 0
M  V30 20 C -2.695250 2.334819 -0.746343 0
M  V30 21 N -1.966939 1.262310 -1.088180 0
M  V30 22 C -2.318517 -0.078303 -1.355032 0
M  V30 23 C -2.869922 -0.868062 -0.183065 0
M  V30 24 C -3.019253 -2.211010 -0.917180 0
M  V30 25 C -3.839547 -1.728622 -2.127193 0
M  V30 26 C -3.292330 -0.345766 -2.452019 0
M  V30 27 C -0.679942 1.737170 -1.130380 0
M  V30 28 N 0.484878 1.126462 -1.417782 0
M  V30 29 N 3.630777 -1.366439 -0.933041 0
M  V30 30 N 3.815907 -2.282954 0.006211 0
M  V30 31 C 3.741754 -4.532573 2.101879 0
M  V30 32 C 2.570496 -5.386020 2.570782 0
M  V30 33 H -0.307951 -4.669105 3.957474 0
M  V30 34 H 1.115874 -3.768783 2.304924 0
M  V30 35 H 1.266455 -3.032190 4.685595 0
M  V30 36 H 2.409359 -4.407024 4.993963 0
M  V30 37 H 4.149445 -3.130832 4.182133 0
M  V30 38 H 3.005890 -1.763147 3.872705 0
M  V30 39 H 1.882093 -0.887674 2.425583 0
M  V30 40 H 1.554064 0.751349 0.722047 0
M  V30 41 H 3.134604 0.550752 -2.669458 0
M  V30 42 H 0.732492 4.734984 -0.586315 0
M  V30 43 H -1.764157 5.558935 -0.094013 0
M  V30 44 H -4.192839 5.728092 0.223363 0
M  V30 45 H -4.695654 1.622124 -0.680310 0
M  V30 46 H -1.402846 -0.678814 -1.648634 0
M  V30 47 H -3.886999 -0.579650 0.118060 0
M  V30 48 H -2.146323 -0.947353 0.650816 0
M  V30 49 H -2.004716 -2.531397 -1.263996 0
M  V30 50 H -3.534938 -2.967623 -0.327947 0
M  V30 51 H -4.879101 -1.623207 -1.753916 0
M  V30 52 H -3.737053 -2.422917 -2.984666 0
M  V30 53 H -4.051543 0.405621 -2.639019 0
M  V30 54 H -2.747165 -0.460055 -3.435999 0
M  V30 55 H 4.648632 -4.754189 2.681732 0
M  V30 56 H 3.957650 -4.742930 1.027026 0
M  V30 57 H 2.190468 -6.043267 1.780778 0
M  V30 58 H 2.901875 -6.008003 3.416151 0
M  V30 END ATOM
M  V30 BEGIN BOND
M  V30 1 1 1 2
M  V30 2 1 2 3
M  V30 3 1 3 4
M  V30 4 1 4 5
M  V30 5 1 5 6
M  V30 6 2 6 7
M  V30 7 1 7 8
M  V30 8 2 8 9
M  V30 9 1 9 10
M  V30 10 1 10 11
M  V30 11 2 11 12
M  V30 12 1 12 13
M  V30 13 2 13 14
M  V30 14 1 14 15
M  V30 15 2 15 16
M  V30 16 1 16 17
M  V30 17 2 17 18
M  V30 18 1 18 19
M  V30 19 2 19 20
M  V30 20 1 20 21
M  V30 21 1 21 22
M  V30 22 1 22 23
M  V30 23 1 23 24
M  V30 24 1 24 25
M  V30 25 1 25 26
M  V30 26 1 21 27
M  V30 27 2 27 28
M  V30 28 1 9 29
M  V30 29 2 29 30
M  V30 30 1 5 31
M  V30 31 1 31 32
M  V30 32 1 32 2
M  V30 33 1 30 6
M  V30 34 1 28 11
M  V30 35 1 27 14
M  V30 36 1 20 15
M  V30 37 1 26 22
M  V30 38 1 1 33
M  V30 39 1 2 34
M  V30 40 1 3 35
M  V30 41 1 3 36
M  V30 42 1 4 37
M  V30 43 1 4 38
M  V30 44 1 7 39
M  V30 45 1 8 40
M  V30 46 1 10 41
M  V30 47 1 13 42
M  V30 48 1 16 43
M  V30 49 1 17 44
M  V30 50 1 19 45
M  V30 51 1 22 46
M  V30 52 1 23 47
M  V30 53 1 23 48
M  V30 54 1 24 49
M  V30 55 1 24 50
M  V30 56 1 25 51
M  V30 57 1 25 52
M  V30 58 1 26 53
M  V30 59 1 26 54
M  V30 60 1 31 55
M  V30 61 1 31 56
M  V30 62 1 32 57
M  V30 63 1 32 58
M  V30 END BOND
M  V30 END CTAB
M  END
>  <Dataset>  (326) 
ChEMBL_Kinases

>  <Ligand_Instance>  (326) 
nan

>  <PDB_ID>  (326) 
nan

>  <Standardized_SMILES>  (326) 
OC1CCN(c2ccc(Nc3ncc4c5ccncc5n(C5CCCC5)c4n3)nn2)CC1

>  <Name>  (326) 
nan

>  <Pocket>  (326) 
nan

>  <ATP_Site>  (326) 
nan

>  <Peripheral>  (326) 
nan

>  <Num_H_Atoms_ProtBoundConf>  (326) 
nan

>  <Num_Resolved_Atoms>  (326) 
nan

>  <Num_Not_Resolved_Atoms>  (326) 
nan

$$$$
CHEMBL3698731
     RDKit          3D

  0  0  0  0  0  0  0  0  0  0999 V3000
M  V30 BEGIN CTAB
M  V30 COUNTS 62 67 0 0 0
M  V30 BEGIN ATOM
M  V30 1 N 5.146902 0.426797 7.096161 0
M  V30 2 C 4.646646 -0.809091 6.531437 0
M  V30 3 C 4.037349 -0.624914 5.151847 0
M  V30 4 C 5.101837 -0.084604 4.256842 0
M  V30 5 C 4.924596 -0.305318 2.800814 0
M  V30 6 N 3.591006 -0.851248 2.578946 0
M  V30 7 C 2.579641 -0.224738 1.806118 0
M  V30 8 C 1.281584 -0.673626 1.596093 0
M  V30 9 C 0.398309 0.041781 0.813164 0
M  V30 10 C 0.824335 1.216415 0.237831 0
M  V30 11 N -0.101679 1.940355 -0.568948 0
M  V30 12 C -1.410598 1.409115 -0.723717 0
M  V30 13 N -2.280069 1.902957 0.205915 0
M  V30 14 C -3.567465 1.454044 0.146536 0
M  V30 15 C -4.005800 0.545394 -0.793012 0
M  V30 16 C -5.219113 -0.058729 -1.068229 0
M  V30 17 C -6.451138 0.082551 -0.430161 0
M  V30 18 C -7.483800 -0.676781 -0.962165 0
M  V30 19 N -7.285043 -1.485584 -2.020531 0
M  V30 20 C -6.090900 -1.609879 -2.623673 0
M  V30 21 C -5.009434 -0.891075 -2.159255 0
M  V30 22 N -3.707165 -0.790497 -2.529920 0
M  V30 23 C -3.184461 -1.549418 -3.646091 0
M  V30 24 C -2.575521 -2.864507 -3.181582 0
M  V30 25 C -1.902719 -3.326954 -4.463038 0
M  V30 26 C -1.534256 -2.054747 -5.209439 0
M  V30 27 C -2.019587 -0.902357 -4.319254 0
M  V30 28 C -3.090049 0.076704 -1.709662 0
M  V30 29 N -1.819432 0.511610 -1.661296 0
M  V30 30 N 2.083671 1.637457 0.450812 0
M  V30 31 N 2.914329 0.930709 1.208449 0
M  V30 32 C 3.413335 -2.138266 3.252397 0
M  V30 33 C 3.522220 -1.979554 4.750209 0
M  V30 34 H 4.391546 0.911945 7.613525 0
M  V30 35 H 5.678963 0.995824 6.432777 0
M  V30 36 H 5.463971 -1.568185 6.388716 0
M  V30 37 H 3.871130 -1.261817 7.173039 0
M  V30 38 H 3.181203 0.068387 5.262844 0
M  V30 39 H 6.129339 -0.445093 4.548069 0
M  V30 40 H 5.151428 1.021556 4.447021 0
M  V30 41 H 5.623456 -1.106308 2.455592 0
M  V30 42 H 5.090210 0.641474 2.232545 0
M  V30 43 H 1.028293 -1.601035 2.081431 0
M  V30 44 H -0.591841 -0.388744 0.708444 0
M  V30 45 H 0.071839 2.822240 -1.063169 0
M  V30 46 H -4.324473 1.790168 0.841468 0
M  V30 47 H -6.531258 0.751711 0.412950 0
M  V30 48 H -8.450773 -0.585863 -0.485627 0
M  V30 49 H -5.988363 -2.276614 -3.473599 0
M  V30 50 H -3.981228 -1.725891 -4.422611 0
M  V30 51 H -3.315226 -3.574083 -2.793916 0
M  V30 52 H -1.803998 -2.587155 -2.428945 0
M  V30 53 H -2.657216 -3.927530 -5.046614 0
M  V30 54 H -0.998535 -3.950395 -4.257922 0
M  V30 55 H -2.110185 -2.033412 -6.157704 0
M  V30 56 H -0.427962 -1.987934 -5.360365 0
M  V30 57 H -2.258826 -0.010098 -4.897108 0
M  V30 58 H -1.220428 -0.760637 -3.578378 0
M  V30 59 H 4.291329 -2.763118 2.934499 0
M  V30 60 H 2.527554 -2.689623 2.914227 0
M  V30 61 H 4.133964 -2.774393 5.224916 0
M  V30 62 H 2.497374 -2.081621 5.164005 0
M  V30 END ATOM
M  V30 BEGIN BOND
M  V30 1 1 1 2
M  V30 2 1 2 3
M  V30 3 1 3 4
M  V30 4 1 4 5
M  V30 5 1 5 6
M  V30 6 1 6 7
M  V30 7 2 7 8
M  V30 8 1 8 9
M  V30 9 2 9 10
M  V30 10 1 10 11
M  V30 11 1 11 12
M  V30 12 2 12 13
M  V30 13 1 13 14
M  V30 14 2 14 15
M  V30 15 1 15 16
M  V30 16 2 16 17
M  V30 17 1 17 18
M  V30 18 2 18 19
M  V30 19 1 19 20
M  V30 20 2 20 21
M  V30 21 1 21 22
M  V30 22 1 22 23
M  V30 23 1 23 24
M  V30 24 1 24 25
M  V30 25 1 25 26
M  V30 26 1 26 27
M  V30 27 1 22 28
M  V30 28 2 28 29
M  V30 29 1 10 30
M  V30 30 2 30 31
M  V30 31 1 6 32
M  V30 32 1 32 33
M  V30 33 1 33 3
M  V30 34 1 31 7
M  V30 35 1 29 12
M  V30 36 1 28 15
M  V30 37 1 21 16
M  V30 38 1 27 23
M  V30 39 1 1 34
M  V30 40 1 1 35
M  V30 41 1 2 36
M  V30 42 1 2 37
M  V30 43 1 3 38
M  V30 44 1 4 39
M  V30 45 1 4 40
M  V30 46 1 5 41
M  V30 47 1 5 42
M  V30 48 1 8 43
M  V30 49 1 9 44
M  V30 50 1 11 45
M  V30 51 1 14 46
M  V30 52 1 17 47
M  V30 53 1 18 48
M  V30 54 1 20 49
M  V30 55 1 23 50
M  V30 56 1 24 51
M  V30 57 1 24 52
M  V30 58 1 25 53
M  V30 59 1 25 54
M  V30 60 1 26 55
M  V30 61 1 26 56
M  V30 62 1 27 57
M  V30 63 1 27 58
M  V30 64 1 32 59
M  V30 65 1 32 60
M  V30 66 1 33 61
M  V30 67 1 33 62
M  V30 END BOND
M  V30 END CTAB
M  END
>  <Dataset>  (327) 
ChEMBL_Kinases

>  <Ligand_Instance>  (327) 
nan

>  <PDB_ID>  (327) 
nan

>  <Standardized_SMILES>  (327) 
NCC1CCN(c2ccc(Nc3ncc4c5ccncc5n(C5CCCC5)c4n3)nn2)CC1

>  <Name>  (327) 
nan

>  <Pocket>  (327) 
nan

>  <ATP_Site>  (327) 
nan

>  <Peripheral>  (327) 
nan

>  <Num_H_Atoms_ProtBoundConf>  (327) 
nan

>  <Num_Resolved_Atoms>  (327) 
nan

>  <Num_Not_Resolved_Atoms>  (327) 
nan

$$$$
CHEMBL3698728
     RDKit          3D

  0  0  0  0  0  0  0  0  0  0999 V3000
M  V30 BEGIN CTAB
M  V30 COUNTS 59 64 0 0 0
M  V30 BEGIN ATOM
M  V30 1 C 2.444017 -6.156839 3.777135 0
M  V30 2 C 3.055315 -4.966390 3.453779 0
M  V30 3 C 2.671980 -4.230684 2.358549 0
M  V30 4 C 3.114314 -3.049617 1.841174 0
M  V30 5 C 4.091928 -2.156932 2.214071 0
M  V30 6 N 4.316198 -1.022511 1.487172 0
M  V30 7 C 3.571324 -0.784176 0.399453 0
M  V30 8 N 3.568808 0.308795 -0.517464 0
M  V30 9 C 2.501185 1.249125 -0.261560 0
M  V30 10 C 1.595522 1.043499 0.768363 0
M  V30 11 C 0.604148 1.985803 0.941354 0
M  V30 12 C 0.436729 3.116443 0.176198 0
M  V30 13 N -0.592347 4.075838 0.350670 0
M  V30 14 C -1.733167 4.044736 1.191987 0
M  V30 15 C -2.887401 3.227374 0.802899 0
M  V30 16 C -3.518887 3.629070 -0.521637 0
M  V30 17 C -4.618022 2.546938 -0.534309 0
M  V30 18 N -3.947242 1.352937 -0.074366 0
M  V30 19 C -2.683712 1.776015 0.544461 0
M  V30 20 N 1.354078 3.239965 -0.796874 0
M  V30 21 N 2.328025 2.376981 -1.018191 0
M  V30 22 N 2.637254 -1.672178 0.073010 0
M  V30 23 C 2.348262 -2.808639 0.726610 0
M  V30 24 N 1.420503 -3.793050 0.500490 0
M  V30 25 C 0.457397 -3.890604 -0.539422 0
M  V30 26 C -0.979258 -4.019623 -0.115001 0
M  V30 27 C -1.694382 -3.539472 -1.374970 0
M  V30 28 C -0.834358 -2.541823 -2.061189 0
M  V30 29 C 0.487115 -2.558653 -1.320000 0
M  V30 30 C 1.642373 -4.647478 1.512457 0
M  V30 31 C 1.073973 -5.854319 1.900469 0
M  V30 32 N 1.458394 -6.567633 2.977319 0
M  V30 33 H 2.696433 -6.780904 4.620439 0
M  V30 34 H 3.847994 -4.639044 4.096803 0
M  V30 35 H 4.705022 -2.312809 3.073278 0
M  V30 36 H 4.185050 0.547226 -1.324902 0
M  V30 37 H 1.662051 0.178415 1.411968 0
M  V30 38 H -0.075437 1.794690 1.751507 0
M  V30 39 H -0.512733 4.959436 -0.237503 0
M  V30 40 H -1.399058 3.645582 2.203381 0
M  V30 41 H -2.096433 5.067140 1.444873 0
M  V30 42 H -3.678539 3.357306 1.578302 0
M  V30 43 H -2.834055 3.350750 -1.325653 0
M  V30 44 H -3.924050 4.637450 -0.542636 0
M  V30 45 H -5.118165 2.464941 -1.497225 0
M  V30 46 H -5.307777 2.842389 0.308400 0
M  V30 47 H -4.461595 0.816875 0.650954 0
M  V30 48 H -1.934318 1.617734 -0.277130 0
M  V30 49 H -2.420291 1.168207 1.406736 0
M  V30 50 H 0.665162 -4.694382 -1.276097 0
M  V30 51 H -1.248331 -3.346413 0.720879 0
M  V30 52 H -1.326550 -5.065150 0.012052 0
M  V30 53 H -1.777568 -4.413218 -2.087704 0
M  V30 54 H -2.716952 -3.156559 -1.158170 0
M  V30 55 H -1.349165 -1.551549 -2.003442 0
M  V30 56 H -0.652391 -2.731199 -3.126040 0
M  V30 57 H 1.366784 -2.521431 -1.981487 0
M  V30 58 H 0.407975 -1.710207 -0.602221 0
M  V30 59 H 0.275738 -6.253112 1.307551 0
M  V30 END ATOM
M  V30 BEGIN BOND
M  V30 1 2 1 2
M  V30 2 1 2 3
M  V30 3 1 3 4
M  V30 4 2 4 5
M  V30 5 1 5 6
M  V30 6 2 6 7
M  V30 7 1 7 8
M  V30 8 1 8 9
M  V30 9 2 9 10
M  V30 10 1 10 11
M  V30 11 2 11 12
M  V30 12 1 12 13
M  V30 13 1 13 14
M  V30 14 1 14 15
M  V30 15 1 15 16
M  V30 16 1 16 17
M  V30 17 1 17 18
M  V30 18 1 18 19
M  V30 19 1 12 20
M  V30 20 2 20 21
M  V30 21 1 7 22
M  V30 22 2 22 23
M  V30 23 1 23 24
M  V30 24 1 24 25
M  V30 25 1 25 26
M  V30 26 1 26 27
M  V30 27 1 27 28
M  V30 28 1 28 29
M  V30 29 1 24 30
M  V30 30 1 30 31
M  V30 31 2 31 32
M  V30 32 1 32 1
M  V30 33 2 30 3
M  V30 34 1 23 4
M  V30 35 1 29 25
M  V30 36 1 21 9
M  V30 37 1 19 15
M  V30 38 1 1 33
M  V30 39 1 2 34
M  V30 40 1 5 35
M  V30 41 1 8 36
M  V30 42 1 10 37
M  V30 43 1 11 38
M  V30 44 1 13 39
M  V30 45 1 14 40
M  V30 46 1 14 41
M  V30 47 1 15 42
M  V30 48 1 16 43
M  V30 49 1 16 44
M  V30 50 1 17 45
M  V30 51 1 17 46
M  V30 52 1 18 47
M  V30 53 1 19 48
M  V30 54 1 19 49
M  V30 55 1 25 50
M  V30 56 1 26 51
M  V30 57 1 26 52
M  V30 58 1 27 53
M  V30 59 1 27 54
M  V30 60 1 28 55
M  V30 61 1 28 56
M  V30 62 1 29 57
M  V30 63 1 29 58
M  V30 64 1 31 59
M  V30 END BOND
M  V30 END CTAB
M  END
>  <Dataset>  (328) 
ChEMBL_Kinases

>  <Ligand_Instance>  (328) 
nan

>  <PDB_ID>  (328) 
nan

>  <Standardized_SMILES>  (328) 
c1cc2c3cnc(Nc4ccc(NCC5CCNC5)nn4)nc3n(C3CCCC3)c2cn1

>  <Name>  (328) 
nan

>  <Pocket>  (328) 
nan

>  <ATP_Site>  (328) 
nan

>  <Peripheral>  (328) 
nan

>  <Num_H_Atoms_ProtBoundConf>  (328) 
nan

>  <Num_Resolved_Atoms>  (328) 
nan

>  <Num_Not_Resolved_Atoms>  (328) 
nan

$$$$
CHEMBL2204108
     RDKit          3D

  0  0  0  0  0  0  0  0  0  0999 V3000
M  V30 BEGIN CTAB
M  V30 COUNTS 64 68 0 0 0
M  V30 BEGIN ATOM
M  V30 1 C 1.664924 1.924065 4.116934 0
M  V30 2 O 1.929786 0.870082 3.211508 0
M  V30 3 C 1.065105 -0.173428 3.029743 0
M  V30 4 O 0.371834 0.423459 3.886268 0
M  V30 5 C 0.792172 -1.406185 2.345207 0
M  V30 6 C 1.653480 -1.905569 1.403670 0
M  V30 7 C 2.845732 -1.203742 0.872317 0
M  V30 8 C 2.422425 -0.303312 -0.225311 0
M  V30 9 C 2.503749 -0.904635 -1.494138 0
M  V30 10 C 2.168260 -0.284140 -2.678104 0
M  V30 11 C 1.716150 1.016366 -2.672095 0
M  V30 12 S 1.282978 1.842906 -4.133337 0
M  V30 13 O 2.178357 1.355814 -5.251108 0
M  V30 14 O 1.578951 3.328249 -3.999864 0
M  V30 15 N -0.344152 1.639129 -4.597931 0
M  V30 16 C -0.737010 0.302035 -4.874106 0
M  V30 17 C -1.528048 -0.354659 -3.779347 0
M  V30 18 N -2.705977 0.486600 -3.572432 0
M  V30 19 C -2.338876 1.809577 -3.136074 0
M  V30 20 C -1.287187 2.476174 -3.950459 0
M  V30 21 C 1.620611 1.645461 -1.452797 0
M  V30 22 C 1.967091 0.984702 -0.300303 0
M  V30 23 C 1.271491 -3.146488 0.916985 0
M  V30 24 O 1.914414 -3.770736 0.063485 0
M  V30 25 C 0.132567 -3.790778 1.351125 0
M  V30 26 C -0.253918 -5.026090 0.868199 0
M  V30 27 C -1.385128 -5.700756 1.275808 0
M  V30 28 C -2.179390 -5.097854 2.228635 0
M  V30 29 Cl -3.637920 -5.880583 2.808271 0
M  V30 30 C -1.832545 -3.853774 2.745878 0
M  V30 31 C -0.676349 -3.206861 2.303031 0
M  V30 32 N -0.323358 -2.003781 2.790066 0
M  V30 33 C -1.194258 -1.456844 3.771766 0
M  V30 34 C -2.287680 -0.619325 3.645074 0
M  V30 35 C -2.959430 -0.237496 4.778943 0
M  V30 36 C -2.573328 -0.665420 6.030002 0
M  V30 37 C -1.472674 -1.512081 6.190345 0
M  V30 38 C -0.802610 -1.888744 5.020920 0
M  V30 39 H 0.790175 2.531707 3.864911 0
M  V30 40 H 2.597055 2.562841 4.078970 0
M  V30 41 H 1.619590 1.583843 5.182884 0
M  V30 42 H 3.600597 -1.931211 0.508146 0
M  V30 43 H 3.374614 -0.641070 1.679798 0
M  V30 44 H 2.846559 -1.923608 -1.679891 0
M  V30 45 H 2.228000 -0.738758 -3.651389 0
M  V30 46 H 0.154185 -0.273140 -5.173646 0
M  V30 47 H -1.414982 0.311764 -5.771075 0
M  V30 48 H -1.919047 -1.301176 -4.205569 0
M  V30 49 H -0.947168 -0.511729 -2.858608 0
M  V30 50 H -3.190213 0.544776 -4.500715 0
M  V30 51 H -2.148733 1.823069 -2.029876 0
M  V30 52 H -3.276090 2.432694 -3.235580 0
M  V30 53 H -0.725272 3.165027 -3.259934 0
M  V30 54 H -1.737522 3.186019 -4.703640 0
M  V30 55 H 1.283131 2.649720 -1.334082 0
M  V30 56 H 1.899806 1.469926 0.655426 0
M  V30 57 H 0.348935 -5.534445 0.113359 0
M  V30 58 H -1.632289 -6.670687 0.855147 0
M  V30 59 H -2.475982 -3.407788 3.491240 0
M  V30 60 H -2.475509 -0.364820 2.613208 0
M  V30 61 H -3.805228 0.420748 4.588669 0
M  V30 62 H -3.158634 -0.319608 6.894708 0
M  V30 63 H -1.222891 -1.810387 7.189019 0
M  V30 64 H 0.037139 -2.550426 5.285464 0
M  V30 END ATOM
M  V30 BEGIN BOND
M  V30 1 1 1 2
M  V30 2 1 2 3
M  V30 3 2 3 4
M  V30 4 1 3 5
M  V30 5 2 5 6
M  V30 6 1 6 7
M  V30 7 1 7 8
M  V30 8 2 8 9
M  V30 9 1 9 10
M  V30 10 2 10 11
M  V30 11 1 11 12
M  V30 12 2 12 13
M  V30 13 2 12 14
M  V30 14 1 12 15
M  V30 15 1 15 16
M  V30 16 1 16 17
M  V30 17 1 17 18
M  V30 18 1 18 19
M  V30 19 1 19 20
M  V30 20 1 11 21
M  V30 21 2 21 22
M  V30 22 1 6 23
M  V30 23 2 23 24
M  V30 24 1 23 25
M  V30 25 2 25 26
M  V30 26 1 26 27
M  V30 27 2 27 28
M  V30 28 1 28 29
M  V30 29 1 28 30
M  V30 30 2 30 31
M  V30 31 1 31 32
M  V30 32 1 32 33
M  V30 33 2 33 34
M  V30 34 1 34 35
M  V30 35 2 35 36
M  V30 36 1 36 37
M  V30 37 2 37 38
M  V30 38 1 32 5
M  V30 39 1 38 33
M  V30 40 1 22 8
M  V30 41 1 31 25
M  V30 42 1 20 15
M  V30 43 1 1 39
M  V30 44 1 1 40
M  V30 45 1 1 41
M  V30 46 1 7 42
M  V30 47 1 7 43
M  V30 48 1 9 44
M  V30 49 1 10 45
M  V30 50 1 16 46
M  V30 51 1 16 47
M  V30 52 1 17 48
M  V30 53 1 17 49
M  V30 54 1 18 50
M  V30 55 1 19 51
M  V30 56 1 19 52
M  V30 57 1 20 53
M  V30 58 1 20 54
M  V30 59 1 21 55
M  V30 60 1 22 56
M  V30 61 1 26 57
M  V30 62 1 27 58
M  V30 63 1 30 59
M  V30 64 1 34 60
M  V30 65 1 35 61
M  V30 66 1 36 62
M  V30 67 1 37 63
M  V30 68 1 38 64
M  V30 END BOND
M  V30 END CTAB
M  END
>  <Dataset>  (329) 
ChEMBL_Kinases

>  <Ligand_Instance>  (329) 
nan

>  <PDB_ID>  (329) 
nan

>  <Standardized_SMILES>  (329) 
COC(=O)c1c(Cc2ccc(S(=O)(=O)N3CCNCC3)cc2)c(=O)c2ccc(Cl)cc2n1-c1ccccc1

>  <Name>  (329) 
nan

>  <Pocket>  (329) 
nan

>  <ATP_Site>  (329) 
nan

>  <Peripheral>  (329) 
nan

>  <Num_H_Atoms_ProtBoundConf>  (329) 
nan

>  <Num_Resolved_Atoms>  (329) 
nan

>  <Num_Not_Resolved_Atoms>  (329) 
nan

$$$$
CHEMBL3698727
     RDKit          3D

  0  0  0  0  0  0  0  0  0  0999 V3000
M  V30 BEGIN CTAB
M  V30 COUNTS 56 61 0 0 0
M  V30 BEGIN ATOM
M  V30 1 C -2.601436 -5.063289 4.389646 0
M  V30 2 C -1.576382 -4.117571 4.295806 0
M  V30 3 C -1.006217 -3.891160 3.076093 0
M  V30 4 C 0.009258 -3.019990 2.732026 0
M  V30 5 C 0.821332 -2.091384 3.349346 0
M  V30 6 N 1.755318 -1.375739 2.693051 0
M  V30 7 C 1.933506 -1.547934 1.371740 0
M  V30 8 N 2.927302 -0.772708 0.710677 0
M  V30 9 C 2.495623 0.457536 0.153201 0
M  V30 10 C 1.177828 0.847092 0.262359 0
M  V30 11 C 0.718223 2.032678 -0.266491 0
M  V30 12 C 1.582123 2.873727 -0.929681 0
M  V30 13 N 1.468484 4.125359 -1.569990 0
M  V30 14 C 1.638555 5.515823 -1.352808 0
M  V30 15 C 0.778923 6.177201 -0.350123 0
M  V30 16 C 0.842250 5.678506 1.059237 0
M  V30 17 N -0.568999 5.992856 1.181465 0
M  V30 18 C -0.664363 5.773472 -0.258812 0
M  V30 19 N 2.877030 2.467264 -1.023723 0
M  V30 20 N 3.286342 1.323368 -0.505541 0
M  V30 21 N 1.162176 -2.443060 0.734091 0
M  V30 22 C 0.217121 -3.172362 1.377317 0
M  V30 23 N -0.632031 -4.110336 0.850082 0
M  V30 24 C -0.724958 -4.546316 -0.498989 0
M  V30 25 C -0.797396 -5.987802 -0.778859 0
M  V30 26 C -2.017949 -6.123667 -1.673951 0
M  V30 27 C -1.967507 -4.807769 -2.461257 0
M  V30 28 C -1.817072 -3.834045 -1.288492 0
M  V30 29 C -1.350179 -4.519747 1.895135 0
M  V30 30 C -2.382688 -5.449986 2.077138 0
M  V30 31 N -2.946254 -5.682524 3.248144 0
M  V30 32 H -3.057998 -5.249068 5.349245 0
M  V30 33 H -1.255353 -3.585634 5.181895 0
M  V30 34 H 0.680847 -1.945728 4.428837 0
M  V30 35 H 3.946562 -0.987274 0.577732 0
M  V30 36 H 0.427193 0.260857 0.760441 0
M  V30 37 H -0.278036 2.437148 -0.247962 0
M  V30 38 H 1.136740 3.790895 -2.524231 0
M  V30 39 H 1.498040 6.077233 -2.322065 0
M  V30 40 H 2.699476 5.713314 -1.085196 0
M  V30 41 H 0.950431 7.283399 -0.343672 0
M  V30 42 H 0.931727 4.567238 1.192624 0
M  V30 43 H 1.450139 6.272576 1.757073 0
M  V30 44 H -0.643700 7.035626 1.352622 0
M  V30 45 H -0.809801 4.710374 -0.464019 0
M  V30 46 H -1.378496 6.463285 -0.762357 0
M  V30 47 H 0.220252 -4.180842 -1.009461 0
M  V30 48 H -0.766423 -6.685842 0.059793 0
M  V30 49 H 0.035318 -6.363169 -1.451144 0
M  V30 50 H -1.987763 -7.006497 -2.332872 0
M  V30 51 H -2.972705 -6.117950 -1.163780 0
M  V30 52 H -2.870536 -4.619747 -3.039983 0
M  V30 53 H -1.035867 -4.819531 -3.027781 0
M  V30 54 H -1.458517 -2.880819 -1.745454 0
M  V30 55 H -2.740624 -3.682405 -0.730276 0
M  V30 56 H -2.735364 -6.000796 1.214996 0
M  V30 END ATOM
M  V30 BEGIN BOND
M  V30 1 2 1 2
M  V30 2 1 2 3
M  V30 3 1 3 4
M  V30 4 2 4 5
M  V30 5 1 5 6
M  V30 6 2 6 7
M  V30 7 1 7 8
M  V30 8 1 8 9
M  V30 9 2 9 10
M  V30 10 1 10 11
M  V30 11 2 11 12
M  V30 12 1 12 13
M  V30 13 1 13 14
M  V30 14 1 14 15
M  V30 15 1 15 16
M  V30 16 1 16 17
M  V30 17 1 17 18
M  V30 18 1 12 19
M  V30 19 2 19 20
M  V30 20 1 7 21
M  V30 21 2 21 22
M  V30 22 1 22 23
M  V30 23 1 23 24
M  V30 24 1 24 25
M  V30 25 1 25 26
M  V30 26 1 26 27
M  V30 27 1 27 28
M  V30 28 1 23 29
M  V30 29 1 29 30
M  V30 30 2 30 31
M  V30 31 1 31 1
M  V30 32 2 29 3
M  V30 33 1 22 4
M  V30 34 1 28 24
M  V30 35 1 20 9
M  V30 36 1 18 15
M  V30 37 1 1 32
M  V30 38 1 2 33
M  V30 39 1 5 34
M  V30 40 1 8 35
M  V30 41 1 10 36
M  V30 42 1 11 37
M  V30 43 1 13 38
M  V30 44 1 14 39
M  V30 45 1 14 40
M  V30 46 1 15 41
M  V30 47 1 16 42
M  V30 48 1 16 43
M  V30 49 1 17 44
M  V30 50 1 18 45
M  V30 51 1 18 46
M  V30 52 1 24 47
M  V30 53 1 25 48
M  V30 54 1 25 49
M  V30 55 1 26 50
M  V30 56 1 26 51
M  V30 57 1 27 52
M  V30 58 1 27 53
M  V30 59 1 28 54
M  V30 60 1 28 55
M  V30 61 1 30 56
M  V30 END BOND
M  V30 END CTAB
M  END
>  <Dataset>  (330) 
ChEMBL_Kinases

>  <Ligand_Instance>  (330) 
nan

>  <PDB_ID>  (330) 
nan

>  <Standardized_SMILES>  (330) 
c1cc2c3cnc(Nc4ccc(NCC5CNC5)nn4)nc3n(C3CCCC3)c2cn1

>  <Name>  (330) 
nan

>  <Pocket>  (330) 
nan

>  <ATP_Site>  (330) 
nan

>  <Peripheral>  (330) 
nan

>  <Num_H_Atoms_ProtBoundConf>  (330) 
nan

>  <Num_Resolved_Atoms>  (330) 
nan

>  <Num_Not_Resolved_Atoms>  (330) 
nan

$$$$
CHEMBL2204107
     RDKit          3D

  0  0  0  0  0  0  0  0  0  0999 V3000
M  V30 BEGIN CTAB
M  V30 COUNTS 57 60 0 0 0
M  V30 BEGIN ATOM
M  V30 1 C 6.153994 -2.284414 5.483989 0
M  V30 2 C 5.603517 -0.949049 5.020666 0
M  V30 3 N 4.877305 -1.121713 3.765175 0
M  V30 4 C 4.254610 -0.031289 3.102109 0
M  V30 5 O 4.373262 1.082377 3.670516 0
M  V30 6 C 3.512497 -0.111754 1.850405 0
M  V30 7 C 2.973396 1.065164 1.372967 0
M  V30 8 C 2.268052 1.019740 0.191975 0
M  V30 9 C 2.032438 -0.090286 -0.585700 0
M  V30 10 C 1.293918 -0.246427 -1.833392 0
M  V30 11 C -0.041609 -0.855851 -1.731222 0
M  V30 12 C -1.251794 -0.356486 -1.336685 0
M  V30 13 C -1.257195 1.052013 -0.988830 0
M  V30 14 O -0.711362 2.137650 -0.849265 0
M  V30 15 O -2.417233 1.666316 -0.566024 0
M  V30 16 C -2.434863 3.028761 -0.226825 0
M  V30 17 N -2.387886 -1.020410 -1.271049 0
M  V30 18 C -3.592055 -0.401433 -0.844547 0
M  V30 19 C -4.548275 0.256301 -1.598047 0
M  V30 20 C -5.660679 0.790733 -0.985218 0
M  V30 21 C -5.825223 0.671635 0.384615 0
M  V30 22 C -4.872192 0.010892 1.168556 0
M  V30 23 C -3.769189 -0.512277 0.517439 0
M  V30 24 C -2.395949 -2.301368 -1.614931 0
M  V30 25 C -3.610966 -2.993116 -1.539918 0
M  V30 26 C -3.693040 -4.316044 -1.879527 0
M  V30 27 Cl -5.159252 -5.273718 -1.822752 0
M  V30 28 C -2.558187 -4.967924 -2.300273 0
M  V30 29 C -1.378075 -4.260113 -2.363491 0
M  V30 30 C -1.239082 -2.924018 -2.032441 0
M  V30 31 C -0.061538 -2.210381 -2.093298 0
M  V30 32 O 0.895411 -2.953093 -2.501212 0
M  V30 33 C 2.595213 -1.266271 -0.069376 0
M  V30 34 C 3.322097 -1.271053 1.128870 0
M  V30 35 H 7.178424 -2.157720 5.862989 0
M  V30 36 H 6.153834 -3.025027 4.646704 0
M  V30 37 H 5.524110 -2.700240 6.315095 0
M  V30 38 H 4.883007 -0.607236 5.791511 0
M  V30 39 H 6.383331 -0.164839 4.958963 0
M  V30 40 H 4.802886 -2.060299 3.329686 0
M  V30 41 H 3.082365 2.010441 1.884594 0
M  V30 42 H 1.861745 1.941573 -0.181304 0
M  V30 43 H 1.129966 0.804496 -2.223772 0
M  V30 44 H 1.915919 -0.715994 -2.624564 0
M  V30 45 H -1.772315 3.180460 0.662784 0
M  V30 46 H -3.483573 3.303052 0.047749 0
M  V30 47 H -2.112946 3.714055 -1.013696 0
M  V30 48 H -4.315669 0.287572 -2.646525 0
M  V30 49 H -6.370595 1.292200 -1.631015 0
M  V30 50 H -6.697850 1.094422 0.845807 0
M  V30 51 H -5.070746 -0.039037 2.218290 0
M  V30 52 H -3.097589 -1.000998 1.216048 0
M  V30 53 H -4.529982 -2.530760 -1.217327 0
M  V30 54 H -2.543237 -6.026942 -2.588861 0
M  V30 55 H -0.492809 -4.788242 -2.697005 0
M  V30 56 H 2.566880 -2.261414 -0.467023 0
M  V30 57 H 3.776795 -2.126368 1.578699 0
M  V30 END ATOM
M  V30 BEGIN BOND
M  V30 1 1 1 2
M  V30 2 1 2 3
M  V30 3 1 3 4
M  V30 4 2 4 5
M  V30 5 1 4 6
M  V30 6 2 6 7
M  V30 7 1 7 8
M  V30 8 2 8 9
M  V30 9 1 9 10
M  V30 10 1 10 11
M  V30 11 2 11 12
M  V30 12 1 12 13
M  V30 13 2 13 14
M  V30 14 1 13 15
M  V30 15 1 15 16
M  V30 16 1 12 17
M  V30 17 1 17 18
M  V30 18 2 18 19
M  V30 19 1 19 20
M  V30 20 2 20 21
M  V30 21 1 21 22
M  V30 22 2 22 23
M  V30 23 1 17 24
M  V30 24 2 24 25
M  V30 25 1 25 26
M  V30 26 1 26 27
M  V30 27 2 26 28
M  V30 28 1 28 29
M  V30 29 2 29 30
M  V30 30 1 30 31
M  V30 31 2 31 32
M  V30 32 1 9 33
M  V30 33 2 33 34
M  V30 34 1 34 6
M  V30 35 1 31 11
M  V30 36 1 23 18
M  V30 37 1 30 24
M  V30 38 1 1 35
M  V30 39 1 1 36
M  V30 40 1 1 37
M  V30 41 1 2 38
M  V30 42 1 2 39
M  V30 43 1 3 40
M  V30 44 1 7 41
M  V30 45 1 8 42
M  V30 46 1 10 43
M  V30 47 1 10 44
M  V30 48 1 16 45
M  V30 49 1 16 46
M  V30 50 1 16 47
M  V30 51 1 19 48
M  V30 52 1 20 49
M  V30 53 1 21 50
M  V30 54 1 22 51
M  V30 55 1 23 52
M  V30 56 1 25 53
M  V30 57 1 28 54
M  V30 58 1 29 55
M  V30 59 1 33 56
M  V30 60 1 34 57
M  V30 END BOND
M  V30 END CTAB
M  END
>  <Dataset>  (331) 
ChEMBL_Kinases

>  <Ligand_Instance>  (331) 
nan

>  <PDB_ID>  (331) 
nan

>  <Standardized_SMILES>  (331) 
CCNC(=O)c1ccc(Cc2c(C(=O)OC)n(-c3ccccc3)c3cc(Cl)ccc3c2=O)cc1

>  <Name>  (331) 
nan

>  <Pocket>  (331) 
nan

>  <ATP_Site>  (331) 
nan

>  <Peripheral>  (331) 
nan

>  <Num_H_Atoms_ProtBoundConf>  (331) 
nan

>  <Num_Resolved_Atoms>  (331) 
nan

>  <Num_Not_Resolved_Atoms>  (331) 
nan

$$$$
CHEMBL3698726
     RDKit          3D

  0  0  0  0  0  0  0  0  0  0999 V3000
M  V30 BEGIN CTAB
M  V30 COUNTS 59 64 0 0 0
M  V30 BEGIN ATOM
M  V30 1 C 4.970038 -3.855024 5.545926 0
M  V30 2 C 4.968688 -2.858420 4.561652 0
M  V30 3 C 4.018693 -2.919077 3.565271 0
M  V30 4 C 3.763947 -2.107838 2.481898 0
M  V30 5 C 4.336504 -0.956473 1.982108 0
M  V30 6 N 3.861247 -0.367842 0.872002 0
M  V30 7 C 2.806236 -0.908957 0.232983 0
M  V30 8 N 2.171903 -0.431664 -0.946871 0
M  V30 9 C 1.090412 0.492154 -0.897317 0
M  V30 10 C 0.648751 0.936633 0.331924 0
M  V30 11 C -0.416302 1.840261 0.272702 0
M  V30 12 C -0.969364 2.244429 -0.927125 0
M  V30 13 N -2.053077 3.167432 -0.955453 0
M  V30 14 C -2.648017 3.599955 -2.221446 0
M  V30 15 C -3.208275 2.444886 -2.970595 0
M  V30 16 C -4.706228 2.313593 -2.870568 0
M  V30 17 N -5.403952 3.578032 -2.954340 0
M  V30 18 C -4.982637 4.455201 -1.880271 0
M  V30 19 C -3.523295 4.787592 -2.062172 0
M  V30 20 N -0.477011 1.760730 -2.086123 0
M  V30 21 N 0.545316 0.891094 -2.070914 0
M  V30 22 N 2.259176 -2.031168 0.732720 0
M  V30 23 C 2.672315 -2.670397 1.823178 0
M  V30 24 N 2.237012 -3.799362 2.452390 0
M  V30 25 C 1.155295 -4.671283 2.108591 0
M  V30 26 C -0.217447 -4.079669 2.324920 0
M  V30 27 C -1.104410 -4.677249 1.252408 0
M  V30 28 C -0.199145 -5.285735 0.208135 0
M  V30 29 C 1.232003 -5.020821 0.650511 0
M  V30 30 C 3.076274 -3.922261 3.506766 0
M  V30 31 C 3.123162 -4.892061 4.515373 0
M  V30 32 N 4.058087 -4.842195 5.505565 0
M  V30 33 H 5.734992 -3.786223 6.328152 0
M  V30 34 H 5.696266 -2.058015 4.582450 0
M  V30 35 H 5.178456 -0.538489 2.506121 0
M  V30 36 H 2.546165 -0.798199 -1.849163 0
M  V30 37 H 1.099039 0.604807 1.258203 0
M  V30 38 H -0.792130 2.212446 1.215985 0
M  V30 39 H -2.423779 3.537880 -0.038040 0
M  V30 40 H -1.769611 3.958551 -2.837752 0
M  V30 41 H -2.795370 1.498561 -2.543992 0
M  V30 42 H -2.926051 2.448768 -4.043746 0
M  V30 43 H -5.043846 1.729496 -3.757605 0
M  V30 44 H -5.044080 1.723476 -1.989332 0
M  V30 45 H -6.415017 3.340367 -2.732347 0
M  V30 46 H -5.217780 4.096204 -0.876024 0
M  V30 47 H -5.543970 5.417973 -2.058758 0
M  V30 48 H -3.140521 5.423477 -1.253470 0
M  V30 49 H -3.481725 5.415340 -2.998191 0
M  V30 50 H 1.259021 -5.604423 2.717481 0
M  V30 51 H -0.265203 -2.990206 2.244470 0
M  V30 52 H -0.607024 -4.468441 3.297899 0
M  V30 53 H -1.744608 -3.882263 0.771949 0
M  V30 54 H -1.779726 -5.469940 1.634442 0
M  V30 55 H -0.418011 -4.823725 -0.788200 0
M  V30 56 H -0.374831 -6.375185 0.064642 0
M  V30 57 H 1.845858 -5.939979 0.509589 0
M  V30 58 H 1.587439 -4.185077 0.014918 0
M  V30 59 H 2.419019 -5.716611 4.546039 0
M  V30 END ATOM
M  V30 BEGIN BOND
M  V30 1 2 1 2
M  V30 2 1 2 3
M  V30 3 1 3 4
M  V30 4 2 4 5
M  V30 5 1 5 6
M  V30 6 2 6 7
M  V30 7 1 7 8
M  V30 8 1 8 9
M  V30 9 2 9 10
M  V30 10 1 10 11
M  V30 11 2 11 12
M  V30 12 1 12 13
M  V30 13 1 13 14
M  V30 14 1 14 15
M  V30 15 1 15 16
M  V30 16 1 16 17
M  V30 17 1 17 18
M  V30 18 1 18 19
M  V30 19 1 12 20
M  V30 20 2 20 21
M  V30 21 1 7 22
M  V30 22 2 22 23
M  V30 23 1 23 24
M  V30 24 1 24 25
M  V30 25 1 25 26
M  V30 26 1 26 27
M  V30 27 1 27 28
M  V30 28 1 28 29
M  V30 29 1 24 30
M  V30 30 1 30 31
M  V30 31 2 31 32
M  V30 32 1 32 1
M  V30 33 2 30 3
M  V30 34 1 23 4
M  V30 35 1 29 25
M  V30 36 1 21 9
M  V30 37 1 19 14
M  V30 38 1 1 33
M  V30 39 1 2 34
M  V30 40 1 5 35
M  V30 41 1 8 36
M  V30 42 1 10 37
M  V30 43 1 11 38
M  V30 44 1 13 39
M  V30 45 1 14 40
M  V30 46 1 15 41
M  V30 47 1 15 42
M  V30 48 1 16 43
M  V30 49 1 16 44
M  V30 50 1 17 45
M  V30 51 1 18 46
M  V30 52 1 18 47
M  V30 53 1 19 48
M  V30 54 1 19 49
M  V30 55 1 25 50
M  V30 56 1 26 51
M  V30 57 1 26 52
M  V30 58 1 27 53
M  V30 59 1 27 54
M  V30 60 1 28 55
M  V30 61 1 28 56
M  V30 62 1 29 57
M  V30 63 1 29 58
M  V30 64 1 31 59
M  V30 END BOND
M  V30 END CTAB
M  END
>  <Dataset>  (332) 
ChEMBL_Kinases

>  <Ligand_Instance>  (332) 
nan

>  <PDB_ID>  (332) 
nan

>  <Standardized_SMILES>  (332) 
c1cc2c3cnc(Nc4ccc(NC5CCNCC5)nn4)nc3n(C3CCCC3)c2cn1

>  <Name>  (332) 
nan

>  <Pocket>  (332) 
nan

>  <ATP_Site>  (332) 
nan

>  <Peripheral>  (332) 
nan

>  <Num_H_Atoms_ProtBoundConf>  (332) 
nan

>  <Num_Resolved_Atoms>  (332) 
nan

>  <Num_Not_Resolved_Atoms>  (332) 
nan

$$$$
CHEMBL3698724
     RDKit          3D

  0  0  0  0  0  0  0  0  0  0999 V3000
M  V30 BEGIN CTAB
M  V30 COUNTS 57 62 0 0 0
M  V30 BEGIN ATOM
M  V30 1 O 3.015299 -3.902457 -3.421019 0
M  V30 2 S 4.473431 -3.528475 -3.418679 0
M  V30 3 O 5.242590 -4.706305 -3.987755 0
M  V30 4 C 4.972112 -3.241090 -1.760035 0
M  V30 5 C 5.217163 -1.766168 -1.524491 0
M  V30 6 N 4.361533 -0.927466 -2.334416 0
M  V30 7 C 3.197562 -0.254607 -1.877631 0
M  V30 8 C 2.766580 -0.376024 -0.574120 0
M  V30 9 C 1.609203 0.333561 -0.236837 0
M  V30 10 C 0.916866 1.123917 -1.152666 0
M  V30 11 N -0.258514 1.829249 -0.762106 0
M  V30 12 C -0.686309 1.686686 0.589885 0
M  V30 13 N -0.275943 2.479395 1.601047 0
M  V30 14 C -0.730714 2.282324 2.874505 0
M  V30 15 C -1.631586 1.241545 3.112278 0
M  V30 16 C -2.276394 0.767380 4.236595 0
M  V30 17 C -2.185259 1.246641 5.530303 0
M  V30 18 C -2.945461 0.580615 6.482581 0
M  V30 19 N -3.730886 -0.481184 6.149509 0
M  V30 20 C -3.765053 -0.889434 4.858889 0
M  V30 21 C -3.051210 -0.301237 3.833199 0
M  V30 22 N -2.920114 -0.513446 2.518153 0
M  V30 23 C -3.589475 -1.541758 1.791550 0
M  V30 24 C -5.075536 -1.169844 1.705982 0
M  V30 25 C -5.549854 -2.170766 0.662968 0
M  V30 26 C -4.376453 -2.390049 -0.257808 0
M  V30 27 C -3.239157 -1.548462 0.321997 0
M  V30 28 C -2.048028 0.427562 2.052444 0
M  V30 29 N -1.555024 0.685373 0.827060 0
M  V30 30 N 1.418714 1.176543 -2.399982 0
M  V30 31 N 2.514818 0.510468 -2.737379 0
M  V30 32 C 4.797198 -0.817327 -3.713185 0
M  V30 33 C 4.694721 -2.117713 -4.464882 0
M  V30 34 H 5.930632 -3.763447 -1.550383 0
M  V30 35 H 4.243721 -3.594670 -1.000642 0
M  V30 36 H 5.137280 -1.588389 -0.438177 0
M  V30 37 H 6.291211 -1.514902 -1.765654 0
M  V30 38 H 3.286451 -0.983296 0.154937 0
M  V30 39 H 1.222973 0.272195 0.786535 0
M  V30 40 H -0.729867 2.405047 -1.493490 0
M  V30 41 H -0.402612 2.916736 3.685052 0
M  V30 42 H -1.553340 2.092258 5.768312 0
M  V30 43 H -2.921009 0.903182 7.513054 0
M  V30 44 H -4.400948 -1.725059 4.678007 0
M  V30 45 H -3.551858 -2.534769 2.253667 0
M  V30 46 H -5.601571 -1.281617 2.654618 0
M  V30 47 H -5.106655 -0.123782 1.308453 0
M  V30 48 H -5.815337 -3.109778 1.207977 0
M  V30 49 H -6.443001 -1.784740 0.119023 0
M  V30 50 H -4.128053 -3.456922 -0.248540 0
M  V30 51 H -4.618775 -2.086460 -1.301556 0
M  V30 52 H -2.248495 -1.944717 0.108793 0
M  V30 53 H -3.410375 -0.506467 -0.055133 0
M  V30 54 H 5.842205 -0.404641 -3.704894 0
M  V30 55 H 4.170501 -0.069944 -4.273358 0
M  V30 56 H 5.662927 -2.262228 -5.012577 0
M  V30 57 H 3.899190 -2.094791 -5.228891 0
M  V30 END ATOM
M  V30 BEGIN BOND
M  V30 1 2 1 2
M  V30 2 2 2 3
M  V30 3 1 2 4
M  V30 4 1 4 5
M  V30 5 1 5 6
M  V30 6 1 6 7
M  V30 7 2 7 8
M  V30 8 1 8 9
M  V30 9 2 9 10
M  V30 10 1 10 11
M  V30 11 1 11 12
M  V30 12 2 12 13
M  V30 13 1 13 14
M  V30 14 2 14 15
M  V30 15 1 15 16
M  V30 16 2 16 17
M  V30 17 1 17 18
M  V30 18 2 18 19
M  V30 19 1 19 20
M  V30 20 2 20 21
M  V30 21 1 21 22
M  V30 22 1 22 23
M  V30 23 1 23 24
M  V30 24 1 24 25
M  V30 25 1 25 26
M  V30 26 1 26 27
M  V30 27 1 22 28
M  V30 28 2 28 29
M  V30 29 1 10 30
M  V30 30 2 30 31
M  V30 31 1 6 32
M  V30 32 1 32 33
M  V30 33 1 33 2
M  V30 34 1 31 7
M  V30 35 1 29 12
M  V30 36 1 28 15
M  V30 37 1 21 16
M  V30 38 1 27 23
M  V30 39 1 4 34
M  V30 40 1 4 35
M  V30 41 1 5 36
M  V30 42 1 5 37
M  V30 43 1 8 38
M  V30 44 1 9 39
M  V30 45 1 11 40
M  V30 46 1 14 41
M  V30 47 1 17 42
M  V30 48 1 18 43
M  V30 49 1 20 44
M  V30 50 1 23 45
M  V30 51 1 24 46
M  V30 52 1 24 47
M  V30 53 1 25 48
M  V30 54 1 25 49
M  V30 55 1 26 50
M  V30 56 1 26 51
M  V30 57 1 27 52
M  V30 58 1 27 53
M  V30 59 1 32 54
M  V30 60 1 32 55
M  V30 61 1 33 56
M  V30 62 1 33 57
M  V30 END BOND
M  V30 END CTAB
M  END
>  <Dataset>  (333) 
ChEMBL_Kinases

>  <Ligand_Instance>  (333) 
nan

>  <PDB_ID>  (333) 
nan

>  <Standardized_SMILES>  (333) 
O=S1(=O)CCN(c2ccc(Nc3ncc4c5ccncc5n(C5CCCC5)c4n3)nn2)CC1

>  <Name>  (333) 
nan

>  <Pocket>  (333) 
nan

>  <ATP_Site>  (333) 
nan

>  <Peripheral>  (333) 
nan

>  <Num_H_Atoms_ProtBoundConf>  (333) 
nan

>  <Num_Resolved_Atoms>  (333) 
nan

>  <Num_Not_Resolved_Atoms>  (333) 
nan

$$$$
CHEMBL3698734
     RDKit          3D

  0  0  0  0  0  0  0  0  0  0999 V3000
M  V30 BEGIN CTAB
M  V30 COUNTS 58 63 0 0 0
M  V30 BEGIN ATOM
M  V30 1 O 5.018917 -4.337731 3.551234 0
M  V30 2 C 5.238957 -3.169378 4.282095 0 CFG=2
M  V30 3 C 3.972443 -2.873092 5.027137 0
M  V30 4 C 3.787192 -1.431305 5.405147 0
M  V30 5 C 4.273190 -0.475588 4.367470 0
M  V30 6 N 4.578448 -1.135338 3.087718 0
M  V30 7 C 3.895918 -0.845200 1.867170 0
M  V30 8 C 4.277763 -1.323469 0.607876 0
M  V30 9 C 3.519655 -0.959824 -0.485102 0
M  V30 10 C 2.424770 -0.147099 -0.295407 0
M  V30 11 N 1.641640 0.249560 -1.413591 0
M  V30 12 C 0.471054 1.047054 -1.434372 0
M  V30 13 N 0.268446 2.399555 -1.411114 0
M  V30 14 C -0.964647 2.911862 -1.452116 0
M  V30 15 C -2.098542 2.166174 -1.519146 0
M  V30 16 C -3.477157 2.339860 -1.575869 0
M  V30 17 C -4.179139 3.529820 -1.578215 0
M  V30 18 C -5.552626 3.378220 -1.643420 0
M  V30 19 N -6.127416 2.165948 -1.699196 0
M  V30 20 C -5.429179 1.017827 -1.696236 0
M  V30 21 C -4.043853 1.069729 -1.632632 0
M  V30 22 N -3.098940 0.124251 -1.613980 0
M  V30 23 C -3.229716 -1.312053 -1.668173 0
M  V30 24 C -3.989377 -1.928629 -0.543798 0
M  V30 25 C -4.678217 -3.153579 -1.113371 0
M  V30 26 C -4.731694 -2.967524 -2.614436 0
M  V30 27 C -3.876198 -1.785497 -2.951973 0
M  V30 28 C -1.903703 0.786197 -1.544084 0
M  V30 29 N -0.649963 0.316852 -1.500772 0
M  V30 30 N 2.081690 0.300894 0.950286 0
M  V30 31 N 2.816880 -0.050650 2.014065 0
M  V30 32 C 5.644324 -2.092620 3.300790 0
M  V30 33 H 4.114313 -4.455429 3.220103 0
M  V30 34 H 6.045071 -3.395465 5.015605 0
M  V30 35 H 4.014405 -3.457214 5.982948 0
M  V30 36 H 3.074608 -3.309628 4.504800 0
M  V30 37 H 4.371806 -1.230438 6.342764 0
M  V30 38 H 2.706339 -1.292594 5.666689 0
M  V30 39 H 5.144998 0.124089 4.712928 0
M  V30 40 H 3.437633 0.223777 4.137672 0
M  V30 41 H 5.157319 -1.957283 0.572642 0
M  V30 42 H 3.797490 -1.316882 -1.455618 0
M  V30 43 H 1.915572 -0.060187 -2.382233 0
M  V30 44 H -1.065467 3.980385 -1.431964 0
M  V30 45 H -3.658663 4.477168 -1.531509 0
M  V30 46 H -6.130281 4.306170 -1.647200 0
M  V30 47 H -5.863071 0.028735 -1.739867 0
M  V30 48 H -2.213521 -1.805329 -1.663806 0
M  V30 49 H -3.327608 -2.331105 0.278847 0
M  V30 50 H -4.704310 -1.250374 -0.035612 0
M  V30 51 H -5.698498 -3.157181 -0.727677 0
M  V30 52 H -4.153241 -4.096844 -0.851781 0
M  V30 53 H -5.764951 -2.771914 -2.976085 0
M  V30 54 H -4.358359 -3.923699 -3.085850 0
M  V30 55 H -4.405734 -0.965314 -3.472855 0
M  V30 56 H -3.109299 -2.136128 -3.704775 0
M  V30 57 H 6.026682 -2.528077 2.346111 0
M  V30 58 H 6.510454 -1.552317 3.738999 0
M  V30 END ATOM
M  V30 BEGIN BOND
M  V30 1 1 1 2
M  V30 2 1 2 3
M  V30 3 1 3 4
M  V30 4 1 4 5
M  V30 5 1 5 6
M  V30 6 1 6 7
M  V30 7 2 7 8
M  V30 8 1 8 9
M  V30 9 2 9 10
M  V30 10 1 10 11
M  V30 11 1 11 12
M  V30 12 2 12 13
M  V30 13 1 13 14
M  V30 14 2 14 15
M  V30 15 1 15 16
M  V30 16 2 16 17
M  V30 17 1 17 18
M  V30 18 2 18 19
M  V30 19 1 19 20
M  V30 20 2 20 21
M  V30 21 1 21 22
M  V30 22 1 22 23
M  V30 23 1 23 24
M  V30 24 1 24 25
M  V30 25 1 25 26
M  V30 26 1 26 27
M  V30 27 1 22 28
M  V30 28 2 28 29
M  V30 29 1 10 30
M  V30 30 2 30 31
M  V30 31 1 6 32
M  V30 32 1 32 2
M  V30 33 1 31 7
M  V30 34 1 29 12
M  V30 35 1 28 15
M  V30 36 1 21 16
M  V30 37 1 27 23
M  V30 38 1 1 33
M  V30 39 1 2 34 CFG=1
M  V30 40 1 3 35
M  V30 41 1 3 36
M  V30 42 1 4 37
M  V30 43 1 4 38
M  V30 44 1 5 39
M  V30 45 1 5 40
M  V30 46 1 8 41
M  V30 47 1 9 42
M  V30 48 1 11 43
M  V30 49 1 14 44
M  V30 50 1 17 45
M  V30 51 1 18 46
M  V30 52 1 20 47
M  V30 53 1 23 48
M  V30 54 1 24 49
M  V30 55 1 24 50
M  V30 56 1 25 51
M  V30 57 1 25 52
M  V30 58 1 26 53
M  V30 59 1 26 54
M  V30 60 1 27 55
M  V30 61 1 27 56
M  V30 62 1 32 57
M  V30 63 1 32 58
M  V30 END BOND
M  V30 END CTAB
M  END
>  <Dataset>  (334) 
ChEMBL_Kinases

>  <Ligand_Instance>  (334) 
nan

>  <PDB_ID>  (334) 
nan

>  <Standardized_SMILES>  (334) 
O[C@@H]1CCCN(c2ccc(Nc3ncc4c5ccncc5n(C5CCCC5)c4n3)nn2)C1

>  <Name>  (334) 
nan

>  <Pocket>  (334) 
nan

>  <ATP_Site>  (334) 
nan

>  <Peripheral>  (334) 
nan

>  <Num_H_Atoms_ProtBoundConf>  (334) 
nan

>  <Num_Resolved_Atoms>  (334) 
nan

>  <Num_Not_Resolved_Atoms>  (334) 
nan

$$$$
CHEMBL3703112
     RDKit          3D

  0  0  0  0  0  0  0  0  0  0999 V3000
M  V30 BEGIN CTAB
M  V30 COUNTS 56 60 0 0 0
M  V30 BEGIN ATOM
M  V30 1 C 4.002334 -5.369785 5.872590 0
M  V30 2 C 4.868778 -4.173467 5.555720 0
M  V30 3 O 4.185618 -3.389962 4.627636 0
M  V30 4 C 4.676578 -2.200719 4.106762 0
M  V30 5 O 5.785810 -1.732575 4.435481 0
M  V30 6 C 3.854011 -1.481697 3.139839 0
M  V30 7 C 4.239596 -0.291029 2.560765 0
M  V30 8 C 3.461798 0.393507 1.641843 0
M  V30 9 N 2.255815 -0.155294 1.305847 0
M  V30 10 C 1.330613 0.317143 0.442150 0
M  V30 11 C 1.360538 1.509356 -0.349229 0
M  V30 12 C 1.431920 1.633456 -1.711299 0
M  V30 13 C 1.451531 2.836873 -2.383797 0
M  V30 14 C 1.398239 4.024081 -1.683816 0
M  V30 15 C 1.325544 3.934303 -0.302962 0
M  V30 16 C 1.306748 2.720889 0.350215 0
M  V30 17 C 0.264163 -0.578062 0.421345 0
M  V30 18 C -1.009143 -0.632056 -0.291617 0
M  V30 19 C -2.195001 -0.512013 0.446559 0
M  V30 20 C -3.470007 -0.555328 -0.133315 0
M  V30 21 C -3.556447 -0.726345 -1.514030 0
M  V30 22 C -4.938884 -0.755458 -1.998868 0
M  V30 23 N -5.874944 0.104169 -1.326889 0
M  V30 24 C -5.588366 -2.142221 -2.050871 0
M  V30 25 C -6.222297 -1.755072 -3.356401 0
M  V30 26 C -5.154203 -0.667068 -3.488837 0
M  V30 27 C -2.404562 -0.846877 -2.263093 0
M  V30 28 C -1.160507 -0.799307 -1.652840 0
M  V30 29 N 0.600939 -1.567542 1.288858 0
M  V30 30 C 1.808121 -1.313542 1.826445 0
M  V30 31 C 2.621431 -1.958568 2.739541 0
M  V30 32 H 3.246355 -5.515705 5.081768 0
M  V30 33 H 4.578690 -6.277804 6.080112 0
M  V30 34 H 3.483461 -5.104489 6.837630 0
M  V30 35 H 5.179368 -3.644709 6.463180 0
M  V30 36 H 5.804987 -4.603964 5.102613 0
M  V30 37 H 5.190492 0.123560 2.838152 0
M  V30 38 H 3.794718 1.316595 1.213483 0
M  V30 39 H 1.477228 0.720442 -2.266344 0
M  V30 40 H 1.508992 2.825036 -3.472374 0
M  V30 41 H 1.418471 4.915551 -2.273334 0
M  V30 42 H 1.285553 4.900462 0.195587 0
M  V30 43 H 1.248430 2.833703 1.413884 0
M  V30 44 H -2.094050 -0.381928 1.510268 0
M  V30 45 H -4.308828 -0.452219 0.531609 0
M  V30 46 H -6.294901 -0.295611 -0.481792 0
M  V30 47 H -6.488533 0.669246 -1.917306 0
M  V30 48 H -4.812943 -2.917483 -2.062729 0
M  V30 49 H -6.316922 -2.341887 -1.240033 0
M  V30 50 H -6.133002 -2.567171 -4.091457 0
M  V30 51 H -7.248197 -1.358306 -3.230387 0
M  V30 52 H -4.361556 -1.017072 -4.145813 0
M  V30 53 H -5.667539 0.272318 -3.800081 0
M  V30 54 H -2.515859 -0.977511 -3.328580 0
M  V30 55 H -0.266550 -0.898415 -2.250419 0
M  V30 56 H 2.259874 -2.898293 3.161475 0
M  V30 END ATOM
M  V30 BEGIN BOND
M  V30 1 1 1 2
M  V30 2 1 2 3
M  V30 3 1 3 4
M  V30 4 2 4 5
M  V30 5 1 4 6
M  V30 6 1 6 7
M  V30 7 2 7 8
M  V30 8 1 8 9
M  V30 9 1 9 10
M  V30 10 1 10 11
M  V30 11 2 11 12
M  V30 12 1 12 13
M  V30 13 2 13 14
M  V30 14 1 14 15
M  V30 15 2 15 16
M  V30 16 2 10 17
M  V30 17 1 17 18
M  V30 18 2 18 19
M  V30 19 1 19 20
M  V30 20 2 20 21
M  V30 21 1 21 22
M  V30 22 1 22 23
M  V30 23 1 22 24
M  V30 24 1 24 25
M  V30 25 1 25 26
M  V30 26 1 21 27
M  V30 27 2 27 28
M  V30 28 1 17 29
M  V30 29 2 29 30
M  V30 30 1 30 31
M  V30 31 2 31 6
M  V30 32 1 30 9
M  V30 33 1 16 11
M  V30 34 1 28 18
M  V30 35 1 26 22
M  V30 36 1 1 32
M  V30 37 1 1 33
M  V30 38 1 1 34
M  V30 39 1 2 35
M  V30 40 1 2 36
M  V30 41 1 7 37
M  V30 42 1 8 38
M  V30 43 1 12 39
M  V30 44 1 13 40
M  V30 45 1 14 41
M  V30 46 1 15 42
M  V30 47 1 16 43
M  V30 48 1 19 44
M  V30 49 1 20 45
M  V30 50 1 23 46
M  V30 51 1 23 47
M  V30 52 1 24 48
M  V30 53 1 24 49
M  V30 54 1 25 50
M  V30 55 1 25 51
M  V30 56 1 26 52
M  V30 57 1 26 53
M  V30 58 1 27 54
M  V30 59 1 28 55
M  V30 60 1 31 56
M  V30 END BOND
M  V30 END CTAB
M  END
>  <Dataset>  (335) 
ChEMBL_Kinases

>  <Ligand_Instance>  (335) 
nan

>  <PDB_ID>  (335) 
nan

>  <Standardized_SMILES>  (335) 
CCOC(=O)c1ccn2c(-c3ccccc3)c(-c3ccc(C4(N)CCC4)cc3)nc2c1

>  <Name>  (335) 
nan

>  <Pocket>  (335) 
nan

>  <ATP_Site>  (335) 
nan

>  <Peripheral>  (335) 
nan

>  <Num_H_Atoms_ProtBoundConf>  (335) 
nan

>  <Num_Resolved_Atoms>  (335) 
nan

>  <Num_Not_Resolved_Atoms>  (335) 
nan

$$$$
CHEMBL3703113
     RDKit          3D

  0  0  0  0  0  0  0  0  0  0999 V3000
M  V30 BEGIN CTAB
M  V30 COUNTS 50 54 0 0 0
M  V30 BEGIN ATOM
M  V30 1 N -4.454992 -3.257077 -0.441665 0
M  V30 2 C -3.091866 -3.732710 -0.601387 0
M  V30 3 C -2.070438 -2.670969 -0.625579 0
M  V30 4 C -0.963693 -2.479163 -1.423962 0
M  V30 5 C -0.149668 -1.386491 -1.242355 0
M  V30 6 C -0.395663 -0.444163 -0.269297 0
M  V30 7 C 0.496724 0.701006 -0.113023 0
M  V30 8 N 0.812512 1.699078 -0.987935 0
M  V30 9 C 1.692541 2.544428 -0.389433 0
M  V30 10 C 2.301218 3.692779 -0.858795 0
M  V30 11 C 3.152858 4.306423 0.042588 0
M  V30 12 C 3.832783 5.525322 -0.381418 0
M  V30 13 O 3.604909 5.953991 -1.555538 0
M  V30 14 O 4.701553 6.214180 0.442371 0
M  V30 15 C 3.409960 3.843823 1.330723 0
M  V30 16 C 2.754904 2.689657 1.707380 0
M  V30 17 N 1.911657 2.054887 0.857855 0
M  V30 18 C 1.203529 0.932913 1.069173 0
M  V30 19 C 1.194237 0.138568 2.296243 0
M  V30 20 C 0.813147 0.515714 3.570629 0
M  V30 21 C 0.884225 -0.403091 4.593274 0
M  V30 22 C 1.329972 -1.681901 4.346186 0
M  V30 23 C 1.718416 -2.092704 3.085872 0
M  V30 24 C 1.641681 -1.154482 2.062440 0
M  V30 25 C -1.494797 -0.613148 0.540861 0
M  V30 26 C -2.333068 -1.721123 0.367841 0
M  V30 27 C -2.802919 -4.915173 0.300869 0
M  V30 28 C -2.125539 -5.567735 -0.886167 0
M  V30 29 C -2.989961 -4.695799 -1.772385 0
M  V30 30 H -4.846511 -3.547243 0.467942 0
M  V30 31 H -5.052307 -3.466782 -1.271212 0
M  V30 32 H -0.860332 -3.270421 -2.153415 0
M  V30 33 H 0.692109 -1.300322 -1.898271 0
M  V30 34 H 2.133988 4.083653 -1.838935 0
M  V30 35 H 5.334089 6.940464 0.095976 0
M  V30 36 H 4.090044 4.377611 1.981199 0
M  V30 37 H 2.945440 2.317709 2.708422 0
M  V30 38 H 0.485685 1.542586 3.620989 0
M  V30 39 H 0.572946 -0.050008 5.566416 0
M  V30 40 H 1.382361 -2.397408 5.156565 0
M  V30 41 H 2.060623 -3.108505 2.946409 0
M  V30 42 H 1.967403 -1.561521 1.098184 0
M  V30 43 H -1.658315 0.144215 1.293739 0
M  V30 44 H -3.158102 -1.717741 1.081323 0
M  V30 45 H -2.151612 -4.703700 1.173100 0
M  V30 46 H -3.767652 -5.438375 0.562920 0
M  V30 47 H -2.315995 -6.655643 -0.984407 0
M  V30 48 H -1.056094 -5.279895 -0.869705 0
M  V30 49 H -3.951050 -5.242359 -1.945520 0
M  V30 50 H -2.529420 -4.304792 -2.687819 0
M  V30 END ATOM
M  V30 BEGIN BOND
M  V30 1 1 1 2
M  V30 2 1 2 3
M  V30 3 2 3 4
M  V30 4 1 4 5
M  V30 5 2 5 6
M  V30 6 1 6 7
M  V30 7 1 7 8
M  V30 8 2 8 9
M  V30 9 1 9 10
M  V30 10 2 10 11
M  V30 11 1 11 12
M  V30 12 2 12 13
M  V30 13 1 12 14
M  V30 14 1 11 15
M  V30 15 2 15 16
M  V30 16 1 16 17
M  V30 17 1 17 18
M  V30 18 1 18 19
M  V30 19 2 19 20
M  V30 20 1 20 21
M  V30 21 2 21 22
M  V30 22 1 22 23
M  V30 23 2 23 24
M  V30 24 1 6 25
M  V30 25 2 25 26
M  V30 26 1 2 27
M  V30 27 1 27 28
M  V30 28 1 28 29
M  V30 29 1 29 2
M  V30 30 1 26 3
M  V30 31 2 18 7
M  V30 32 1 24 19
M  V30 33 1 17 9
M  V30 34 1 1 30
M  V30 35 1 1 31
M  V30 36 1 4 32
M  V30 37 1 5 33
M  V30 38 1 10 34
M  V30 39 1 14 35
M  V30 40 1 15 36
M  V30 41 1 16 37
M  V30 42 1 20 38
M  V30 43 1 21 39
M  V30 44 1 22 40
M  V30 45 1 23 41
M  V30 46 1 24 42
M  V30 47 1 25 43
M  V30 48 1 26 44
M  V30 49 1 27 45
M  V30 50 1 27 46
M  V30 51 1 28 47
M  V30 52 1 28 48
M  V30 53 1 29 49
M  V30 54 1 29 50
M  V30 END BOND
M  V30 END CTAB
M  END
>  <Dataset>  (336) 
ChEMBL_Kinases

>  <Ligand_Instance>  (336) 
nan

>  <PDB_ID>  (336) 
nan

>  <Standardized_SMILES>  (336) 
NC1(c2ccc(-c3nc4cc(C(=O)O)ccn4c3-c3ccccc3)cc2)CCC1

>  <Name>  (336) 
nan

>  <Pocket>  (336) 
nan

>  <ATP_Site>  (336) 
nan

>  <Peripheral>  (336) 
nan

>  <Num_H_Atoms_ProtBoundConf>  (336) 
nan

>  <Num_Resolved_Atoms>  (336) 
nan

>  <Num_Not_Resolved_Atoms>  (336) 
nan

$$$$
CHEMBL2386762
     RDKit          3D

  0  0  0  0  0  0  0  0  0  0999 V3000
M  V30 BEGIN CTAB
M  V30 COUNTS 37 40 0 0 0
M  V30 BEGIN ATOM
M  V30 1 C 1.923585 -5.514783 1.989554 0
M  V30 2 O 1.785985 -4.147751 1.641452 0
M  V30 3 C 2.833259 -3.305344 1.345383 0
M  V30 4 N 3.930020 -3.731202 1.811544 0
M  V30 5 C 2.445691 -2.128014 0.571318 0
M  V30 6 N 2.632230 -1.650795 -0.465621 0
M  V30 7 C 2.168869 -0.542204 -0.986956 0
M  V30 8 C 2.411371 0.006021 -2.238031 0
M  V30 9 C 1.829001 1.178390 -2.595142 0
M  V30 10 C 0.977866 1.922747 -1.808159 0
M  V30 11 N 0.375748 3.083756 -2.106256 0
M  V30 12 C -0.445880 3.705252 -1.213355 0
M  V30 13 N -0.693942 3.179387 0.019332 0
M  V30 14 C -0.108424 2.011020 0.362146 0
M  V30 15 N -0.358150 1.448073 1.649765 0
M  V30 16 C -1.470291 0.569334 1.770450 0
M  V30 17 C -2.260372 0.300658 0.652263 0
M  V30 18 C -3.363369 -0.550066 0.703786 0
M  V30 19 C -3.600067 -1.096859 1.949626 0
M  V30 20 Cl -4.972634 -2.178585 2.092299 0
M  V30 21 C -2.861058 -0.867679 3.070490 0
M  V30 22 C -1.786481 -0.025816 2.976056 0
M  V30 23 C 0.718000 1.404423 -0.560935 0
M  V30 24 C 1.321954 0.184669 -0.185306 0
M  V30 25 S 1.264877 -0.813685 1.282835 0
M  V30 26 H 0.943012 -6.000571 2.181860 0
M  V30 27 H 2.452160 -6.055051 1.182716 0
M  V30 28 H 2.511049 -5.538643 2.936372 0
M  V30 29 H 4.800462 -3.179001 1.653257 0
M  V30 30 H 3.064103 -0.449211 -2.997642 0
M  V30 31 H 2.014736 1.622024 -3.586276 0
M  V30 32 H -0.903120 4.639066 -1.510043 0
M  V30 33 H 0.218151 1.639870 2.496043 0
M  V30 34 H -2.048568 0.750471 -0.329048 0
M  V30 35 H -3.960051 -0.743849 -0.170823 0
M  V30 36 H -3.048026 -1.291681 4.028473 0
M  V30 37 H -1.144049 0.209205 3.829543 0
M  V30 END ATOM
M  V30 BEGIN BOND
M  V30 1 1 1 2
M  V30 2 1 2 3
M  V30 3 2 3 4 CFG=2
M  V30 4 1 3 5
M  V30 5 2 5 6
M  V30 6 1 6 7
M  V30 7 2 7 8
M  V30 8 1 8 9
M  V30 9 2 9 10
M  V30 10 1 10 11
M  V30 11 2 11 12
M  V30 12 1 12 13
M  V30 13 2 13 14
M  V30 14 1 14 15
M  V30 15 1 15 16
M  V30 16 2 16 17
M  V30 17 1 17 18
M  V30 18 2 18 19
M  V30 19 1 19 20
M  V30 20 1 19 21
M  V30 21 2 21 22
M  V30 22 1 14 23
M  V30 23 2 23 24
M  V30 24 1 24 25
M  V30 25 1 25 5
M  V30 26 1 24 7
M  V30 27 1 23 10
M  V30 28 1 22 16
M  V30 29 1 1 26
M  V30 30 1 1 27
M  V30 31 1 1 28
M  V30 32 1 4 29
M  V30 33 1 8 30
M  V30 34 1 9 31
M  V30 35 1 12 32
M  V30 36 1 15 33
M  V30 37 1 17 34
M  V30 38 1 18 35
M  V30 39 1 21 36
M  V30 40 1 22 37
M  V30 END BOND
M  V30 END CTAB
M  END
>  <Dataset>  (337) 
ChEMBL_Kinases

>  <Ligand_Instance>  (337) 
nan

>  <PDB_ID>  (337) 
nan

>  <Standardized_SMILES>  (337) 
COC(=N)c1nc2ccc3ncnc(Nc4ccc(Cl)cc4)c3c2s1

>  <Name>  (337) 
nan

>  <Pocket>  (337) 
nan

>  <ATP_Site>  (337) 
nan

>  <Peripheral>  (337) 
nan

>  <Num_H_Atoms_ProtBoundConf>  (337) 
nan

>  <Num_Resolved_Atoms>  (337) 
nan

>  <Num_Not_Resolved_Atoms>  (337) 
nan

$$$$
CHEMBL2386763
     RDKit          3D

  0  0  0  0  0  0  0  0  0  0999 V3000
M  V30 BEGIN CTAB
M  V30 COUNTS 37 40 0 0 0
M  V30 BEGIN ATOM
M  V30 1 C 0.679210 -5.120254 3.289682 0
M  V30 2 O 1.322085 -3.873268 3.107395 0
M  V30 3 C 2.160516 -3.620713 2.035946 0
M  V30 4 N 2.919752 -4.599151 1.815335 0
M  V30 5 C 2.270613 -2.450333 1.188184 0
M  V30 6 N 2.882785 -1.997672 0.306314 0
M  V30 7 C 2.719584 -0.829975 -0.274903 0
M  V30 8 C 3.436433 -0.272945 -1.324045 0
M  V30 9 C 3.103461 0.964458 -1.783009 0
M  V30 10 C 2.089952 1.775523 -1.311036 0
M  V30 11 N 1.736954 2.979273 -1.724643 0
M  V30 12 C 0.719116 3.647408 -1.153049 0
M  V30 13 N 0.011076 3.110510 -0.125379 0
M  V30 14 C 0.318846 1.870506 0.354472 0
M  V30 15 N -0.442096 1.340442 1.434799 0
M  V30 16 C -1.645888 0.682754 1.060766 0
M  V30 17 C -2.061851 0.591370 -0.250583 0
M  V30 18 C -3.215733 -0.026082 -0.683098 0
M  V30 19 C -4.010121 -0.595569 0.291176 0
M  V30 20 C -3.676433 -0.557126 1.648463 0
M  V30 21 C -2.500700 0.084507 1.979654 0
M  V30 22 C 1.372036 1.234982 -0.271719 0
M  V30 23 C 1.670146 -0.010474 0.226647 0
M  V30 24 S 1.026519 -1.051964 1.511972 0
M  V30 25 H 0.117207 -5.143195 4.257901 0
M  V30 26 H -0.143328 -5.139930 2.513848 0
M  V30 27 H 1.300226 -5.994694 3.108928 0
M  V30 28 H 3.626038 -4.606622 1.049883 0
M  V30 29 H 4.278921 -0.776403 -1.823793 0
M  V30 30 H 3.679551 1.399000 -2.616841 0
M  V30 31 H 0.439625 4.634388 -1.502040 0
M  V30 32 H -0.235284 1.371067 2.448117 0
M  V30 33 H -1.443400 1.036365 -1.017989 0
M  V30 34 H -3.485691 -0.060737 -1.741160 0
M  V30 35 H -4.922605 -1.086560 -0.017185 0
M  V30 36 H -4.304689 -1.005976 2.403842 0
M  V30 37 H -2.195181 0.140666 3.030119 0
M  V30 END ATOM
M  V30 BEGIN BOND
M  V30 1 1 1 2
M  V30 2 1 2 3
M  V30 3 2 3 4 CFG=2
M  V30 4 1 3 5
M  V30 5 2 5 6
M  V30 6 1 6 7
M  V30 7 2 7 8
M  V30 8 1 8 9
M  V30 9 2 9 10
M  V30 10 1 10 11
M  V30 11 2 11 12
M  V30 12 1 12 13
M  V30 13 2 13 14
M  V30 14 1 14 15
M  V30 15 1 15 16
M  V30 16 2 16 17
M  V30 17 1 17 18
M  V30 18 2 18 19
M  V30 19 1 19 20
M  V30 20 2 20 21
M  V30 21 1 14 22
M  V30 22 2 22 23
M  V30 23 1 23 24
M  V30 24 1 24 5
M  V30 25 1 23 7
M  V30 26 1 22 10
M  V30 27 1 21 16
M  V30 28 1 1 25
M  V30 29 1 1 26
M  V30 30 1 1 27
M  V30 31 1 4 28
M  V30 32 1 8 29
M  V30 33 1 9 30
M  V30 34 1 12 31
M  V30 35 1 15 32
M  V30 36 1 17 33
M  V30 37 1 18 34
M  V30 38 1 19 35
M  V30 39 1 20 36
M  V30 40 1 21 37
M  V30 END BOND
M  V30 END CTAB
M  END
>  <Dataset>  (338) 
ChEMBL_Kinases

>  <Ligand_Instance>  (338) 
nan

>  <PDB_ID>  (338) 
nan

>  <Standardized_SMILES>  (338) 
COC(=N)c1nc2ccc3ncnc(Nc4ccccc4)c3c2s1

>  <Name>  (338) 
nan

>  <Pocket>  (338) 
nan

>  <ATP_Site>  (338) 
nan

>  <Peripheral>  (338) 
nan

>  <Num_H_Atoms_ProtBoundConf>  (338) 
nan

>  <Num_Resolved_Atoms>  (338) 
nan

>  <Num_Not_Resolved_Atoms>  (338) 
nan

$$$$
CHEMBL2386764
     RDKit          3D

  0  0  0  0  0  0  0  0  0  0999 V3000
M  V30 BEGIN CTAB
M  V30 COUNTS 40 43 0 0 0
M  V30 BEGIN ATOM
M  V30 1 C -0.013726 -5.872651 1.089273 0
M  V30 2 O 0.054498 -4.732477 0.242024 0
M  V30 3 C 1.257932 -4.101945 0.020450 0
M  V30 4 N 2.379853 -4.651127 0.288454 0
M  V30 5 C 1.294793 -2.758906 -0.538767 0
M  V30 6 N 2.095005 -2.214157 -1.408370 0
M  V30 7 C 1.889306 -0.950807 -1.737186 0
M  V30 8 C 2.672427 -0.267457 -2.647058 0
M  V30 9 C 2.403774 1.051243 -2.945896 0
M  V30 10 C 1.371666 1.787297 -2.390442 0
M  V30 11 N 1.068084 3.054205 -2.639808 0
M  V30 12 C 0.016953 3.661080 -2.017547 0
M  V30 13 N -0.756644 2.986682 -1.119007 0
M  V30 14 C -0.477825 1.679474 -0.833617 0
M  V30 15 N -1.302152 1.007047 0.105687 0
M  V30 16 C -1.095283 0.931948 1.510480 0
M  V30 17 C 0.012673 1.571097 2.025343 0
M  V30 18 C 0.185248 1.477360 3.400856 0
M  V30 19 C -0.713089 0.779941 4.184595 0
M  V30 20 C -0.622535 0.618317 5.659119 0
M  V30 21 C -1.799254 0.165723 3.597542 0
M  V30 22 C -2.039229 0.216265 2.218936 0
M  V30 23 C 0.594514 1.119647 -1.491625 0
M  V30 24 C 0.843885 -0.153535 -1.195001 0
M  V30 25 S 0.056394 -1.432117 -0.047015 0
M  V30 26 H -1.097563 -6.183324 1.100233 0
M  V30 27 H 0.610294 -6.660686 0.598644 0
M  V30 28 H 0.372820 -5.654415 2.102137 0
M  V30 29 H 2.360756 -5.618748 0.691650 0
M  V30 30 H 3.511964 -0.670265 -3.175735 0
M  V30 31 H 3.016505 1.616184 -3.669725 0
M  V30 32 H -0.214716 4.696309 -2.234652 0
M  V30 33 H -2.096563 0.569519 -0.405126 0
M  V30 34 H 0.704821 2.110365 1.407565 0
M  V30 35 H 1.021992 1.943175 3.903115 0
M  V30 36 H 0.293606 1.054843 6.091707 0
M  V30 37 H -1.528528 1.091078 6.105016 0
M  V30 38 H -0.712453 -0.463402 5.952088 0
M  V30 39 H -2.536715 -0.397161 4.176531 0
M  V30 40 H -2.880012 -0.254065 1.730959 0
M  V30 END ATOM
M  V30 BEGIN BOND
M  V30 1 1 1 2
M  V30 2 1 2 3
M  V30 3 2 3 4 CFG=2
M  V30 4 1 3 5
M  V30 5 2 5 6
M  V30 6 1 6 7
M  V30 7 2 7 8
M  V30 8 1 8 9
M  V30 9 2 9 10
M  V30 10 1 10 11
M  V30 11 2 11 12
M  V30 12 1 12 13
M  V30 13 2 13 14
M  V30 14 1 14 15
M  V30 15 1 15 16
M  V30 16 2 16 17
M  V30 17 1 17 18
M  V30 18 2 18 19
M  V30 19 1 19 20
M  V30 20 1 19 21
M  V30 21 2 21 22
M  V30 22 1 14 23
M  V30 23 2 23 24
M  V30 24 1 24 25
M  V30 25 1 25 5
M  V30 26 1 24 7
M  V30 27 1 23 10
M  V30 28 1 22 16
M  V30 29 1 1 26
M  V30 30 1 1 27
M  V30 31 1 1 28
M  V30 32 1 4 29
M  V30 33 1 8 30
M  V30 34 1 9 31
M  V30 35 1 12 32
M  V30 36 1 15 33
M  V30 37 1 17 34
M  V30 38 1 18 35
M  V30 39 1 20 36
M  V30 40 1 20 37
M  V30 41 1 20 38
M  V30 42 1 21 39
M  V30 43 1 22 40
M  V30 END BOND
M  V30 END CTAB
M  END
>  <Dataset>  (339) 
ChEMBL_Kinases

>  <Ligand_Instance>  (339) 
nan

>  <PDB_ID>  (339) 
nan

>  <Standardized_SMILES>  (339) 
COC(=N)c1nc2ccc3ncnc(Nc4ccc(C)cc4)c3c2s1

>  <Name>  (339) 
nan

>  <Pocket>  (339) 
nan

>  <ATP_Site>  (339) 
nan

>  <Peripheral>  (339) 
nan

>  <Num_H_Atoms_ProtBoundConf>  (339) 
nan

>  <Num_Resolved_Atoms>  (339) 
nan

>  <Num_Not_Resolved_Atoms>  (339) 
nan

$$$$
CHEMBL2386765
     RDKit          3D

  0  0  0  0  0  0  0  0  0  0999 V3000
M  V30 BEGIN CTAB
M  V30 COUNTS 37 40 0 0 0
M  V30 BEGIN ATOM
M  V30 1 C -0.257776 -6.220306 0.916142 0
M  V30 2 O 0.058806 -4.884807 0.676087 0
M  V30 3 C 0.985970 -4.147275 1.383442 0
M  V30 4 N 1.502929 -4.664097 2.417227 0
M  V30 5 C 1.420835 -2.781109 1.012412 0
M  V30 6 N 2.314937 -2.330292 0.419508 0
M  V30 7 C 2.582784 -1.069990 0.160801 0
M  V30 8 C 3.647822 -0.548927 -0.543986 0
M  V30 9 C 3.761290 0.810210 -0.712697 0
M  V30 10 C 2.878003 1.750067 -0.226734 0
M  V30 11 N 2.939582 3.075401 -0.359929 0
M  V30 12 C 1.992655 3.890585 0.175358 0
M  V30 13 N 0.974511 3.331106 0.853476 0
M  V30 14 C 0.822599 2.007613 1.043196 0
M  V30 15 N -0.262976 1.437770 1.764869 0
M  V30 16 C -1.480369 1.081210 1.081882 0
M  V30 17 C -1.535714 1.309306 -0.274401 0
M  V30 18 C -2.721594 0.959940 -0.922249 0
M  V30 19 C -3.781102 0.412595 -0.225017 0
M  V30 20 F -4.953682 0.064797 -0.852325 0
M  V30 21 C -3.685703 0.196148 1.153795 0
M  V30 22 C -2.512153 0.538430 1.813706 0
M  V30 23 C 1.813118 1.232084 0.477716 0
M  V30 24 C 1.696016 -0.147292 0.650173 0
M  V30 25 S 0.509651 -1.190123 1.468936 0
M  V30 26 H -1.030974 -6.607693 0.227518 0
M  V30 27 H 0.662375 -6.838249 0.714027 0
M  V30 28 H -0.589236 -6.349501 1.980139 0
M  V30 29 H 1.335995 -5.583619 2.831933 0
M  V30 30 H 4.453139 -1.144178 -1.005933 0
M  V30 31 H 4.610493 1.232188 -1.275179 0
M  V30 32 H 2.098650 4.952259 0.033199 0
M  V30 33 H -0.125234 1.301179 2.777002 0
M  V30 34 H -0.729035 1.736314 -0.860867 0
M  V30 35 H -2.891421 1.088310 -1.982522 0
M  V30 36 H -4.487264 -0.232159 1.758603 0
M  V30 37 H -2.420282 0.375680 2.893663 0
M  V30 END ATOM
M  V30 BEGIN BOND
M  V30 1 1 1 2
M  V30 2 1 2 3
M  V30 3 2 3 4 CFG=2
M  V30 4 1 3 5
M  V30 5 2 5 6
M  V30 6 1 6 7
M  V30 7 2 7 8
M  V30 8 1 8 9
M  V30 9 2 9 10
M  V30 10 1 10 11
M  V30 11 2 11 12
M  V30 12 1 12 13
M  V30 13 2 13 14
M  V30 14 1 14 15
M  V30 15 1 15 16
M  V30 16 2 16 17
M  V30 17 1 17 18
M  V30 18 2 18 19
M  V30 19 1 19 20
M  V30 20 1 19 21
M  V30 21 2 21 22
M  V30 22 1 14 23
M  V30 23 2 23 24
M  V30 24 1 24 25
M  V30 25 1 25 5
M  V30 26 1 24 7
M  V30 27 1 23 10
M  V30 28 1 22 16
M  V30 29 1 1 26
M  V30 30 1 1 27
M  V30 31 1 1 28
M  V30 32 1 4 29
M  V30 33 1 8 30
M  V30 34 1 9 31
M  V30 35 1 12 32
M  V30 36 1 15 33
M  V30 37 1 17 34
M  V30 38 1 18 35
M  V30 39 1 21 36
M  V30 40 1 22 37
M  V30 END BOND
M  V30 END CTAB
M  END
>  <Dataset>  (340) 
ChEMBL_Kinases

>  <Ligand_Instance>  (340) 
nan

>  <PDB_ID>  (340) 
nan

>  <Standardized_SMILES>  (340) 
COC(=N)c1nc2ccc3ncnc(Nc4ccc(F)cc4)c3c2s1

>  <Name>  (340) 
nan

>  <Pocket>  (340) 
nan

>  <ATP_Site>  (340) 
nan

>  <Peripheral>  (340) 
nan

>  <Num_H_Atoms_ProtBoundConf>  (340) 
nan

>  <Num_Resolved_Atoms>  (340) 
nan

>  <Num_Not_Resolved_Atoms>  (340) 
nan

$$$$
CHEMBL2386766
     RDKit          3D

  0  0  0  0  0  0  0  0  0  0999 V3000
M  V30 BEGIN CTAB
M  V30 COUNTS 38 41 0 0 0
M  V30 BEGIN ATOM
M  V30 1 C 2.441970 -4.420465 3.905987 0
M  V30 2 O 3.032480 -3.603201 2.929495 0
M  V30 3 C 2.511636 -3.310042 1.700260 0
M  V30 4 N 2.100370 -4.405319 1.133780 0
M  V30 5 C 2.375960 -2.032548 1.014154 0
M  V30 6 N 2.976036 -1.448283 0.180799 0
M  V30 7 C 2.696103 -0.268674 -0.331283 0
M  V30 8 C 3.394962 0.413897 -1.302915 0
M  V30 9 C 2.968992 1.636506 -1.726842 0
M  V30 10 C 1.834250 2.302987 -1.249789 0
M  V30 11 N 1.390046 3.493454 -1.639127 0
M  V30 12 C 0.263830 3.974460 -1.053380 0
M  V30 13 N -0.431860 3.324793 -0.104634 0
M  V30 14 C -0.005788 2.103676 0.317907 0
M  V30 15 N -0.731222 1.405385 1.320405 0
M  V30 16 C -1.797781 0.496527 1.100571 0
M  V30 17 C -2.178674 0.247750 -0.201406 0
M  V30 18 C -3.234571 -0.653441 -0.380146 0
M  V30 19 C -3.831965 -1.238656 0.740908 0
M  V30 20 C -4.919895 -2.171389 0.625539 0
M  V30 21 N -5.807329 -2.919316 0.518987 0
M  V30 22 C -3.409706 -0.952890 2.022418 0
M  V30 23 C -2.356904 -0.056484 2.235019 0
M  V30 24 C 1.143018 1.630011 -0.290094 0
M  V30 25 C 1.525481 0.371984 0.189935 0
M  V30 26 S 0.949913 -0.790801 1.362933 0
M  V30 27 H 3.051919 -4.513569 4.824616 0
M  V30 28 H 1.432694 -4.021608 4.197648 0
M  V30 29 H 2.242927 -5.462564 3.571354 0
M  V30 30 H 1.669057 -4.391408 0.185596 0
M  V30 31 H 4.307869 0.046489 -1.791423 0
M  V30 32 H 3.519641 2.192906 -2.503878 0
M  V30 33 H -0.107414 4.953857 -1.369165 0
M  V30 34 H -0.349242 1.672302 2.241555 0
M  V30 35 H -1.709728 0.704861 -1.044292 0
M  V30 36 H -3.611279 -0.918932 -1.351884 0
M  V30 37 H -3.871479 -1.404767 2.880595 0
M  V30 38 H -1.999597 0.191378 3.221973 0
M  V30 END ATOM
M  V30 BEGIN BOND
M  V30 1 1 1 2
M  V30 2 1 2 3
M  V30 3 2 3 4 CFG=2
M  V30 4 1 3 5
M  V30 5 2 5 6
M  V30 6 1 6 7
M  V30 7 2 7 8
M  V30 8 1 8 9
M  V30 9 2 9 10
M  V30 10 1 10 11
M  V30 11 2 11 12
M  V30 12 1 12 13
M  V30 13 2 13 14
M  V30 14 1 14 15
M  V30 15 1 15 16
M  V30 16 2 16 17
M  V30 17 1 17 18
M  V30 18 2 18 19
M  V30 19 1 19 20
M  V30 20 3 20 21
M  V30 21 1 19 22
M  V30 22 2 22 23
M  V30 23 1 14 24
M  V30 24 2 24 25
M  V30 25 1 25 26
M  V30 26 1 26 5
M  V30 27 1 25 7
M  V30 28 1 24 10
M  V30 29 1 23 16
M  V30 30 1 1 27
M  V30 31 1 1 28
M  V30 32 1 1 29
M  V30 33 1 4 30
M  V30 34 1 8 31
M  V30 35 1 9 32
M  V30 36 1 12 33
M  V30 37 1 15 34
M  V30 38 1 17 35
M  V30 39 1 18 36
M  V30 40 1 22 37
M  V30 41 1 23 38
M  V30 END BOND
M  V30 END CTAB
M  END
>  <Dataset>  (341) 
ChEMBL_Kinases

>  <Ligand_Instance>  (341) 
nan

>  <PDB_ID>  (341) 
nan

>  <Standardized_SMILES>  (341) 
COC(=N)c1nc2ccc3ncnc(Nc4ccc(C#N)cc4)c3c2s1

>  <Name>  (341) 
nan

>  <Pocket>  (341) 
nan

>  <ATP_Site>  (341) 
nan

>  <Peripheral>  (341) 
nan

>  <Num_H_Atoms_ProtBoundConf>  (341) 
nan

>  <Num_Resolved_Atoms>  (341) 
nan

>  <Num_Not_Resolved_Atoms>  (341) 
nan

$$$$
CHEMBL2386767
     RDKit          3D

  0  0  0  0  0  0  0  0  0  0999 V3000
M  V30 BEGIN CTAB
M  V30 COUNTS 49 52 0 0 0
M  V30 BEGIN ATOM
M  V30 1 C 0.764697 -5.112539 4.069477 0
M  V30 2 O 1.167684 -4.130505 3.109984 0
M  V30 3 C 1.410908 -4.503834 1.791180 0
M  V30 4 N 1.171521 -5.667723 1.343868 0
M  V30 5 C 1.960641 -3.618328 0.779776 0
M  V30 6 N 2.545811 -3.701362 -0.273420 0
M  V30 7 C 2.927495 -2.643280 -0.988346 0
M  V30 8 C 3.595832 -2.713722 -2.193608 0
M  V30 9 C 3.943188 -1.567373 -2.851313 0
M  V30 10 C 3.678918 -0.282152 -2.408157 0
M  V30 11 N 3.989732 0.857918 -3.002910 0
M  V30 12 C 3.652737 2.030074 -2.428160 0
M  V30 13 N 2.993184 2.111732 -1.238702 0
M  V30 14 C 2.651223 0.962744 -0.587357 0
M  V30 15 N 1.963327 1.048540 0.651328 0
M  V30 16 C 0.566931 1.050883 0.914019 0
M  V30 17 C 0.144893 1.172389 2.217098 0
M  V30 18 C -1.210312 1.171242 2.469525 0
M  V30 19 C -2.144159 1.052938 1.462480 0
M  V30 20 C -3.608408 1.032652 1.520716 0
M  V30 21 C -4.142172 1.189632 2.928472 0
M  V30 22 C -4.219958 2.130291 0.666095 0
M  V30 23 C -4.170187 -0.286775 0.981281 0
M  V30 24 C -1.683815 0.931844 0.155122 0
M  V30 25 C -0.318717 0.929204 -0.137213 0
M  V30 26 C 3.012374 -0.213160 -1.205723 0
M  V30 27 C 2.619928 -1.338233 -0.466972 0
M  V30 28 S 1.806506 -1.736161 1.009949 0
M  V30 29 H 0.602004 -4.630540 5.063663 0
M  V30 30 H -0.217152 -5.487996 3.720751 0
M  V30 31 H 1.459346 -5.962787 4.092775 0
M  V30 32 H 0.786037 -6.483222 1.830788 0
M  V30 33 H 3.892559 -3.619000 -2.707675 0
M  V30 34 H 4.478135 -1.581292 -3.816242 0
M  V30 35 H 3.915185 2.969874 -2.931016 0
M  V30 36 H 2.669025 1.114632 1.392692 0
M  V30 37 H 0.771432 1.269967 3.075815 0
M  V30 38 H -1.646157 1.259196 3.444177 0
M  V30 39 H -4.119812 0.279718 3.528663 0
M  V30 40 H -5.196075 1.558270 2.919795 0
M  V30 41 H -3.539862 1.993661 3.443634 0
M  V30 42 H -3.555983 3.013629 0.571979 0
M  V30 43 H -5.202536 2.401187 1.055788 0
M  V30 44 H -4.367706 1.713817 -0.361394 0
M  V30 45 H -3.701833 -1.141694 1.498672 0
M  V30 46 H -5.266832 -0.290456 1.138216 0
M  V30 47 H -4.029347 -0.310401 -0.124539 0
M  V30 48 H -2.288438 0.831643 -0.740185 0
M  V30 49 H 0.081107 0.837408 -1.139248 0
M  V30 END ATOM
M  V30 BEGIN BOND
M  V30 1 1 1 2
M  V30 2 1 2 3
M  V30 3 2 3 4 CFG=2
M  V30 4 1 3 5
M  V30 5 2 5 6
M  V30 6 1 6 7
M  V30 7 2 7 8
M  V30 8 1 8 9
M  V30 9 2 9 10
M  V30 10 1 10 11
M  V30 11 2 11 12
M  V30 12 1 12 13
M  V30 13 2 13 14
M  V30 14 1 14 15
M  V30 15 1 15 16
M  V30 16 2 16 17
M  V30 17 1 17 18
M  V30 18 2 18 19
M  V30 19 1 19 20
M  V30 20 1 20 21
M  V30 21 1 20 22
M  V30 22 1 20 23
M  V30 23 1 19 24
M  V30 24 2 24 25
M  V30 25 1 14 26
M  V30 26 2 26 27
M  V30 27 1 27 28
M  V30 28 1 28 5
M  V30 29 1 27 7
M  V30 30 1 26 10
M  V30 31 1 25 16
M  V30 32 1 1 29
M  V30 33 1 1 30
M  V30 34 1 1 31
M  V30 35 1 4 32
M  V30 36 1 8 33
M  V30 37 1 9 34
M  V30 38 1 12 35
M  V30 39 1 15 36
M  V30 40 1 17 37
M  V30 41 1 18 38
M  V30 42 1 21 39
M  V30 43 1 21 40
M  V30 44 1 21 41
M  V30 45 1 22 42
M  V30 46 1 22 43
M  V30 47 1 22 44
M  V30 48 1 23 45
M  V30 49 1 23 46
M  V30 50 1 23 47
M  V30 51 1 24 48
M  V30 52 1 25 49
M  V30 END BOND
M  V30 END CTAB
M  END
>  <Dataset>  (342) 
ChEMBL_Kinases

>  <Ligand_Instance>  (342) 
nan

>  <PDB_ID>  (342) 
nan

>  <Standardized_SMILES>  (342) 
COC(=N)c1nc2ccc3ncnc(Nc4ccc(C(C)(C)C)cc4)c3c2s1

>  <Name>  (342) 
nan

>  <Pocket>  (342) 
nan

>  <ATP_Site>  (342) 
nan

>  <Peripheral>  (342) 
nan

>  <Num_H_Atoms_ProtBoundConf>  (342) 
nan

>  <Num_Resolved_Atoms>  (342) 
nan

>  <Num_Not_Resolved_Atoms>  (342) 
nan

$$$$
CHEMBL3698667
     RDKit          3D

  0  0  0  0  0  0  0  0  0  0999 V3000
M  V30 BEGIN CTAB
M  V30 COUNTS 63 68 0 0 0
M  V30 BEGIN ATOM
M  V30 1 C -0.893655 -3.630646 6.566087 0
M  V30 2 C 0.100543 -2.909273 5.937009 0
M  V30 3 C -0.005608 -2.737829 4.556329 0
M  V30 4 C 0.787383 -2.090233 3.631272 0
M  V30 5 C 1.964213 -1.376349 3.706316 0
M  V30 6 N 2.554635 -0.823536 2.610014 0
M  V30 7 C 1.941667 -0.998788 1.425781 0
M  V30 8 N 2.354710 -0.521954 0.138665 0
M  V30 9 C 1.891096 0.751937 -0.300116 0
M  V30 10 C 2.238366 1.289233 -1.522646 0
M  V30 11 C 1.779305 2.525285 -1.932172 0
M  V30 12 C 0.948584 3.291170 -1.142206 0
M  V30 13 N 0.443693 4.569636 -1.503230 0
M  V30 14 C -0.472392 5.381554 -0.760118 0
M  V30 15 C -1.544260 6.066641 -1.527182 0
M  V30 16 N -1.193648 6.482708 -2.845651 0
M  V30 17 C -0.478702 5.404795 -3.515235 0
M  V30 18 C 0.803826 5.242955 -2.708878 0
M  V30 19 C 0.629419 2.713516 0.068977 0
M  V30 20 N 1.068300 1.502869 0.490365 0
M  V30 21 N 0.793140 -1.699151 1.374187 0
M  V30 22 C 0.174787 -2.261241 2.424191 0
M  V30 23 N -0.959702 -2.980131 2.534128 0
M  V30 24 C -1.892459 -3.373847 1.468005 0
M  V30 25 C -1.528167 -4.691286 0.867595 0
M  V30 26 C -2.506148 -5.091687 -0.242429 0
M  V30 27 C -1.899082 -4.800245 -1.601965 0
M  V30 28 C -0.676458 -5.618457 -1.880465 0
M  V30 29 C 0.036750 -5.912471 -0.595165 0
M  V30 30 C -0.115836 -4.706356 0.318362 0
M  V30 31 C -1.086748 -3.285187 3.857798 0
M  V30 32 C -2.045465 -3.994285 4.543569 0
M  V30 33 N -1.927683 -4.150458 5.877491 0
M  V30 34 H -0.847271 -3.788181 7.649642 0
M  V30 35 H 0.947001 -2.478839 6.468736 0
M  V30 36 H 2.445555 -1.242717 4.660801 0
M  V30 37 H 2.979019 -1.043571 -0.513331 0
M  V30 38 H 2.886421 0.705467 -2.153044 0
M  V30 39 H 2.088370 2.871105 -2.884954 0
M  V30 40 H 0.143588 6.162155 -0.246269 0
M  V30 41 H -0.926467 4.769478 0.043157 0
M  V30 42 H -2.434890 5.396076 -1.612431 0
M  V30 43 H -1.890814 6.963016 -0.973661 0
M  V30 44 H -0.527893 7.291582 -2.744182 0
M  V30 45 H -0.277272 5.632076 -4.574419 0
M  V30 46 H -1.099028 4.491359 -3.382719 0
M  V30 47 H 1.602373 4.776708 -3.308359 0
M  V30 48 H 1.158799 6.272914 -2.466944 0
M  V30 49 H 0.006378 3.158851 0.799263 0
M  V30 50 H -2.896395 -3.396706 1.896128 0
M  V30 51 H -1.884022 -2.613061 0.653286 0
M  V30 52 H -1.626019 -5.454009 1.659368 0
M  V30 53 H -2.679681 -6.163037 -0.161947 0
M  V30 54 H -3.408578 -4.485450 -0.144420 0
M  V30 55 H -1.631643 -3.716364 -1.657818 0
M  V30 56 H -2.686519 -5.077858 -2.347262 0
M  V30 57 H -0.924984 -6.600659 -2.349043 0
M  V30 58 H -0.005993 -5.014129 -2.527543 0
M  V30 59 H 1.112931 -6.034360 -0.839908 0
M  V30 60 H -0.384589 -6.821273 -0.110392 0
M  V30 61 H 0.094825 -3.825834 -0.303244 0
M  V30 62 H 0.620675 -4.805738 1.138896 0
M  V30 63 H -2.893749 -4.430462 4.034221 0
M  V30 END ATOM
M  V30 BEGIN BOND
M  V30 1 2 1 2
M  V30 2 1 2 3
M  V30 3 1 3 4
M  V30 4 2 4 5
M  V30 5 1 5 6
M  V30 6 2 6 7
M  V30 7 1 7 8
M  V30 8 1 8 9
M  V30 9 2 9 10
M  V30 10 1 10 11
M  V30 11 2 11 12
M  V30 12 1 12 13
M  V30 13 1 13 14
M  V30 14 1 14 15
M  V30 15 1 15 16
M  V30 16 1 16 17
M  V30 17 1 17 18
M  V30 18 1 12 19
M  V30 19 2 19 20
M  V30 20 1 7 21
M  V30 21 2 21 22
M  V30 22 1 22 23
M  V30 23 1 23 24
M  V30 24 1 24 25
M  V30 25 1 25 26
M  V30 26 1 26 27
M  V30 27 1 27 28
M  V30 28 1 28 29
M  V30 29 1 29 30
M  V30 30 1 23 31
M  V30 31 1 31 32
M  V30 32 2 32 33
M  V30 33 1 33 1
M  V30 34 2 31 3
M  V30 35 1 22 4
M  V30 36 1 30 25
M  V30 37 1 20 9
M  V30 38 1 18 13
M  V30 39 1 1 34
M  V30 40 1 2 35
M  V30 41 1 5 36
M  V30 42 1 8 37
M  V30 43 1 10 38
M  V30 44 1 11 39
M  V30 45 1 14 40
M  V30 46 1 14 41
M  V30 47 1 15 42
M  V30 48 1 15 43
M  V30 49 1 16 44
M  V30 50 1 17 45
M  V30 51 1 17 46
M  V30 52 1 18 47
M  V30 53 1 18 48
M  V30 54 1 19 49
M  V30 55 1 24 50
M  V30 56 1 24 51
M  V30 57 1 25 52
M  V30 58 1 26 53
M  V30 59 1 26 54
M  V30 60 1 27 55
M  V30 61 1 27 56
M  V30 62 1 28 57
M  V30 63 1 28 58
M  V30 64 1 29 59
M  V30 65 1 29 60
M  V30 66 1 30 61
M  V30 67 1 30 62
M  V30 68 1 32 63
M  V30 END BOND
M  V30 END CTAB
M  END
>  <Dataset>  (343) 
ChEMBL_Kinases

>  <Ligand_Instance>  (343) 
nan

>  <PDB_ID>  (343) 
nan

>  <Standardized_SMILES>  (343) 
c1cc2c3cnc(Nc4ccc(N5CCNCC5)cn4)nc3n(CC3CCCCC3)c2cn1

>  <Name>  (343) 
nan

>  <Pocket>  (343) 
nan

>  <ATP_Site>  (343) 
nan

>  <Peripheral>  (343) 
nan

>  <Num_H_Atoms_ProtBoundConf>  (343) 
nan

>  <Num_Resolved_Atoms>  (343) 
nan

>  <Num_Not_Resolved_Atoms>  (343) 
nan

$$$$
CHEMBL2386768
     RDKit          3D

  0  0  0  0  0  0  0  0  0  0999 V3000
M  V30 BEGIN CTAB
M  V30 COUNTS 45 48 0 0 0
M  V30 BEGIN ATOM
M  V30 1 C 3.726648 -5.306395 1.597077 0
M  V30 2 O 3.541254 -4.230526 0.694749 0
M  V30 3 C 2.455510 -4.156728 -0.163670 0
M  V30 4 N 1.591449 -5.106508 -0.259686 0
M  V30 5 C 2.283043 -2.939949 -1.001764 0
M  V30 6 N 2.258759 -2.465301 -2.049318 0
M  V30 7 C 2.071921 -1.213597 -2.407806 0
M  V30 8 C 2.048933 -0.643582 -3.666420 0
M  V30 9 C 1.841657 0.696306 -3.785301 0
M  V30 10 C 1.642398 1.610980 -2.783256 0
M  V30 11 N 1.451497 2.913031 -2.896793 0
M  V30 12 C 1.285209 3.629193 -1.747794 0
M  V30 13 N 1.298325 3.123176 -0.500600 0
M  V30 14 C 1.490086 1.785203 -0.311871 0
M  V30 15 N 1.537490 1.097158 0.936165 0
M  V30 16 C 0.315775 0.842617 1.624495 0
M  V30 17 C 0.171558 -0.024525 2.693825 0
M  V30 18 C -1.012718 -0.238212 3.357497 0
M  V30 19 C -2.152843 0.432270 2.968326 0
M  V30 20 N -3.380605 0.226324 3.638388 0
M  V30 21 C -4.546455 0.996658 3.184142 0
M  V30 22 C -3.473344 -0.717054 4.734351 0
M  V30 23 C -2.033183 1.299742 1.905162 0
M  V30 24 C -0.840561 1.519285 1.231288 0
M  V30 25 C 1.660609 1.057443 -1.497133 0
M  V30 26 C 1.871793 -0.323045 -1.342373 0
M  V30 27 S 1.973305 -1.377961 0.037275 0
M  V30 28 H 4.659924 -5.073333 2.151504 0
M  V30 29 H 3.844341 -6.273657 1.069854 0
M  V30 30 H 2.859345 -5.296999 2.286007 0
M  V30 31 H 1.631026 -5.984243 0.281466 0
M  V30 32 H 2.190113 -1.216328 -4.598433 0
M  V30 33 H 1.823124 1.144693 -4.792816 0
M  V30 34 H 1.127772 4.701638 -1.876255 0
M  V30 35 H 2.439988 0.783112 1.345644 0
M  V30 36 H 1.078674 -0.557066 3.002600 0
M  V30 37 H -0.986417 -0.930306 4.161591 0
M  V30 38 H -5.385568 0.922116 3.937119 0
M  V30 39 H -4.225393 2.070301 3.141548 0
M  V30 40 H -4.945580 0.629541 2.234360 0
M  V30 41 H -3.668241 -1.755962 4.396451 0
M  V30 42 H -4.343204 -0.446232 5.400794 0
M  V30 43 H -2.573566 -0.639711 5.407919 0
M  V30 44 H -2.932114 1.831621 1.591475 0
M  V30 45 H -0.842899 2.231808 0.390367 0
M  V30 END ATOM
M  V30 BEGIN BOND
M  V30 1 1 1 2
M  V30 2 1 2 3
M  V30 3 2 3 4 CFG=2
M  V30 4 1 3 5
M  V30 5 2 5 6
M  V30 6 1 6 7
M  V30 7 2 7 8
M  V30 8 1 8 9
M  V30 9 2 9 10
M  V30 10 1 10 11
M  V30 11 2 11 12
M  V30 12 1 12 13
M  V30 13 2 13 14
M  V30 14 1 14 15
M  V30 15 1 15 16
M  V30 16 2 16 17
M  V30 17 1 17 18
M  V30 18 2 18 19
M  V30 19 1 19 20
M  V30 20 1 20 21
M  V30 21 1 20 22
M  V30 22 1 19 23
M  V30 23 2 23 24
M  V30 24 1 14 25
M  V30 25 2 25 26
M  V30 26 1 26 27
M  V30 27 1 27 5
M  V30 28 1 26 7
M  V30 29 1 25 10
M  V30 30 1 24 16
M  V30 31 1 1 28
M  V30 32 1 1 29
M  V30 33 1 1 30
M  V30 34 1 4 31
M  V30 35 1 8 32
M  V30 36 1 9 33
M  V30 37 1 12 34
M  V30 38 1 15 35
M  V30 39 1 17 36
M  V30 40 1 18 37
M  V30 41 1 21 38
M  V30 42 1 21 39
M  V30 43 1 21 40
M  V30 44 1 22 41
M  V30 45 1 22 42
M  V30 46 1 22 43
M  V30 47 1 23 44
M  V30 48 1 24 45
M  V30 END BOND
M  V30 END CTAB
M  END
>  <Dataset>  (344) 
ChEMBL_Kinases

>  <Ligand_Instance>  (344) 
nan

>  <PDB_ID>  (344) 
nan

>  <Standardized_SMILES>  (344) 
COC(=N)c1nc2ccc3ncnc(Nc4ccc(N(C)C)cc4)c3c2s1

>  <Name>  (344) 
nan

>  <Pocket>  (344) 
nan

>  <ATP_Site>  (344) 
nan

>  <Peripheral>  (344) 
nan

>  <Num_H_Atoms_ProtBoundConf>  (344) 
nan

>  <Num_Resolved_Atoms>  (344) 
nan

>  <Num_Not_Resolved_Atoms>  (344) 
nan

$$$$
CHEMBL2386769
     RDKit          3D

  0  0  0  0  0  0  0  0  0  0999 V3000
M  V30 BEGIN CTAB
M  V30 COUNTS 40 43 0 0 0
M  V30 BEGIN ATOM
M  V30 1 C 0.523436 -5.122795 3.591215 0
M  V30 2 O 1.251164 -4.058395 2.954150 0
M  V30 3 C 1.655804 -4.166913 1.640173 0
M  V30 4 N 1.865504 -5.314096 1.116643 0
M  V30 5 C 1.889122 -3.045703 0.710731 0
M  V30 6 N 2.338931 -2.885759 -0.373704 0
M  V30 7 C 2.440489 -1.734985 -1.010832 0
M  V30 8 C 2.962494 -1.521026 -2.278551 0
M  V30 9 C 3.000776 -0.274665 -2.804219 0
M  V30 10 C 2.552254 0.869348 -2.180596 0
M  V30 11 N 2.564869 2.127870 -2.637733 0
M  V30 12 C 2.076610 3.129664 -1.860024 0
M  V30 13 N 1.569755 2.909755 -0.624048 0
M  V30 14 C 1.534314 1.644166 -0.113067 0
M  V30 15 N 0.999732 1.475822 1.191783 0
M  V30 16 C -0.411372 1.410529 1.404832 0
M  V30 17 C -0.922035 1.263712 2.701285 0
M  V30 18 C -2.294125 1.218764 2.884975 0
M  V30 19 C -3.149692 1.318557 1.790381 0
M  V30 20 C -4.586515 1.266971 2.103453 0
M  V30 21 F -5.096158 2.557685 2.214534 0
M  V30 22 F -4.828786 0.552511 3.262003 0
M  V30 23 F -5.290075 0.659682 1.091857 0
M  V30 24 C -2.665828 1.463297 0.501503 0
M  V30 25 C -1.289746 1.505263 0.347785 0
M  V30 26 C 2.035965 0.657081 -0.927272 0
M  V30 27 C 1.972579 -0.604801 -0.340286 0
M  V30 28 S 1.425111 -1.325115 1.165725 0
M  V30 29 H 0.324436 -4.808939 4.631401 0
M  V30 30 H -0.482614 -5.232929 3.086332 0
M  V30 31 H 1.083219 -6.088892 3.545302 0
M  V30 32 H 1.768999 -6.230045 1.566997 0
M  V30 33 H 3.365681 -2.322596 -2.917782 0
M  V30 34 H 3.415434 -0.105990 -3.807915 0
M  V30 35 H 2.127897 4.113264 -2.311813 0
M  V30 36 H 1.659387 1.400058 1.977883 0
M  V30 37 H -0.240585 1.189257 3.515279 0
M  V30 38 H -2.677629 1.105448 3.897614 0
M  V30 39 H -3.335242 1.537564 -0.320709 0
M  V30 40 H -0.930078 1.618932 -0.679459 0
M  V30 END ATOM
M  V30 BEGIN BOND
M  V30 1 1 1 2
M  V30 2 1 2 3
M  V30 3 2 3 4 CFG=2
M  V30 4 1 3 5
M  V30 5 2 5 6
M  V30 6 1 6 7
M  V30 7 2 7 8
M  V30 8 1 8 9
M  V30 9 2 9 10
M  V30 10 1 10 11
M  V30 11 2 11 12
M  V30 12 1 12 13
M  V30 13 2 13 14
M  V30 14 1 14 15
M  V30 15 1 15 16
M  V30 16 2 16 17
M  V30 17 1 17 18
M  V30 18 2 18 19
M  V30 19 1 19 20
M  V30 20 1 20 21
M  V30 21 1 20 22
M  V30 22 1 20 23
M  V30 23 1 19 24
M  V30 24 2 24 25
M  V30 25 1 14 26
M  V30 26 2 26 27
M  V30 27 1 27 28
M  V30 28 1 28 5
M  V30 29 1 27 7
M  V30 30 1 26 10
M  V30 31 1 25 16
M  V30 32 1 1 29
M  V30 33 1 1 30
M  V30 34 1 1 31
M  V30 35 1 4 32
M  V30 36 1 8 33
M  V30 37 1 9 34
M  V30 38 1 12 35
M  V30 39 1 15 36
M  V30 40 1 17 37
M  V30 41 1 18 38
M  V30 42 1 24 39
M  V30 43 1 25 40
M  V30 END BOND
M  V30 END CTAB
M  END
>  <Dataset>  (345) 
ChEMBL_Kinases

>  <Ligand_Instance>  (345) 
nan

>  <PDB_ID>  (345) 
nan

>  <Standardized_SMILES>  (345) 
COC(=N)c1nc2ccc3ncnc(Nc4ccc(C(F)(F)F)cc4)c3c2s1

>  <Name>  (345) 
nan

>  <Pocket>  (345) 
nan

>  <ATP_Site>  (345) 
nan

>  <Peripheral>  (345) 
nan

>  <Num_H_Atoms_ProtBoundConf>  (345) 
nan

>  <Num_Resolved_Atoms>  (345) 
nan

>  <Num_Not_Resolved_Atoms>  (345) 
nan

$$$$
CHEMBL2386770
     RDKit          3D

  0  0  0  0  0  0  0  0  0  0999 V3000
M  V30 BEGIN CTAB
M  V30 COUNTS 37 40 0 0 0
M  V30 BEGIN ATOM
M  V30 1 C 3.567241 -3.960011 3.866859 0
M  V30 2 O 3.745777 -3.627059 2.525726 0
M  V30 3 C 2.773092 -3.259357 1.642108 0
M  V30 4 N 1.800141 -4.110911 1.691429 0
M  V30 5 C 2.640663 -2.126427 0.693159 0
M  V30 6 N 3.111489 -1.585510 -0.219208 0
M  V30 7 C 2.653406 -0.515078 -0.827635 0
M  V30 8 C 3.227938 0.137720 -1.921547 0
M  V30 9 C 2.624463 1.260017 -2.441542 0
M  V30 10 C 1.457326 1.829440 -1.969519 0
M  V30 11 N 0.812383 2.902135 -2.395248 0
M  V30 12 C -0.328663 3.297842 -1.773613 0
M  V30 13 N -0.833410 2.629395 -0.727688 0
M  V30 14 C -0.224880 1.524619 -0.242177 0
M  V30 15 N -0.982060 1.033628 0.844522 0
M  V30 16 C -2.043575 0.165703 1.151508 0
M  V30 17 C -2.145831 -0.906909 1.977501 0
M  V30 18 C -3.244875 -1.694736 2.166829 0
M  V30 19 C -4.386683 -1.393209 1.458935 0
M  V30 20 F -5.452398 -2.204915 1.679814 0
M  V30 21 C -4.361562 -0.302217 0.588358 0
M  V30 22 C -3.209859 0.467142 0.434855 0
M  V30 23 Br -3.590273 1.854789 -0.831230 0
M  V30 24 C 0.922644 1.159517 -0.895238 0
M  V30 25 C 1.495669 0.046179 -0.356663 0
M  V30 26 S 1.123520 -1.019842 0.963089 0
M  V30 27 H 4.557210 -4.210363 4.297516 0
M  V30 28 H 3.175043 -3.058834 4.406128 0
M  V30 29 H 2.865411 -4.787687 4.063986 0
M  V30 30 H 1.807166 -4.936260 2.327349 0
M  V30 31 H 4.147298 -0.158021 -2.434949 0
M  V30 32 H 3.061024 1.791312 -3.305214 0
M  V30 33 H -0.752057 4.197645 -2.230971 0
M  V30 34 H -0.611928 1.480364 1.712572 0
M  V30 35 H -1.268654 -1.144305 2.550884 0
M  V30 36 H -3.197548 -2.524045 2.855914 0
M  V30 37 H -5.337000 -0.208177 0.116371 0
M  V30 END ATOM
M  V30 BEGIN BOND
M  V30 1 1 1 2
M  V30 2 1 2 3
M  V30 3 2 3 4 CFG=2
M  V30 4 1 3 5
M  V30 5 2 5 6
M  V30 6 1 6 7
M  V30 7 2 7 8
M  V30 8 1 8 9
M  V30 9 2 9 10
M  V30 10 1 10 11
M  V30 11 2 11 12
M  V30 12 1 12 13
M  V30 13 2 13 14
M  V30 14 1 14 15
M  V30 15 1 15 16
M  V30 16 2 16 17
M  V30 17 1 17 18
M  V30 18 2 18 19
M  V30 19 1 19 20
M  V30 20 1 19 21
M  V30 21 2 21 22
M  V30 22 1 22 23
M  V30 23 1 14 24
M  V30 24 2 24 25
M  V30 25 1 25 26
M  V30 26 1 26 5
M  V30 27 1 25 7
M  V30 28 1 24 10
M  V30 29 1 22 16
M  V30 30 1 1 27
M  V30 31 1 1 28
M  V30 32 1 1 29
M  V30 33 1 4 30
M  V30 34 1 8 31
M  V30 35 1 9 32
M  V30 36 1 12 33
M  V30 37 1 15 34
M  V30 38 1 17 35
M  V30 39 1 18 36
M  V30 40 1 21 37
M  V30 END BOND
M  V30 END CTAB
M  END
>  <Dataset>  (346) 
ChEMBL_Kinases

>  <Ligand_Instance>  (346) 
nan

>  <PDB_ID>  (346) 
nan

>  <Standardized_SMILES>  (346) 
COC(=N)c1nc2ccc3ncnc(Nc4ccc(F)cc4Br)c3c2s1

>  <Name>  (346) 
nan

>  <Pocket>  (346) 
nan

>  <ATP_Site>  (346) 
nan

>  <Peripheral>  (346) 
nan

>  <Num_H_Atoms_ProtBoundConf>  (346) 
nan

>  <Num_Resolved_Atoms>  (346) 
nan

>  <Num_Not_Resolved_Atoms>  (346) 
nan

$$$$
CHEMBL4461181
     RDKit          3D

  0  0  0  0  0  0  0  0  0  0999 V3000
M  V30 BEGIN CTAB
M  V30 COUNTS 61 65 0 0 0
M  V30 BEGIN ATOM
M  V30 1 C 4.634080 -3.174662 2.239722 0
M  V30 2 C 4.281015 -2.302763 3.440491 0 CFG=1
M  V30 3 N 5.479906 -1.755715 4.043762 0
M  V30 4 C 5.503533 -0.328116 4.022616 0
M  V30 5 O 6.417953 0.385944 4.475813 0
M  V30 6 C 4.260993 0.038212 3.375632 0
M  V30 7 C 3.498044 1.107709 2.958682 0
M  V30 8 C 2.330098 0.670799 2.368757 0
M  V30 9 C 1.334570 1.587497 1.835866 0
M  V30 10 C 1.485870 2.956934 1.881690 0
M  V30 11 C 0.545680 3.828224 1.378270 0
M  V30 12 C -0.603774 3.341444 0.798974 0
M  V30 13 C -0.799577 1.984949 0.729979 0
M  V30 14 C -1.970018 1.562914 0.137467 0
M  V30 15 O -2.797125 2.416150 -0.306610 0
M  V30 16 N -2.173910 0.238896 0.062424 0
M  V30 17 C -3.391040 -0.245503 -0.539898 0
M  V30 18 C -3.166788 -0.339038 -2.023875 0 CFG=1
M  V30 19 C -4.378181 -0.852328 -2.759192 0
M  V30 20 C -4.397443 0.012052 -4.000107 0
M  V30 21 C -3.117492 0.811647 -3.853455 0
M  V30 22 O -2.997963 0.985417 -2.482305 0
M  V30 23 C -1.253470 -0.604362 0.556426 0
M  V30 24 N -1.324182 -2.002065 0.562668 0
M  V30 25 C -1.119139 -3.308307 0.050741 0
M  V30 26 C -1.858134 -3.545845 -1.228348 0
M  V30 27 C 0.355734 -3.592484 -0.229656 0
M  V30 28 C -1.544544 -4.420461 1.016220 0
M  V30 29 N -0.114842 -0.142874 1.131495 0
M  V30 30 C 0.163645 1.161458 1.244124 0
M  V30 31 N 2.413386 -0.666132 2.442721 0
M  V30 32 C 3.543962 -1.088547 3.033478 0
M  V30 33 H 4.236554 -2.658071 1.341084 0
M  V30 34 H 5.739922 -3.245523 2.115291 0
M  V30 35 H 4.182216 -4.165018 2.408249 0
M  V30 36 H 3.650237 -2.839046 4.172452 0
M  V30 37 H 6.172905 -2.434205 4.415667 0
M  V30 38 H 3.818878 2.150101 3.099234 0
M  V30 39 H 2.377889 3.375141 2.330302 0
M  V30 40 H 0.730672 4.886603 1.448664 0
M  V30 41 H -1.296103 4.095916 0.425647 0
M  V30 42 H -4.213187 0.488196 -0.306475 0
M  V30 43 H -3.728955 -1.189895 -0.068872 0
M  V30 44 H -2.255154 -0.928617 -2.203559 0
M  V30 45 H -4.130691 -1.905603 -3.073035 0
M  V30 46 H -5.291247 -0.801222 -2.159742 0
M  V30 47 H -4.341513 -0.587125 -4.917279 0
M  V30 48 H -5.271353 0.698399 -3.992864 0
M  V30 49 H -2.311383 0.209931 -4.278361 0
M  V30 50 H -3.174829 1.777297 -4.400026 0
M  V30 51 H -1.838000 -2.062640 1.495380 0
M  V30 52 H -1.944697 -4.648396 -1.394241 0
M  V30 53 H -2.869284 -3.103367 -1.234131 0
M  V30 54 H -1.251461 -3.093942 -2.049406 0
M  V30 55 H 0.810393 -2.833295 -0.876643 0
M  V30 56 H 0.350203 -4.553860 -0.809047 0
M  V30 57 H 0.900722 -3.740642 0.725323 0
M  V30 58 H -0.918816 -5.306318 0.899994 0
M  V30 59 H -1.477191 -3.985864 2.029542 0
M  V30 60 H -2.605799 -4.670147 0.846586 0
M  V30 61 H 1.680410 -1.310447 2.081122 0
M  V30 END ATOM
M  V30 BEGIN BOND
M  V30 1 1 1 2
M  V30 2 1 2 3
M  V30 3 1 3 4
M  V30 4 2 4 5
M  V30 5 1 4 6
M  V30 6 1 6 7
M  V30 7 2 7 8
M  V30 8 1 8 9
M  V30 9 2 9 10
M  V30 10 1 10 11
M  V30 11 2 11 12
M  V30 12 1 12 13
M  V30 13 1 13 14
M  V30 14 2 14 15
M  V30 15 1 14 16
M  V30 16 1 16 17
M  V30 17 1 17 18
M  V30 18 1 18 19
M  V30 19 1 19 20
M  V30 20 1 20 21
M  V30 21 1 21 22
M  V30 22 1 16 23
M  V30 23 1 23 24
M  V30 24 1 24 25
M  V30 25 1 25 26
M  V30 26 1 25 27
M  V30 27 1 25 28
M  V30 28 2 23 29
M  V30 29 1 29 30
M  V30 30 1 8 31
M  V30 31 1 31 32
M  V30 32 1 32 2
M  V30 33 2 32 6
M  V30 34 1 30 9
M  V30 35 2 30 13
M  V30 36 1 22 18
M  V30 37 1 1 33
M  V30 38 1 1 34
M  V30 39 1 1 35
M  V30 40 1 2 36 CFG=1
M  V30 41 1 3 37
M  V30 42 1 7 38
M  V30 43 1 10 39
M  V30 44 1 11 40
M  V30 45 1 12 41
M  V30 46 1 17 42
M  V30 47 1 17 43
M  V30 48 1 18 44 CFG=1
M  V30 49 1 19 45
M  V30 50 1 19 46
M  V30 51 1 20 47
M  V30 52 1 20 48
M  V30 53 1 21 49
M  V30 54 1 21 50
M  V30 55 1 24 51
M  V30 56 1 26 52
M  V30 57 1 26 53
M  V30 58 1 26 54
M  V30 59 1 27 55
M  V30 60 1 27 56
M  V30 61 1 27 57
M  V30 62 1 28 58
M  V30 63 1 28 59
M  V30 64 1 28 60
M  V30 65 1 31 61
M  V30 END BOND
M  V30 END CTAB
M  END
>  <Dataset>  (347) 
ChEMBL_Kinases

>  <Ligand_Instance>  (347) 
nan

>  <PDB_ID>  (347) 
nan

>  <Standardized_SMILES>  (347) 
C[C@H]1NC(=O)c2cc(-c3cccc4c(=O)n(C[C@H]5CCCO5)c(NC(C)(C)C)nc34)[nH]c21

>  <Name>  (347) 
nan

>  <Pocket>  (347) 
nan

>  <ATP_Site>  (347) 
nan

>  <Peripheral>  (347) 
nan

>  <Num_H_Atoms_ProtBoundConf>  (347) 
nan

>  <Num_Resolved_Atoms>  (347) 
nan

>  <Num_Not_Resolved_Atoms>  (347) 
nan

$$$$
CHEMBL3703114
     RDKit          3D

  0  0  0  0  0  0  0  0  0  0999 V3000
M  V30 BEGIN CTAB
M  V30 COUNTS 54 58 0 0 0
M  V30 BEGIN ATOM
M  V30 1 C 4.539613 -4.837221 6.099354 0
M  V30 2 N 3.722762 -4.093545 5.141047 0
M  V30 3 C 4.161491 -2.860769 4.624436 0
M  V30 4 O 5.291604 -2.457582 5.045044 0
M  V30 5 C 3.446037 -2.021785 3.666949 0
M  V30 6 C 4.061094 -0.846212 3.289174 0
M  V30 7 C 3.404651 -0.015462 2.372726 0
M  V30 8 N 2.203370 -0.413535 1.909465 0
M  V30 9 C 1.415172 0.246147 1.023178 0
M  V30 10 C 1.525207 1.481613 0.305318 0
M  V30 11 C 0.794060 2.647236 0.374728 0
M  V30 12 C 1.048508 3.744397 -0.410128 0
M  V30 13 C 2.093342 3.721469 -1.341114 0
M  V30 14 C 2.836099 2.562824 -1.424588 0
M  V30 15 C 2.571639 1.465507 -0.630446 0
M  V30 16 C 0.283485 -0.517008 0.832850 0
M  V30 17 C -0.960636 -0.477408 0.071028 0
M  V30 18 C -2.015436 0.404503 0.192315 0
M  V30 19 C -3.125199 0.309839 -0.610322 0
M  V30 20 C -3.214446 -0.679770 -1.568025 0
M  V30 21 C -4.472721 -0.649712 -2.349928 0
M  V30 22 N -4.992640 0.684245 -2.569018 0
M  V30 23 C -5.572462 -1.509286 -1.708830 0
M  V30 24 C -5.310294 -2.618071 -2.712216 0
M  V30 25 C -4.560282 -1.563872 -3.534515 0
M  V30 26 C -2.189825 -1.584705 -1.729627 0
M  V30 27 C -1.090076 -1.457965 -0.904339 0
M  V30 28 N 0.414197 -1.630038 1.614733 0
M  V30 29 C 1.597558 -1.567617 2.279194 0
M  V30 30 C 2.214508 -2.413854 3.182080 0
M  V30 31 H 4.634891 -4.285628 7.062279 0
M  V30 32 H 5.493212 -5.180794 5.673262 0
M  V30 33 H 3.963487 -5.755507 6.356724 0
M  V30 34 H 2.794877 -4.440486 4.804920 0
M  V30 35 H 5.017790 -0.506526 3.643857 0
M  V30 36 H 3.858134 0.915598 2.053033 0
M  V30 37 H 0.009453 2.595545 1.111873 0
M  V30 38 H 0.411637 4.602814 -0.270443 0
M  V30 39 H 2.255980 4.605575 -1.935616 0
M  V30 40 H 3.634090 2.584546 -2.155335 0
M  V30 41 H 3.253668 0.624879 -0.819757 0
M  V30 42 H -1.883629 1.152458 0.960331 0
M  V30 43 H -3.868277 1.076606 -0.392619 0
M  V30 44 H -5.454211 1.028861 -1.680402 0
M  V30 45 H -5.720164 0.677900 -3.306006 0
M  V30 46 H -5.328352 -1.848217 -0.674196 0
M  V30 47 H -6.576466 -1.070759 -1.723118 0
M  V30 48 H -4.646984 -3.421777 -2.320681 0
M  V30 49 H -6.248075 -2.975801 -3.134916 0
M  V30 50 H -5.302706 -1.155316 -4.279907 0
M  V30 51 H -3.639017 -1.931224 -3.982743 0
M  V30 52 H -2.306423 -2.333152 -2.485625 0
M  V30 53 H -0.319642 -2.217291 -1.097354 0
M  V30 54 H 1.737304 -3.318118 3.470615 0
M  V30 END ATOM
M  V30 BEGIN BOND
M  V30 1 1 1 2
M  V30 2 1 2 3
M  V30 3 2 3 4
M  V30 4 1 3 5
M  V30 5 1 5 6
M  V30 6 2 6 7
M  V30 7 1 7 8
M  V30 8 1 8 9
M  V30 9 1 9 10
M  V30 10 2 10 11
M  V30 11 1 11 12
M  V30 12 2 12 13
M  V30 13 1 13 14
M  V30 14 2 14 15
M  V30 15 2 9 16
M  V30 16 1 16 17
M  V30 17 2 17 18
M  V30 18 1 18 19
M  V30 19 2 19 20
M  V30 20 1 20 21
M  V30 21 1 21 22
M  V30 22 1 21 23
M  V30 23 1 23 24
M  V30 24 1 24 25
M  V30 25 1 20 26
M  V30 26 2 26 27
M  V30 27 1 16 28
M  V30 28 2 28 29
M  V30 29 1 29 30
M  V30 30 2 30 5
M  V30 31 1 29 8
M  V30 32 1 15 10
M  V30 33 1 27 17
M  V30 34 1 25 21
M  V30 35 1 1 31
M  V30 36 1 1 32
M  V30 37 1 1 33
M  V30 38 1 2 34
M  V30 39 1 6 35
M  V30 40 1 7 36
M  V30 41 1 11 37
M  V30 42 1 12 38
M  V30 43 1 13 39
M  V30 44 1 14 40
M  V30 45 1 15 41
M  V30 46 1 18 42
M  V30 47 1 19 43
M  V30 48 1 22 44
M  V30 49 1 22 45
M  V30 50 1 23 46
M  V30 51 1 23 47
M  V30 52 1 24 48
M  V30 53 1 24 49
M  V30 54 1 25 50
M  V30 55 1 25 51
M  V30 56 1 26 52
M  V30 57 1 27 53
M  V30 58 1 30 54
M  V30 END BOND
M  V30 END CTAB
M  END
>  <Dataset>  (348) 
ChEMBL_Kinases

>  <Ligand_Instance>  (348) 
nan

>  <PDB_ID>  (348) 
nan

>  <Standardized_SMILES>  (348) 
CNC(=O)c1ccn2c(-c3ccccc3)c(-c3ccc(C4(N)CCC4)cc3)nc2c1

>  <Name>  (348) 
nan

>  <Pocket>  (348) 
nan

>  <ATP_Site>  (348) 
nan

>  <Peripheral>  (348) 
nan

>  <Num_H_Atoms_ProtBoundConf>  (348) 
nan

>  <Num_Resolved_Atoms>  (348) 
nan

>  <Num_Not_Resolved_Atoms>  (348) 
nan

$$$$
CHEMBL3703115
     RDKit          3D

  0  0  0  0  0  0  0  0  0  0999 V3000
M  V30 BEGIN CTAB
M  V30 COUNTS 57 61 0 0 0
M  V30 BEGIN ATOM
M  V30 1 C 7.374080 -5.639904 5.017226 0
M  V30 2 O 6.282318 -4.990058 4.399130 0
M  V30 3 C 6.321936 -3.722537 3.884813 0
M  V30 4 O 7.395903 -3.070412 3.956269 0
M  V30 5 C 5.146105 -3.123757 3.260914 0
M  V30 6 C 5.162169 -1.908817 2.761418 0
M  V30 7 C 4.039431 -1.228635 2.120525 0
M  V30 8 C 4.150421 0.054860 1.624727 0
M  V30 9 C 3.095253 0.703948 1.017487 0
M  V30 10 N 1.913347 0.066309 0.902352 0
M  V30 11 C 0.773310 0.518324 0.349098 0
M  V30 12 C 0.418873 1.781330 -0.287991 0
M  V30 13 C 1.080766 2.194677 -1.438642 0
M  V30 14 C 0.767679 3.384859 -2.063854 0
M  V30 15 C -0.224527 4.203900 -1.553143 0
M  V30 16 C -0.879661 3.780550 -0.402256 0
M  V30 17 C -0.584526 2.585348 0.248914 0
M  V30 18 C -0.171428 -0.480748 0.459501 0
M  V30 19 C -1.573537 -0.630377 0.071609 0
M  V30 20 C -1.741931 -0.549754 -1.305502 0
M  V30 21 C -2.998345 -0.668560 -1.864740 0
M  V30 22 C -4.098212 -0.869435 -1.047912 0
M  V30 23 C -5.486896 -1.014367 -1.482929 0
M  V30 24 N -6.433107 -0.229879 -0.690559 0
M  V30 25 C -5.825064 -0.949928 -2.919438 0
M  V30 26 C -6.098125 -2.457345 -2.986585 0
M  V30 27 C -5.899716 -2.476395 -1.487549 0
M  V30 28 C -3.923302 -0.948472 0.319263 0
M  V30 29 C -2.666412 -0.830495 0.890661 0
M  V30 30 N 0.450506 -1.509205 1.085117 0
M  V30 31 C 1.726457 -1.183122 1.359763 0
M  V30 32 C 2.797590 -1.812902 1.964131 0
M  V30 33 H 7.285028 -6.744707 4.973001 0
M  V30 34 H 8.340640 -5.389548 4.528565 0
M  V30 35 H 7.337092 -5.361030 6.091903 0
M  V30 36 H 4.221588 -3.679533 3.196794 0
M  V30 37 H 6.094376 -1.369186 2.834824 0
M  V30 38 H 5.078335 0.602526 1.695623 0
M  V30 39 H 3.211900 1.710779 0.638115 0
M  V30 40 H 1.865881 1.575437 -1.867200 0
M  V30 41 H 1.247949 3.756876 -2.959739 0
M  V30 42 H -0.484794 5.133653 -2.022600 0
M  V30 43 H -1.659641 4.412984 0.008752 0
M  V30 44 H -1.124368 2.296477 1.146409 0
M  V30 45 H -0.956568 -0.395541 -2.033469 0
M  V30 46 H -3.183426 -0.614101 -2.917952 0
M  V30 47 H -6.045912 0.711705 -0.465501 0
M  V30 48 H -6.616224 -0.699859 0.223548 0
M  V30 49 H -5.082824 -0.667105 -3.658847 0
M  V30 50 H -6.780901 -0.407430 -3.154479 0
M  V30 51 H -7.112329 -2.723789 -3.339648 0
M  V30 52 H -5.339599 -2.999305 -3.580995 0
M  V30 53 H -5.111666 -3.180966 -1.157323 0
M  V30 54 H -6.869729 -2.673039 -0.951136 0
M  V30 55 H -4.734671 -1.105534 1.042623 0
M  V30 56 H -2.423364 -0.877400 1.941995 0
M  V30 57 H 2.613886 -2.805120 2.316009 0
M  V30 END ATOM
M  V30 BEGIN BOND
M  V30 1 1 1 2
M  V30 2 1 2 3
M  V30 3 2 3 4
M  V30 4 1 3 5
M  V30 5 2 5 6
M  V30 6 1 6 7
M  V30 7 1 7 8
M  V30 8 2 8 9
M  V30 9 1 9 10
M  V30 10 1 10 11
M  V30 11 1 11 12
M  V30 12 2 12 13
M  V30 13 1 13 14
M  V30 14 2 14 15
M  V30 15 1 15 16
M  V30 16 2 16 17
M  V30 17 2 11 18
M  V30 18 1 18 19
M  V30 19 2 19 20
M  V30 20 1 20 21
M  V30 21 2 21 22
M  V30 22 1 22 23
M  V30 23 1 23 24
M  V30 24 1 23 25
M  V30 25 1 25 26
M  V30 26 1 26 27
M  V30 27 1 22 28
M  V30 28 2 28 29
M  V30 29 1 18 30
M  V30 30 2 30 31
M  V30 31 1 31 32
M  V30 32 2 32 7
M  V30 33 1 31 10
M  V30 34 1 17 12
M  V30 35 1 29 19
M  V30 36 1 27 23
M  V30 37 1 1 33
M  V30 38 1 1 34
M  V30 39 1 1 35
M  V30 40 1 5 36
M  V30 41 1 6 37
M  V30 42 1 8 38
M  V30 43 1 9 39
M  V30 44 1 13 40
M  V30 45 1 14 41
M  V30 46 1 15 42
M  V30 47 1 16 43
M  V30 48 1 17 44
M  V30 49 1 20 45
M  V30 50 1 21 46
M  V30 51 1 24 47
M  V30 52 1 24 48
M  V30 53 1 25 49
M  V30 54 1 25 50
M  V30 55 1 26 51
M  V30 56 1 26 52
M  V30 57 1 27 53
M  V30 58 1 27 54
M  V30 59 1 28 55
M  V30 60 1 29 56
M  V30 61 1 32 57
M  V30 END BOND
M  V30 END CTAB
M  END
>  <Dataset>  (349) 
ChEMBL_Kinases

>  <Ligand_Instance>  (349) 
nan

>  <PDB_ID>  (349) 
nan

>  <Standardized_SMILES>  (349) 
COC(=O)/C=C/c1ccn2c(-c3ccccc3)c(-c3ccc(C4(N)CCC4)cc3)nc2c1

>  <Name>  (349) 
nan

>  <Pocket>  (349) 
nan

>  <ATP_Site>  (349) 
nan

>  <Peripheral>  (349) 
nan

>  <Num_H_Atoms_ProtBoundConf>  (349) 
nan

>  <Num_Resolved_Atoms>  (349) 
nan

>  <Num_Not_Resolved_Atoms>  (349) 
nan

$$$$
CHEMBL4461076
     RDKit          3D

  0  0  0  0  0  0  0  0  0  0999 V3000
M  V30 BEGIN CTAB
M  V30 COUNTS 55 58 0 0 0
M  V30 BEGIN ATOM
M  V30 1 C 1.617462 1.252399 4.577850 0
M  V30 2 C 1.770744 0.381116 3.335593 0
M  V30 3 N 3.108481 0.576888 2.841899 0
M  V30 4 N 4.124351 -0.152093 3.350819 0
M  V30 5 C 5.278660 0.210496 2.775416 0
M  V30 6 C 6.569371 -0.432615 3.142799 0
M  V30 7 C 5.047884 1.205374 1.856725 0
M  V30 8 C 3.694357 1.376834 1.951699 0
M  V30 9 N 3.023938 2.307546 1.121915 0
M  V30 10 C 1.720874 2.784266 0.849972 0
M  V30 11 N 1.066445 3.924860 1.108831 0
M  V30 12 C -0.216784 4.095989 0.749895 0
M  V30 13 C -0.925920 3.107820 0.098126 0
M  V30 14 C -0.270231 1.941087 -0.169252 0
M  V30 15 C -0.912455 0.758926 -0.785580 0
M  V30 16 C -0.087040 -0.372252 -0.899198 0
M  V30 17 C -0.602073 -1.557829 -1.392122 0
M  V30 18 N -1.880449 -1.696855 -1.781510 0
M  V30 19 C -2.351561 -2.970501 -2.221472 0 CFG=2
M  V30 20 C -3.059909 -3.062278 -3.501656 0
M  V30 21 O -2.268508 -2.631767 -4.591495 0
M  V30 22 C -3.213639 -3.598571 -1.147111 0
M  V30 23 C -4.588684 -3.607905 -1.045559 0
M  V30 24 C -5.204316 -4.211574 0.037362 0
M  V30 25 C -4.488365 -4.814205 1.036034 0
M  V30 26 Cl -5.314226 -5.558415 2.380449 0
M  V30 27 C -3.110283 -4.836917 0.989836 0
M  V30 28 F -2.407388 -5.427342 1.972971 0
M  V30 29 C -2.534195 -4.230937 -0.094338 0
M  V30 30 C -2.629099 -0.591596 -1.659516 0
M  V30 31 O -3.846094 -0.642903 -2.009214 0
M  V30 32 C -2.211966 0.626359 -1.183095 0
M  V30 33 N 1.008387 1.845307 0.217184 0
M  V30 34 H 1.756645 2.316991 4.321072 0
M  V30 35 H 0.628129 1.010659 5.025155 0
M  V30 36 H 2.405394 0.869145 5.278897 0
M  V30 37 H 1.624854 -0.679670 3.670283 0
M  V30 38 H 0.972198 0.576210 2.602903 0
M  V30 39 H 7.027594 0.008768 4.055934 0
M  V30 40 H 7.284233 -0.465953 2.300882 0
M  V30 41 H 6.389201 -1.507479 3.412461 0
M  V30 42 H 5.765175 1.700287 1.238446 0
M  V30 43 H 3.466397 2.933353 0.427123 0
M  V30 44 H -0.654771 5.043104 0.996145 0
M  V30 45 H -1.962877 3.229925 -0.201023 0
M  V30 46 H 0.962790 -0.387638 -0.622701 0
M  V30 47 H 0.039003 -2.424289 -1.473463 0
M  V30 48 H -1.465712 -3.668445 -2.313045 0
M  V30 49 H -4.075387 -2.661917 -3.561454 0
M  V30 50 H -3.181446 -4.174297 -3.711252 0
M  V30 51 H -1.315104 -2.600579 -4.252019 0
M  V30 52 H -5.075019 -3.123249 -1.858581 0
M  V30 53 H -6.289208 -4.169666 0.028348 0
M  V30 54 H -1.440053 -4.275275 -0.082163 0
M  V30 55 H -2.824722 1.510365 -1.088957 0
M  V30 END ATOM
M  V30 BEGIN BOND
M  V30 1 1 1 2
M  V30 2 1 2 3
M  V30 3 1 3 4
M  V30 4 2 4 5
M  V30 5 1 5 6
M  V30 6 1 5 7
M  V30 7 2 7 8
M  V30 8 1 8 9
M  V30 9 1 9 10
M  V30 10 2 10 11
M  V30 11 1 11 12
M  V30 12 2 12 13
M  V30 13 1 13 14
M  V30 14 1 14 15
M  V30 15 1 15 16
M  V30 16 2 16 17
M  V30 17 1 17 18
M  V30 18 1 18 19
M  V30 19 1 19 20
M  V30 20 1 20 21
M  V30 21 1 19 22
M  V30 22 2 22 23
M  V30 23 1 23 24
M  V30 24 2 24 25
M  V30 25 1 25 26
M  V30 26 1 25 27
M  V30 27 1 27 28
M  V30 28 2 27 29
M  V30 29 1 18 30
M  V30 30 2 30 31
M  V30 31 1 30 32
M  V30 32 2 14 33
M  V30 33 1 8 3
M  V30 34 1 33 10
M  V30 35 2 32 15
M  V30 36 1 29 22
M  V30 37 1 1 34
M  V30 38 1 1 35
M  V30 39 1 1 36
M  V30 40 1 2 37
M  V30 41 1 2 38
M  V30 42 1 6 39
M  V30 43 1 6 40
M  V30 44 1 6 41
M  V30 45 1 7 42
M  V30 46 1 9 43
M  V30 47 1 12 44
M  V30 48 1 13 45
M  V30 49 1 16 46
M  V30 50 1 17 47
M  V30 51 1 19 48 CFG=3
M  V30 52 1 20 49
M  V30 53 1 20 50
M  V30 54 1 21 51
M  V30 55 1 23 52
M  V30 56 1 24 53
M  V30 57 1 29 54
M  V30 58 1 32 55
M  V30 END BOND
M  V30 END CTAB
M  END
>  <Dataset>  (350) 
ChEMBL_Kinases

>  <Ligand_Instance>  (350) 
nan

>  <PDB_ID>  (350) 
nan

>  <Standardized_SMILES>  (350) 
CCn1nc(C)cc1Nc1nccc(-c2ccn([C@H](CO)c3ccc(Cl)c(F)c3)c(=O)c2)n1

>  <Name>  (350) 
nan

>  <Pocket>  (350) 
nan

>  <ATP_Site>  (350) 
nan

>  <Peripheral>  (350) 
nan

>  <Num_H_Atoms_ProtBoundConf>  (350) 
nan

>  <Num_Resolved_Atoms>  (350) 
nan

>  <Num_Not_Resolved_Atoms>  (350) 
nan

$$$$
CHEMBL3703116
     RDKit          3D

  0  0  0  0  0  0  0  0  0  0999 V3000
M  V30 BEGIN CTAB
M  V30 COUNTS 55 59 0 0 0
M  V30 BEGIN ATOM
M  V30 1 N 6.199335 -1.287708 7.813253 0
M  V30 2 C 5.075468 -1.852623 7.151613 0
M  V30 3 O 4.580899 -2.922384 7.573584 0
M  V30 4 C 4.497751 -1.176200 5.971459 0
M  V30 5 C 3.465648 -1.673190 5.344185 0
M  V30 6 C 2.835285 -1.077928 4.180766 0
M  V30 7 C 3.255831 0.092589 3.593409 0
M  V30 8 C 2.649261 0.658267 2.481300 0
M  V30 9 N 1.591721 0.000550 1.971351 0
M  V30 10 C 0.847512 0.362356 0.896748 0
M  V30 11 C 0.919066 1.496516 -0.015763 0
M  V30 12 C 0.056960 2.537541 -0.238283 0
M  V30 13 C 0.365462 3.495785 -1.181222 0
M  V30 14 C 1.529245 3.421322 -1.903263 0
M  V30 15 C 2.418692 2.394032 -1.709631 0
M  V30 16 C 2.106013 1.423180 -0.754308 0
M  V30 17 C -0.133665 -0.593336 0.725009 0
M  V30 18 C -1.238322 -0.822548 -0.201347 0
M  V30 19 C -2.394122 -0.091457 -0.385534 0
M  V30 20 C -3.327347 -0.470594 -1.325717 0
M  V30 21 C -3.130969 -1.604584 -2.118959 0
M  V30 22 C -4.235053 -1.842701 -3.061091 0
M  V30 23 N -4.842726 -0.633439 -3.597350 0
M  V30 24 C -5.348280 -2.735438 -2.521933 0
M  V30 25 C -4.672342 -3.904369 -3.240534 0
M  V30 26 C -4.021248 -2.852815 -4.134654 0
M  V30 27 C -1.980971 -2.348804 -1.949456 0
M  V30 28 C -1.053333 -1.954859 -1.000733 0
M  V30 29 N 0.051345 -1.511625 1.711652 0
M  V30 30 C 1.102904 -1.149768 2.471448 0
M  V30 31 C 1.749564 -1.669173 3.584223 0
M  V30 32 H 5.978410 -0.575316 8.542791 0
M  V30 33 H 6.060434 -0.560520 8.563451 0
M  V30 34 H 4.936682 -0.262799 5.629305 0
M  V30 35 H 3.071955 -2.594676 5.740793 0
M  V30 36 H 4.102540 0.620904 4.000436 0
M  V30 37 H 3.012971 1.592305 2.040698 0
M  V30 38 H -0.811177 2.478304 0.391991 0
M  V30 39 H -0.404506 4.263296 -1.255263 0
M  V30 40 H 1.706716 4.216104 -2.632196 0
M  V30 41 H 3.320726 2.380735 -2.303852 0
M  V30 42 H 2.892374 0.659992 -0.694286 0
M  V30 43 H -2.465374 0.765400 0.268559 0
M  V30 44 H -4.170027 0.214023 -1.335449 0
M  V30 45 H -5.446223 -0.144911 -2.892168 0
M  V30 46 H -5.517931 -0.954198 -4.338936 0
M  V30 47 H -5.285301 -2.943008 -1.431670 0
M  V30 48 H -6.358879 -2.522818 -2.878783 0
M  V30 49 H -5.330879 -4.559125 -3.817958 0
M  V30 50 H -3.958467 -4.481613 -2.625709 0
M  V30 51 H -4.599113 -2.659330 -5.074494 0
M  V30 52 H -2.992426 -3.162359 -4.370754 0
M  V30 53 H -1.893935 -3.199731 -2.584862 0
M  V30 54 H -0.187968 -2.621532 -0.960292 0
M  V30 55 H 1.364899 -2.596658 3.995672 0
M  V30 END ATOM
M  V30 BEGIN BOND
M  V30 1 1 1 2
M  V30 2 2 2 3
M  V30 3 1 2 4
M  V30 4 2 4 5
M  V30 5 1 5 6
M  V30 6 1 6 7
M  V30 7 2 7 8
M  V30 8 1 8 9
M  V30 9 1 9 10
M  V30 10 1 10 11
M  V30 11 2 11 12
M  V30 12 1 12 13
M  V30 13 2 13 14
M  V30 14 1 14 15
M  V30 15 2 15 16
M  V30 16 2 10 17
M  V30 17 1 17 18
M  V30 18 2 18 19
M  V30 19 1 19 20
M  V30 20 2 20 21
M  V30 21 1 21 22
M  V30 22 1 22 23
M  V30 23 1 22 24
M  V30 24 1 24 25
M  V30 25 1 25 26
M  V30 26 1 21 27
M  V30 27 2 27 28
M  V30 28 1 17 29
M  V30 29 2 29 30
M  V30 30 1 30 31
M  V30 31 2 31 6
M  V30 32 1 30 9
M  V30 33 1 16 11
M  V30 34 1 28 18
M  V30 35 1 26 22
M  V30 36 1 1 32
M  V30 37 1 1 33
M  V30 38 1 4 34
M  V30 39 1 5 35
M  V30 40 1 7 36
M  V30 41 1 8 37
M  V30 42 1 12 38
M  V30 43 1 13 39
M  V30 44 1 14 40
M  V30 45 1 15 41
M  V30 46 1 16 42
M  V30 47 1 19 43
M  V30 48 1 20 44
M  V30 49 1 23 45
M  V30 50 1 23 46
M  V30 51 1 24 47
M  V30 52 1 24 48
M  V30 53 1 25 49
M  V30 54 1 25 50
M  V30 55 1 26 51
M  V30 56 1 26 52
M  V30 57 1 27 53
M  V30 58 1 28 54
M  V30 59 1 31 55
M  V30 END BOND
M  V30 END CTAB
M  END
>  <Dataset>  (351) 
ChEMBL_Kinases

>  <Ligand_Instance>  (351) 
nan

>  <PDB_ID>  (351) 
nan

>  <Standardized_SMILES>  (351) 
NC(=O)/C=C/c1ccn2c(-c3ccccc3)c(-c3ccc(C4(N)CCC4)cc3)nc2c1

>  <Name>  (351) 
nan

>  <Pocket>  (351) 
nan

>  <ATP_Site>  (351) 
nan

>  <Peripheral>  (351) 
nan

>  <Num_H_Atoms_ProtBoundConf>  (351) 
nan

>  <Num_Resolved_Atoms>  (351) 
nan

>  <Num_Not_Resolved_Atoms>  (351) 
nan

$$$$
CHEMBL4460988
     RDKit          3D

  0  0  0  0  0  0  0  0  0  0999 V3000
M  V30 BEGIN CTAB
M  V30 COUNTS 55 58 0 0 0
M  V30 BEGIN ATOM
M  V30 1 C 3.434215 1.488889 5.757553 0
M  V30 2 C 2.984973 0.282925 4.980163 0
M  V30 3 C 3.389316 0.316067 3.549979 0
M  V30 4 N 4.369176 -0.331974 2.852311 0
M  V30 5 N 4.242765 0.079719 1.598771 0
M  V30 6 C 5.177873 -0.472631 0.647765 0
M  V30 7 C 3.248679 0.963809 1.383969 0
M  V30 8 C 2.704361 1.111729 2.644229 0
M  V30 9 N 1.582584 1.982160 2.902449 0
M  V30 10 C 0.940093 2.687913 1.818615 0
M  V30 11 N 0.788565 3.954545 1.409279 0
M  V30 12 C 0.099073 4.241643 0.295084 0
M  V30 13 C -0.471404 3.245979 -0.459904 0
M  V30 14 C -0.334025 1.944328 -0.068416 0
M  V30 15 C -0.874555 0.756595 -0.776862 0
M  V30 16 C -0.598464 -0.469706 -0.215490 0
M  V30 17 C -1.100327 -1.624826 -0.839900 0
M  V30 18 N -1.843812 -1.550884 -1.973067 0
M  V30 19 C -2.216623 -2.871888 -2.333875 0 CFG=2
M  V30 20 C -3.049226 -3.090480 -3.526225 0
M  V30 21 O -2.515218 -2.657104 -4.735120 0
M  V30 22 C -2.896911 -3.550440 -1.164005 0
M  V30 23 C -4.210370 -3.186227 -0.837268 0
M  V30 24 C -4.797791 -3.803894 0.249229 0
M  V30 25 C -4.169489 -4.754677 1.028825 0
M  V30 26 Cl -4.961802 -5.485207 2.388791 0
M  V30 27 C -2.867130 -5.127934 0.718573 0
M  V30 28 F -2.172877 -6.056705 1.432266 0
M  V30 29 C -2.320828 -4.502309 -0.354145 0
M  V30 30 C -2.094507 -0.338297 -2.495226 0
M  V30 31 O -2.780490 -0.378010 -3.528658 0
M  V30 32 C -1.626861 0.823441 -1.923870 0
M  V30 33 N 0.368094 1.744198 1.054380 0
M  V30 34 H 2.565474 2.210521 5.833275 0
M  V30 35 H 3.644674 1.181865 6.821520 0
M  V30 36 H 4.264067 2.032841 5.288219 0
M  V30 37 H 1.861043 0.190581 4.995091 0
M  V30 38 H 3.387022 -0.642258 5.444199 0
M  V30 39 H 6.204285 -0.459102 1.025657 0
M  V30 40 H 5.028735 -0.015781 -0.344692 0
M  V30 41 H 4.939679 -1.566080 0.502321 0
M  V30 42 H 3.012126 1.395687 0.427635 0
M  V30 43 H 1.155872 2.173929 3.829558 0
M  V30 44 H 0.022956 5.277539 0.035871 0
M  V30 45 H -1.031844 3.437408 -1.362901 0
M  V30 46 H 0.002683 -0.526937 0.699969 0
M  V30 47 H -0.792117 -2.518102 -0.270362 0
M  V30 48 H -1.254973 -3.444614 -2.512956 0
M  V30 49 H -4.117039 -2.819402 -3.412507 0
M  V30 50 H -3.089267 -4.220604 -3.660917 0
M  V30 51 H -1.600645 -3.015322 -4.813051 0
M  V30 52 H -4.720825 -2.438377 -1.440130 0
M  V30 53 H -5.831700 -3.518770 0.510378 0
M  V30 54 H -1.290080 -4.808810 -0.605297 0
M  V30 55 H -1.842098 1.782105 -2.363830 0
M  V30 END ATOM
M  V30 BEGIN BOND
M  V30 1 1 1 2
M  V30 2 1 2 3
M  V30 3 2 3 4
M  V30 4 1 4 5
M  V30 5 1 5 6
M  V30 6 1 5 7
M  V30 7 2 7 8
M  V30 8 1 8 9
M  V30 9 1 9 10
M  V30 10 2 10 11
M  V30 11 1 11 12
M  V30 12 2 12 13
M  V30 13 1 13 14
M  V30 14 1 14 15
M  V30 15 1 15 16
M  V30 16 2 16 17
M  V30 17 1 17 18
M  V30 18 1 18 19
M  V30 19 1 19 20
M  V30 20 1 20 21
M  V30 21 1 19 22
M  V30 22 2 22 23
M  V30 23 1 23 24
M  V30 24 2 24 25
M  V30 25 1 25 26
M  V30 26 1 25 27
M  V30 27 1 27 28
M  V30 28 2 27 29
M  V30 29 1 18 30
M  V30 30 2 30 31
M  V30 31 1 30 32
M  V30 32 2 14 33
M  V30 33 1 8 3
M  V30 34 1 33 10
M  V30 35 2 32 15
M  V30 36 1 29 22
M  V30 37 1 1 34
M  V30 38 1 1 35
M  V30 39 1 1 36
M  V30 40 1 2 37
M  V30 41 1 2 38
M  V30 42 1 6 39
M  V30 43 1 6 40
M  V30 44 1 6 41
M  V30 45 1 7 42
M  V30 46 1 9 43
M  V30 47 1 12 44
M  V30 48 1 13 45
M  V30 49 1 16 46
M  V30 50 1 17 47
M  V30 51 1 19 48 CFG=3
M  V30 52 1 20 49
M  V30 53 1 20 50
M  V30 54 1 21 51
M  V30 55 1 23 52
M  V30 56 1 24 53
M  V30 57 1 29 54
M  V30 58 1 32 55
M  V30 END BOND
M  V30 END CTAB
M  END
>  <Dataset>  (352) 
ChEMBL_Kinases

>  <Ligand_Instance>  (352) 
nan

>  <PDB_ID>  (352) 
nan

>  <Standardized_SMILES>  (352) 
CCc1nn(C)cc1Nc1nccc(-c2ccn([C@H](CO)c3ccc(Cl)c(F)c3)c(=O)c2)n1

>  <Name>  (352) 
nan

>  <Pocket>  (352) 
nan

>  <ATP_Site>  (352) 
nan

>  <Peripheral>  (352) 
nan

>  <Num_H_Atoms_ProtBoundConf>  (352) 
nan

>  <Num_Resolved_Atoms>  (352) 
nan

>  <Num_Not_Resolved_Atoms>  (352) 
nan

$$$$
CHEMBL2204095
     RDKit          3D

  0  0  0  0  0  0  0  0  0  0999 V3000
M  V30 BEGIN CTAB
M  V30 COUNTS 57 60 0 0 0
M  V30 BEGIN ATOM
M  V30 1 C 3.864561 -1.492737 0.354787 0
M  V30 2 O 2.534096 -1.480951 0.826332 0
M  V30 3 C 1.487162 -1.985877 0.081142 0
M  V30 4 O 2.155375 -2.337743 -0.907739 0
M  V30 5 C 0.073764 -2.115173 0.277448 0
M  V30 6 C -0.687195 -1.724268 1.356663 0
M  V30 7 C 0.027068 -1.038019 2.448863 0
M  V30 8 N 0.305099 0.305393 2.193556 0
M  V30 9 C 1.020727 1.049339 3.144458 0
M  V30 10 C 1.513355 2.388601 2.707935 0
M  V30 11 N 0.732433 3.062498 1.729663 0
M  V30 12 S 0.134140 4.566585 2.263174 0
M  V30 13 C -0.938122 4.419947 3.659995 0
M  V30 14 O -0.631278 5.259950 1.175437 0
M  V30 15 O 1.284363 5.473355 2.639574 0
M  V30 16 C -0.221452 2.273720 1.019622 0
M  V30 17 C 0.321802 0.841543 0.907565 0
M  V30 18 C -2.040343 -1.915115 1.458600 0
M  V30 19 O -2.638919 -1.528607 2.472055 0
M  V30 20 C -2.666139 -2.540792 0.400763 0
M  V30 21 C -4.032602 -2.736266 0.497021 0
M  V30 22 C -4.690356 -3.354327 -0.534009 0
M  V30 23 C -3.957111 -3.755618 -1.626691 0
M  V30 24 F -4.656904 -4.364869 -2.625129 0
M  V30 25 C -2.600375 -3.544429 -1.687459 0
M  V30 26 C -1.895006 -2.927360 -0.675475 0
M  V30 27 N -0.567319 -2.722346 -0.737646 0
M  V30 28 C 0.048454 -3.200864 -1.950735 0
M  V30 29 C 0.739348 -4.406899 -2.069371 0
M  V30 30 C 1.287933 -4.763099 -3.286339 0
M  V30 31 C 1.179061 -3.964724 -4.403853 0
M  V30 32 C 0.509166 -2.783405 -4.311220 0
M  V30 33 C -0.039487 -2.424882 -3.098294 0
M  V30 34 H 4.461165 -0.786861 0.995377 0
M  V30 35 H 4.279138 -2.496270 0.581709 0
M  V30 36 H 3.967536 -1.197241 -0.702128 0
M  V30 37 H 0.955216 -1.597790 2.736879 0
M  V30 38 H -0.588019 -1.076005 3.398425 0
M  V30 39 H 1.899945 0.515194 3.586969 0
M  V30 40 H 0.333448 1.206095 4.031775 0
M  V30 41 H 1.531250 3.057079 3.618502 0
M  V30 42 H 2.564348 2.355339 2.350014 0
M  V30 43 H -0.850880 5.335192 4.285329 0
M  V30 44 H -2.006200 4.357711 3.361771 0
M  V30 45 H -0.687066 3.543952 4.289215 0
M  V30 46 H -1.174462 2.187834 1.583332 0
M  V30 47 H -0.420042 2.688596 0.002785 0
M  V30 48 H -0.274678 0.316834 0.144793 0
M  V30 49 H 1.346759 0.976981 0.452515 0
M  V30 50 H -4.556338 -2.394354 1.389992 0
M  V30 51 H -5.758455 -3.477975 -0.397837 0
M  V30 52 H -2.057666 -3.880563 -2.576191 0
M  V30 53 H 0.799392 -5.004212 -1.160505 0
M  V30 54 H 1.820895 -5.706779 -3.356414 0
M  V30 55 H 1.643928 -4.331698 -5.314131 0
M  V30 56 H 0.434698 -2.171880 -5.198368 0
M  V30 57 H -0.557201 -1.465492 -3.113412 0
M  V30 END ATOM
M  V30 BEGIN BOND
M  V30 1 1 1 2
M  V30 2 1 2 3
M  V30 3 2 3 4
M  V30 4 1 3 5
M  V30 5 2 5 6
M  V30 6 1 6 7
M  V30 7 1 7 8
M  V30 8 1 8 9
M  V30 9 1 9 10
M  V30 10 1 10 11
M  V30 11 1 11 12
M  V30 12 1 12 13
M  V30 13 2 12 14
M  V30 14 2 12 15
M  V30 15 1 11 16
M  V30 16 1 16 17
M  V30 17 1 6 18
M  V30 18 2 18 19
M  V30 19 1 18 20
M  V30 20 2 20 21
M  V30 21 1 21 22
M  V30 22 2 22 23
M  V30 23 1 23 24
M  V30 24 1 23 25
M  V30 25 2 25 26
M  V30 26 1 26 27
M  V30 27 1 27 28
M  V30 28 2 28 29
M  V30 29 1 29 30
M  V30 30 2 30 31
M  V30 31 1 31 32
M  V30 32 2 32 33
M  V30 33 1 27 5
M  V30 34 1 33 28
M  V30 35 1 17 8
M  V30 36 1 26 20
M  V30 37 1 1 34
M  V30 38 1 1 35
M  V30 39 1 1 36
M  V30 40 1 7 37
M  V30 41 1 7 38
M  V30 42 1 9 39
M  V30 43 1 9 40
M  V30 44 1 10 41
M  V30 45 1 10 42
M  V30 46 1 13 43
M  V30 47 1 13 44
M  V30 48 1 13 45
M  V30 49 1 16 46
M  V30 50 1 16 47
M  V30 51 1 17 48
M  V30 52 1 17 49
M  V30 53 1 21 50
M  V30 54 1 22 51
M  V30 55 1 25 52
M  V30 56 1 29 53
M  V30 57 1 30 54
M  V30 58 1 31 55
M  V30 59 1 32 56
M  V30 60 1 33 57
M  V30 END BOND
M  V30 END CTAB
M  END
>  <Dataset>  (353) 
ChEMBL_Kinases

>  <Ligand_Instance>  (353) 
nan

>  <PDB_ID>  (353) 
nan

>  <Standardized_SMILES>  (353) 
COC(=O)c1c(CN2CCN(S(C)(=O)=O)CC2)c(=O)c2ccc(F)cc2n1-c1ccccc1

>  <Name>  (353) 
nan

>  <Pocket>  (353) 
nan

>  <ATP_Site>  (353) 
nan

>  <Peripheral>  (353) 
nan

>  <Num_H_Atoms_ProtBoundConf>  (353) 
nan

>  <Num_Resolved_Atoms>  (353) 
nan

>  <Num_Not_Resolved_Atoms>  (353) 
nan

$$$$
CHEMBL3703105
     RDKit          3D

  0  0  0  0  0  0  0  0  0  0999 V3000
M  V30 BEGIN CTAB
M  V30 COUNTS 56 61 0 0 0
M  V30 BEGIN ATOM
M  V30 1 N -0.939817 -4.015708 -4.802478 0
M  V30 2 C -0.234537 -4.532745 -3.652473 0
M  V30 3 C -0.100256 -3.565867 -2.529785 0
M  V30 4 C 0.298989 -2.308061 -2.946579 0
M  V30 5 C 0.464768 -1.306026 -2.007830 0
M  V30 6 C 0.251321 -1.490719 -0.655194 0
M  V30 7 C 0.427629 -0.423688 0.332052 0
M  V30 8 N 1.509602 0.311905 0.677559 0
M  V30 9 C 1.176138 1.184366 1.649761 0
M  V30 10 C 1.906193 2.148105 2.341643 0
M  V30 11 C 1.331029 2.928211 3.307435 0
M  V30 12 C 2.041972 3.952786 4.064264 0
M  V30 13 C 1.684532 4.251175 5.367223 0
M  V30 14 C 2.397538 5.228036 6.021286 0
M  V30 15 C 3.451073 5.939402 5.472952 0
M  V30 16 N 3.772377 5.618119 4.192024 0
M  V30 17 C 3.095591 4.668792 3.525521 0
M  V30 18 C -0.009307 2.735650 3.584815 0
M  V30 19 C -0.725692 1.782400 2.898420 0
M  V30 20 N -0.145520 1.020779 1.948983 0
M  V30 21 C -0.620663 0.029955 1.141914 0
M  V30 22 C -1.987619 -0.479681 1.118974 0
M  V30 23 C -2.345464 -1.015573 2.361024 0
M  V30 24 C -3.614196 -1.554183 2.539135 0
M  V30 25 C -4.481974 -1.540835 1.476071 0
M  V30 26 C -4.143313 -1.010363 0.228398 0
M  V30 27 C -2.881093 -0.479929 0.068157 0
M  V30 28 C -0.147427 -2.762859 -0.275581 0
M  V30 29 C -0.322135 -3.785308 -1.186973 0
M  V30 30 C -0.665300 -5.920486 -3.295658 0
M  V30 31 C 0.359745 -6.415010 -4.324767 0
M  V30 32 C 1.118251 -5.125275 -4.041465 0
M  V30 33 H -1.899214 -4.380259 -4.907546 0
M  V30 34 H -0.337251 -4.075935 -5.637424 0
M  V30 35 H 0.503050 -2.014461 -3.970321 0
M  V30 36 H 0.781217 -0.291803 -2.297795 0
M  V30 37 H 2.972044 2.290254 2.110019 0
M  V30 38 H 0.864207 3.734274 5.870872 0
M  V30 39 H 2.115529 5.457575 7.036872 0
M  V30 40 H 3.971742 6.697705 6.043867 0
M  V30 41 H 3.420347 4.488294 2.528322 0
M  V30 42 H -0.499930 3.344345 4.353109 0
M  V30 43 H -1.783207 1.671520 3.157391 0
M  V30 44 H -1.722281 -1.063365 3.243366 0
M  V30 45 H -3.937853 -1.984812 3.494682 0
M  V30 46 H -5.490677 -1.952713 1.567314 0
M  V30 47 H -4.817205 -0.996645 -0.607464 0
M  V30 48 H -2.494751 -0.042676 -0.833462 0
M  V30 49 H -0.333873 -2.982937 0.768557 0
M  V30 50 H -0.631047 -4.792495 -0.944969 0
M  V30 51 H -1.683037 -6.174958 -3.709929 0
M  V30 52 H -0.440498 -6.302696 -2.299262 0
M  V30 53 H -0.035052 -6.362245 -5.370070 0
M  V30 54 H 0.879301 -7.340897 -4.053923 0
M  V30 55 H 1.549932 -4.615753 -4.904212 0
M  V30 56 H 1.749571 -5.182545 -3.113976 0
M  V30 END ATOM
M  V30 BEGIN BOND
M  V30 1 1 1 2
M  V30 2 1 2 3
M  V30 3 2 3 4
M  V30 4 1 4 5
M  V30 5 2 5 6
M  V30 6 1 6 7
M  V30 7 1 7 8
M  V30 8 2 8 9
M  V30 9 1 9 10
M  V30 10 2 10 11
M  V30 11 1 11 12
M  V30 12 2 12 13
M  V30 13 1 13 14
M  V30 14 2 14 15
M  V30 15 1 15 16
M  V30 16 2 16 17
M  V30 17 1 11 18
M  V30 18 2 18 19
M  V30 19 1 19 20
M  V30 20 1 20 21
M  V30 21 1 21 22
M  V30 22 2 22 23
M  V30 23 1 23 24
M  V30 24 2 24 25
M  V30 25 1 25 26
M  V30 26 2 26 27
M  V30 27 1 6 28
M  V30 28 2 28 29
M  V30 29 1 2 30
M  V30 30 1 30 31
M  V30 31 1 31 32
M  V30 32 1 32 2
M  V30 33 1 29 3
M  V30 34 2 21 7
M  V30 35 1 27 22
M  V30 36 1 20 9
M  V30 37 1 17 12
M  V30 38 1 1 33
M  V30 39 1 1 34
M  V30 40 1 4 35
M  V30 41 1 5 36
M  V30 42 1 10 37
M  V30 43 1 13 38
M  V30 44 1 14 39
M  V30 45 1 15 40
M  V30 46 1 17 41
M  V30 47 1 18 42
M  V30 48 1 19 43
M  V30 49 1 23 44
M  V30 50 1 24 45
M  V30 51 1 25 46
M  V30 52 1 26 47
M  V30 53 1 27 48
M  V30 54 1 28 49
M  V30 55 1 29 50
M  V30 56 1 30 51
M  V30 57 1 30 52
M  V30 58 1 31 53
M  V30 59 1 31 54
M  V30 60 1 32 55
M  V30 61 1 32 56
M  V30 END BOND
M  V30 END CTAB
M  END
>  <Dataset>  (354) 
ChEMBL_Kinases

>  <Ligand_Instance>  (354) 
nan

>  <PDB_ID>  (354) 
nan

>  <Standardized_SMILES>  (354) 
NC1(c2ccc(-c3nc4cc(-c5cccnc5)ccn4c3-c3ccccc3)cc2)CCC1

>  <Name>  (354) 
nan

>  <Pocket>  (354) 
nan

>  <ATP_Site>  (354) 
nan

>  <Peripheral>  (354) 
nan

>  <Num_H_Atoms_ProtBoundConf>  (354) 
nan

>  <Num_Resolved_Atoms>  (354) 
nan

>  <Num_Not_Resolved_Atoms>  (354) 
nan

$$$$
CHEMBL2386750
     RDKit          3D

  0  0  0  0  0  0  0  0  0  0999 V3000
M  V30 BEGIN CTAB
M  V30 COUNTS 38 41 0 0 0
M  V30 BEGIN ATOM
M  V30 1 C 3.154207 -4.785987 2.894006 0
M  V30 2 O 3.006213 -4.265441 1.573968 0
M  V30 3 C 1.797480 -3.936721 1.013851 0
M  V30 4 N 0.895163 -4.808479 1.313624 0
M  V30 5 C 1.418985 -2.794773 0.170787 0
M  V30 6 N 1.189290 -2.731435 -1.111194 0
M  V30 7 C 0.862339 -1.568539 -1.623184 0
M  V30 8 C 0.598417 -1.388674 -2.965643 0
M  V30 9 C 0.257674 -0.152975 -3.471014 0
M  V30 10 C 0.152846 0.989629 -2.693429 0
M  V30 11 N -0.172317 2.218145 -3.116691 0
M  V30 12 C -0.235202 3.248246 -2.229886 0
M  V30 13 N 0.023176 3.081224 -0.904360 0
M  V30 14 C 0.358036 1.841034 -0.437873 0
M  V30 15 N 0.627613 1.677461 0.956705 0
M  V30 16 C -0.272415 1.358695 2.031699 0
M  V30 17 C 0.183289 1.245542 3.324115 0
M  V30 18 C -0.769000 0.936739 4.274073 0
M  V30 19 C -2.107434 0.742580 4.003218 0
M  V30 20 C -2.524850 0.866032 2.686562 0
M  V30 21 C -3.916960 0.658644 2.441971 0
M  V30 22 N -5.046260 0.510289 2.246252 0
M  V30 23 C -1.602965 1.177773 1.681228 0
M  V30 24 C 0.413256 0.819350 -1.359881 0
M  V30 25 C 0.739284 -0.379928 -0.897087 0
M  V30 26 S 1.162152 -1.009052 0.835825 0
M  V30 27 H 4.221771 -4.964940 3.092581 0
M  V30 28 H 2.826848 -3.947864 3.576178 0
M  V30 29 H 2.477094 -5.612900 3.119850 0
M  V30 30 H -0.087609 -4.726106 0.977027 0
M  V30 31 H 0.627070 -2.146485 -3.723553 0
M  V30 32 H 0.041208 0.020849 -4.540130 0
M  V30 33 H -0.505834 4.197215 -2.672093 0
M  V30 34 H 1.648150 1.820631 1.184285 0
M  V30 35 H 1.230682 1.392321 3.570789 0
M  V30 36 H -0.416414 0.844175 5.307574 0
M  V30 37 H -2.747460 0.505138 4.841715 0
M  V30 38 H -2.032802 1.247455 0.710317 0
M  V30 END ATOM
M  V30 BEGIN BOND
M  V30 1 1 1 2
M  V30 2 1 2 3
M  V30 3 2 3 4 CFG=2
M  V30 4 1 3 5
M  V30 5 2 5 6
M  V30 6 1 6 7
M  V30 7 2 7 8
M  V30 8 1 8 9
M  V30 9 2 9 10
M  V30 10 1 10 11
M  V30 11 2 11 12
M  V30 12 1 12 13
M  V30 13 2 13 14
M  V30 14 1 14 15
M  V30 15 1 15 16
M  V30 16 2 16 17
M  V30 17 1 17 18
M  V30 18 2 18 19
M  V30 19 1 19 20
M  V30 20 1 20 21
M  V30 21 3 21 22
M  V30 22 2 20 23
M  V30 23 1 14 24
M  V30 24 2 24 25
M  V30 25 1 25 26
M  V30 26 1 26 5
M  V30 27 1 25 7
M  V30 28 1 24 10
M  V30 29 1 23 16
M  V30 30 1 1 27
M  V30 31 1 1 28
M  V30 32 1 1 29
M  V30 33 1 4 30
M  V30 34 1 8 31
M  V30 35 1 9 32
M  V30 36 1 12 33
M  V30 37 1 15 34
M  V30 38 1 17 35
M  V30 39 1 18 36
M  V30 40 1 19 37
M  V30 41 1 23 38
M  V30 END BOND
M  V30 END CTAB
M  END
>  <Dataset>  (355) 
ChEMBL_Kinases

>  <Ligand_Instance>  (355) 
nan

>  <PDB_ID>  (355) 
nan

>  <Standardized_SMILES>  (355) 
COC(=N)c1nc2ccc3ncnc(Nc4cccc(C#N)c4)c3c2s1

>  <Name>  (355) 
nan

>  <Pocket>  (355) 
nan

>  <ATP_Site>  (355) 
nan

>  <Peripheral>  (355) 
nan

>  <Num_H_Atoms_ProtBoundConf>  (355) 
nan

>  <Num_Resolved_Atoms>  (355) 
nan

>  <Num_Not_Resolved_Atoms>  (355) 
nan

$$$$
CHEMBL3703106
     RDKit          3D

  0  0  0  0  0  0  0  0  0  0999 V3000
M  V30 BEGIN CTAB
M  V30 COUNTS 56 61 0 0 0
M  V30 BEGIN ATOM
M  V30 1 N -1.601708 -4.178660 -4.512974 0
M  V30 2 C -0.489222 -4.598295 -3.651739 0
M  V30 3 C -0.269437 -3.692790 -2.520704 0
M  V30 4 C -0.223093 -2.347332 -2.821105 0
M  V30 5 C -0.020499 -1.394143 -1.823021 0
M  V30 6 C 0.141091 -1.789154 -0.484900 0
M  V30 7 C 0.344832 -0.671387 0.432074 0
M  V30 8 N 1.372422 0.206151 0.553141 0
M  V30 9 C 1.108335 1.078092 1.564478 0
M  V30 10 C 1.848324 2.135813 2.055658 0
M  V30 11 C 1.374074 2.880263 3.091315 0
M  V30 12 C 2.178750 3.991552 3.586833 0
M  V30 13 C 1.823668 4.826401 4.625796 0
M  V30 14 C 2.624770 5.863915 5.053863 0
M  V30 15 C 3.840671 6.060733 4.395996 0
M  V30 16 C 4.197323 5.218936 3.349334 0
M  V30 17 N 3.363165 4.235858 2.995874 0
M  V30 18 C 0.148870 2.554175 3.631050 0
M  V30 19 C -0.540976 1.487015 3.096117 0
M  V30 20 N -0.091959 0.728718 2.064848 0
M  V30 21 C -0.610977 -0.341215 1.408280 0
M  V30 22 C -1.888860 -0.889781 1.770774 0
M  V30 23 C -2.258524 -2.112553 2.291695 0
M  V30 24 C -3.580554 -2.404221 2.555606 0
M  V30 25 C -4.599016 -1.504982 2.318516 0
M  V30 26 C -4.246072 -0.266061 1.793064 0
M  V30 27 C -2.922858 0.030801 1.527084 0
M  V30 28 C 0.092683 -3.117677 -0.208783 0
M  V30 29 C -0.107923 -4.058276 -1.198417 0
M  V30 30 C -0.542437 -6.068948 -3.379733 0
M  V30 31 C 0.267924 -6.252870 -4.670722 0
M  V30 32 C 0.758071 -4.808505 -4.501293 0
M  V30 33 H -2.247427 -3.530997 -4.016457 0
M  V30 34 H -1.214546 -3.644773 -5.320881 0
M  V30 35 H -0.343059 -1.984757 -3.848094 0
M  V30 36 H 0.005029 -0.344660 -2.133449 0
M  V30 37 H 2.816135 2.367593 1.604255 0
M  V30 38 H 0.882043 4.652911 5.115100 0
M  V30 39 H 2.348955 6.511817 5.859839 0
M  V30 40 H 4.521855 6.858800 4.681249 0
M  V30 41 H 5.125712 5.315702 2.795605 0
M  V30 42 H -0.264728 3.111083 4.447057 0
M  V30 43 H -1.519539 1.257813 3.556817 0
M  V30 44 H -1.401406 -2.752407 2.447182 0
M  V30 45 H -3.672295 -3.419158 2.963543 0
M  V30 46 H -5.597126 -1.842257 2.564120 0
M  V30 47 H -5.057818 0.418383 1.617094 0
M  V30 48 H -2.799393 1.046138 1.115208 0
M  V30 49 H 0.220779 -3.377437 0.810734 0
M  V30 50 H -0.143855 -5.093448 -0.970794 0
M  V30 51 H -1.577908 -6.459672 -3.503623 0
M  V30 52 H -0.055358 -6.454724 -2.486225 0
M  V30 53 H -0.389321 -6.281432 -5.575156 0
M  V30 54 H 1.057725 -7.009449 -4.605491 0
M  V30 55 H 0.726414 -4.212980 -5.440216 0
M  V30 56 H 1.711777 -4.739529 -3.942575 0
M  V30 END ATOM
M  V30 BEGIN BOND
M  V30 1 1 1 2
M  V30 2 1 2 3
M  V30 3 2 3 4
M  V30 4 1 4 5
M  V30 5 2 5 6
M  V30 6 1 6 7
M  V30 7 1 7 8
M  V30 8 2 8 9
M  V30 9 1 9 10
M  V30 10 2 10 11
M  V30 11 1 11 12
M  V30 12 2 12 13
M  V30 13 1 13 14
M  V30 14 2 14 15
M  V30 15 1 15 16
M  V30 16 2 16 17
M  V30 17 1 11 18
M  V30 18 2 18 19
M  V30 19 1 19 20
M  V30 20 1 20 21
M  V30 21 1 21 22
M  V30 22 2 22 23
M  V30 23 1 23 24
M  V30 24 2 24 25
M  V30 25 1 25 26
M  V30 26 2 26 27
M  V30 27 1 6 28
M  V30 28 2 28 29
M  V30 29 1 2 30
M  V30 30 1 30 31
M  V30 31 1 31 32
M  V30 32 1 32 2
M  V30 33 1 29 3
M  V30 34 2 21 7
M  V30 35 1 27 22
M  V30 36 1 20 9
M  V30 37 1 17 12
M  V30 38 1 1 33
M  V30 39 1 1 34
M  V30 40 1 4 35
M  V30 41 1 5 36
M  V30 42 1 10 37
M  V30 43 1 13 38
M  V30 44 1 14 39
M  V30 45 1 15 40
M  V30 46 1 16 41
M  V30 47 1 18 42
M  V30 48 1 19 43
M  V30 49 1 23 44
M  V30 50 1 24 45
M  V30 51 1 25 46
M  V30 52 1 26 47
M  V30 53 1 27 48
M  V30 54 1 28 49
M  V30 55 1 29 50
M  V30 56 1 30 51
M  V30 57 1 30 52
M  V30 58 1 31 53
M  V30 59 1 31 54
M  V30 60 1 32 55
M  V30 61 1 32 56
M  V30 END BOND
M  V30 END CTAB
M  END
>  <Dataset>  (356) 
ChEMBL_Kinases

>  <Ligand_Instance>  (356) 
nan

>  <PDB_ID>  (356) 
nan

>  <Standardized_SMILES>  (356) 
NC1(c2ccc(-c3nc4cc(-c5ccccn5)ccn4c3-c3ccccc3)cc2)CCC1

>  <Name>  (356) 
nan

>  <Pocket>  (356) 
nan

>  <ATP_Site>  (356) 
nan

>  <Peripheral>  (356) 
nan

>  <Num_H_Atoms_ProtBoundConf>  (356) 
nan

>  <Num_Resolved_Atoms>  (356) 
nan

>  <Num_Not_Resolved_Atoms>  (356) 
nan

$$$$
CHEMBL3703107
     RDKit          3D

  0  0  0  0  0  0  0  0  0  0999 V3000
M  V30 BEGIN CTAB
M  V30 COUNTS 54 59 0 0 0
M  V30 BEGIN ATOM
M  V30 1 N -2.441830 -5.911055 0.492892 0
M  V30 2 C -1.350271 -5.677408 -0.447060 0
M  V30 3 C -0.727434 -4.357976 -0.255072 0
M  V30 4 C -0.201797 -3.502288 -1.198236 0
M  V30 5 C 0.348185 -2.272124 -0.913149 0
M  V30 6 C 0.375800 -1.865468 0.405116 0
M  V30 7 C 0.964935 -0.538767 0.634681 0
M  V30 8 N 2.153416 0.078116 0.690564 0
M  V30 9 C 1.953903 1.401930 0.973583 0
M  V30 10 C 2.941941 2.360858 1.107076 0
M  V30 11 C 2.529585 3.644567 1.389993 0
M  V30 12 C 3.458731 4.756630 1.551878 0
M  V30 13 C 3.117061 6.063204 1.827847 0
M  V30 14 C 4.278662 6.801338 1.895824 0
M  V30 15 N 5.297751 5.952122 1.664513 0
M  V30 16 N 4.796840 4.746175 1.462783 0
M  V30 17 C 1.174043 3.880245 1.519142 0
M  V30 18 C 0.211413 2.903365 1.380602 0
M  V30 19 N 0.636073 1.634580 1.099235 0
M  V30 20 C 0.022795 0.469605 0.896253 0
M  V30 21 C -1.455497 0.411237 0.952979 0
M  V30 22 C -2.363533 0.480220 1.984466 0
M  V30 23 C -3.694057 0.397512 1.697893 0
M  V30 24 C -4.144412 0.249410 0.426621 0
M  V30 25 C -3.265595 0.173905 -0.661558 0
M  V30 26 C -1.910380 0.259663 -0.357558 0
M  V30 27 C -0.139069 -2.683258 1.411182 0
M  V30 28 C -0.683504 -3.918103 1.068313 0
M  V30 29 C -0.438806 -6.871915 -0.470106 0
M  V30 30 C -1.315814 -7.424111 -1.605409 0
M  V30 31 C -1.835469 -6.017573 -1.833637 0
M  V30 32 H -2.898805 -4.992093 0.724011 0
M  V30 33 H -2.140118 -6.443135 1.344389 0
M  V30 34 H -0.233794 -3.837272 -2.201395 0
M  V30 35 H 0.740342 -1.671630 -1.746584 0
M  V30 36 H 3.994996 2.136039 0.999949 0
M  V30 37 H 2.104744 6.451565 1.968948 0
M  V30 38 H 4.342010 7.858079 2.095642 0
M  V30 39 H 6.303378 6.242342 1.656852 0
M  V30 40 H 0.806891 4.874049 1.741175 0
M  V30 41 H -0.844732 3.110187 1.484998 0
M  V30 42 H -1.808956 0.600004 2.928916 0
M  V30 43 H -4.310279 0.464364 2.601604 0
M  V30 44 H -5.223389 0.190230 0.269568 0
M  V30 45 H -3.678176 0.056677 -1.651522 0
M  V30 46 H -1.324242 0.190964 -1.287396 0
M  V30 47 H -0.062508 -2.262997 2.391186 0
M  V30 48 H -1.041281 -4.447125 1.923087 0
M  V30 49 H -0.568628 -7.586804 0.393440 0
M  V30 50 H 0.608522 -6.710688 -0.750929 0
M  V30 51 H -2.165502 -8.057738 -1.250191 0
M  V30 52 H -0.757903 -7.861639 -2.434030 0
M  V30 53 H -2.956821 -5.957587 -1.952348 0
M  V30 54 H -1.288455 -5.493884 -2.632323 0
M  V30 END ATOM
M  V30 BEGIN BOND
M  V30 1 1 1 2
M  V30 2 1 2 3
M  V30 3 2 3 4
M  V30 4 1 4 5
M  V30 5 2 5 6
M  V30 6 1 6 7
M  V30 7 1 7 8
M  V30 8 2 8 9
M  V30 9 1 9 10
M  V30 10 2 10 11
M  V30 11 1 11 12
M  V30 12 1 12 13
M  V30 13 2 13 14
M  V30 14 1 14 15
M  V30 15 1 15 16
M  V30 16 1 11 17
M  V30 17 2 17 18
M  V30 18 1 18 19
M  V30 19 1 19 20
M  V30 20 1 20 21
M  V30 21 2 21 22
M  V30 22 1 22 23
M  V30 23 2 23 24
M  V30 24 1 24 25
M  V30 25 2 25 26
M  V30 26 1 6 27
M  V30 27 2 27 28
M  V30 28 1 2 29
M  V30 29 1 29 30
M  V30 30 1 30 31
M  V30 31 1 31 2
M  V30 32 1 28 3
M  V30 33 2 20 7
M  V30 34 1 26 21
M  V30 35 1 19 9
M  V30 36 2 16 12
M  V30 37 1 1 32
M  V30 38 1 1 33
M  V30 39 1 4 34
M  V30 40 1 5 35
M  V30 41 1 10 36
M  V30 42 1 13 37
M  V30 43 1 14 38
M  V30 44 1 15 39
M  V30 45 1 17 40
M  V30 46 1 18 41
M  V30 47 1 22 42
M  V30 48 1 23 43
M  V30 49 1 24 44
M  V30 50 1 25 45
M  V30 51 1 26 46
M  V30 52 1 27 47
M  V30 53 1 28 48
M  V30 54 1 29 49
M  V30 55 1 29 50
M  V30 56 1 30 51
M  V30 57 1 30 52
M  V30 58 1 31 53
M  V30 59 1 31 54
M  V30 END BOND
M  V30 END CTAB
M  END
>  <Dataset>  (357) 
ChEMBL_Kinases

>  <Ligand_Instance>  (357) 
nan

>  <PDB_ID>  (357) 
nan

>  <Standardized_SMILES>  (357) 
NC1(c2ccc(-c3nc4cc(-c5cc[nH]n5)ccn4c3-c3ccccc3)cc2)CCC1

>  <Name>  (357) 
nan

>  <Pocket>  (357) 
nan

>  <ATP_Site>  (357) 
nan

>  <Peripheral>  (357) 
nan

>  <Num_H_Atoms_ProtBoundConf>  (357) 
nan

>  <Num_Resolved_Atoms>  (357) 
nan

>  <Num_Not_Resolved_Atoms>  (357) 
nan

$$$$
CHEMBL3703108
     RDKit          3D

  0  0  0  0  0  0  0  0  0  0999 V3000
M  V30 BEGIN CTAB
M  V30 COUNTS 54 59 0 0 0
M  V30 BEGIN ATOM
M  V30 1 N -2.322751 -5.944379 0.838524 0
M  V30 2 C -1.358407 -5.721024 -0.238380 0
M  V30 3 C -0.740048 -4.379590 -0.150633 0
M  V30 4 C -0.345033 -3.511951 -1.139668 0
M  V30 5 C 0.210808 -2.271422 -0.924495 0
M  V30 6 C 0.375714 -1.888677 0.392705 0
M  V30 7 C 0.959037 -0.564597 0.592244 0
M  V30 8 N 2.137518 0.079509 0.644103 0
M  V30 9 C 1.912708 1.402874 0.890517 0
M  V30 10 C 2.894727 2.366553 1.006411 0
M  V30 11 C 2.498050 3.664582 1.254691 0
M  V30 12 C 3.408825 4.794126 1.400529 0
M  V30 13 N 4.741402 4.692563 1.310005 0
M  V30 14 C 5.296409 5.915072 1.489966 0
M  V30 15 C 4.256335 6.806153 1.700224 0
M  V30 16 N 3.119004 6.094246 1.639954 0
M  V30 17 C 1.148504 3.923699 1.372603 0
M  V30 18 C 0.234295 2.897810 1.242070 0
M  V30 19 N 0.592328 1.616925 0.998531 0
M  V30 20 C -0.007746 0.427653 0.819323 0
M  V30 21 C -1.486959 0.416093 0.878619 0
M  V30 22 C -2.367106 0.544370 1.931693 0
M  V30 23 C -3.713784 0.498900 1.663801 0
M  V30 24 C -4.197000 0.333092 0.405618 0
M  V30 25 C -3.321600 0.200853 -0.680284 0
M  V30 26 C -1.950190 0.246467 -0.414303 0
M  V30 27 C 0.008625 -2.694376 1.458017 0
M  V30 28 C -0.540704 -3.920718 1.155524 0
M  V30 29 C -0.398530 -6.889146 -0.345221 0
M  V30 30 C -1.188488 -7.407632 -1.541706 0
M  V30 31 C -1.967357 -6.106920 -1.553646 0
M  V30 32 H -2.675699 -5.012829 1.162220 0
M  V30 33 H -1.782455 -6.427547 1.602530 0
M  V30 34 H -0.488752 -3.850324 -2.135774 0
M  V30 35 H 0.478687 -1.687175 -1.783141 0
M  V30 36 H 3.949296 2.158598 0.914153 0
M  V30 37 H 6.348133 6.183851 1.476720 0
M  V30 38 H 4.293439 7.869954 1.881296 0
M  V30 39 H 2.121502 6.443902 1.755022 0
M  V30 40 H 0.744345 4.902114 1.566140 0
M  V30 41 H -0.822834 3.105846 1.335178 0
M  V30 42 H -1.817067 0.666475 2.855334 0
M  V30 43 H -4.322090 0.608734 2.562642 0
M  V30 44 H -5.267465 0.302556 0.243635 0
M  V30 45 H -3.787491 0.074165 -1.641029 0
M  V30 46 H -1.406743 0.131690 -1.345429 0
M  V30 47 H 0.159953 -2.347168 2.471010 0
M  V30 48 H -0.809031 -4.503053 2.051574 0
M  V30 49 H -0.467539 -7.629855 0.473758 0
M  V30 50 H 0.637697 -6.614428 -0.539114 0
M  V30 51 H -1.856409 -8.263657 -1.333399 0
M  V30 52 H -0.500551 -7.574029 -2.384226 0
M  V30 53 H -3.068672 -6.251975 -1.513172 0
M  V30 54 H -1.657883 -5.430406 -2.364563 0
M  V30 END ATOM
M  V30 BEGIN BOND
M  V30 1 1 1 2
M  V30 2 1 2 3
M  V30 3 2 3 4
M  V30 4 1 4 5
M  V30 5 2 5 6
M  V30 6 1 6 7
M  V30 7 1 7 8
M  V30 8 2 8 9
M  V30 9 1 9 10
M  V30 10 2 10 11
M  V30 11 1 11 12
M  V30 12 2 12 13
M  V30 13 1 13 14
M  V30 14 2 14 15
M  V30 15 1 15 16
M  V30 16 1 11 17
M  V30 17 2 17 18
M  V30 18 1 18 19
M  V30 19 1 19 20
M  V30 20 1 20 21
M  V30 21 2 21 22
M  V30 22 1 22 23
M  V30 23 2 23 24
M  V30 24 1 24 25
M  V30 25 2 25 26
M  V30 26 1 6 27
M  V30 27 2 27 28
M  V30 28 1 2 29
M  V30 29 1 29 30
M  V30 30 1 30 31
M  V30 31 1 31 2
M  V30 32 1 28 3
M  V30 33 2 20 7
M  V30 34 1 26 21
M  V30 35 1 19 9
M  V30 36 1 16 12
M  V30 37 1 1 32
M  V30 38 1 1 33
M  V30 39 1 4 34
M  V30 40 1 5 35
M  V30 41 1 10 36
M  V30 42 1 14 37
M  V30 43 1 15 38
M  V30 44 1 16 39
M  V30 45 1 17 40
M  V30 46 1 18 41
M  V30 47 1 22 42
M  V30 48 1 23 43
M  V30 49 1 24 44
M  V30 50 1 25 45
M  V30 51 1 26 46
M  V30 52 1 27 47
M  V30 53 1 28 48
M  V30 54 1 29 49
M  V30 55 1 29 50
M  V30 56 1 30 51
M  V30 57 1 30 52
M  V30 58 1 31 53
M  V30 59 1 31 54
M  V30 END BOND
M  V30 END CTAB
M  END
>  <Dataset>  (358) 
ChEMBL_Kinases

>  <Ligand_Instance>  (358) 
nan

>  <PDB_ID>  (358) 
nan

>  <Standardized_SMILES>  (358) 
NC1(c2ccc(-c3nc4cc(-c5ncc[nH]5)ccn4c3-c3ccccc3)cc2)CCC1

>  <Name>  (358) 
nan

>  <Pocket>  (358) 
nan

>  <ATP_Site>  (358) 
nan

>  <Peripheral>  (358) 
nan

>  <Num_H_Atoms_ProtBoundConf>  (358) 
nan

>  <Num_Resolved_Atoms>  (358) 
nan

>  <Num_Not_Resolved_Atoms>  (358) 
nan

$$$$
CHEMBL2386751
     RDKit          3D

  0  0  0  0  0  0  0  0  0  0999 V3000
M  V30 BEGIN CTAB
M  V30 COUNTS 37 40 0 0 0
M  V30 BEGIN ATOM
M  V30 1 C 1.413027 -5.165698 3.073206 0
M  V30 2 O 1.617782 -4.155456 2.108468 0
M  V30 3 C 2.477195 -3.082505 2.309206 0
M  V30 4 N 3.321186 -3.117610 3.259919 0
M  V30 5 C 2.352174 -1.936449 1.378867 0
M  V30 6 N 2.938004 -1.484976 0.497415 0
M  V30 7 C 2.685827 -0.432850 -0.245913 0
M  V30 8 C 3.405027 0.087760 -1.298142 0
M  V30 9 C 2.954020 1.210305 -1.943871 0
M  V30 10 C 1.802915 1.909648 -1.640618 0
M  V30 11 N 1.331582 3.004317 -2.243725 0
M  V30 12 C 0.169107 3.562995 -1.803197 0
M  V30 13 N -0.553521 3.057618 -0.761681 0
M  V30 14 C -0.101315 1.950966 -0.132469 0
M  V30 15 N -0.838826 1.402412 0.961039 0
M  V30 16 C -1.872667 0.431602 0.816113 0
M  V30 17 C -2.169453 -0.011945 -0.450066 0
M  V30 18 C -3.184455 -0.954602 -0.533867 0
M  V30 19 C -3.829783 -1.391588 0.614721 0
M  V30 20 C -3.505116 -0.924023 1.870821 0
M  V30 21 Cl -4.342444 -1.501358 3.290904 0
M  V30 22 C -2.490799 0.020976 1.975781 0
M  V30 23 C 1.076441 1.398063 -0.590684 0
M  V30 24 C 1.519891 0.255816 0.078876 0
M  V30 25 S 0.891143 -0.690779 1.441433 0
M  V30 26 H 0.678336 -5.878303 2.606173 0
M  V30 27 H 2.359692 -5.683435 3.306752 0
M  V30 28 H 0.898935 -4.739913 3.959126 0
M  V30 29 H 3.324335 -3.971611 3.854263 0
M  V30 30 H 4.346994 -0.330766 -1.684601 0
M  V30 31 H 3.526796 1.631781 -2.787294 0
M  V30 32 H -0.180539 4.450382 -2.318411 0
M  V30 33 H -0.528048 1.798255 1.866982 0
M  V30 34 H -1.633864 0.364034 -1.302069 0
M  V30 35 H -3.440857 -1.323017 -1.521121 0
M  V30 36 H -4.611069 -2.124564 0.493146 0
M  V30 37 H -2.210010 0.408095 2.937487 0
M  V30 END ATOM
M  V30 BEGIN BOND
M  V30 1 1 1 2
M  V30 2 1 2 3
M  V30 3 2 3 4 CFG=2
M  V30 4 1 3 5
M  V30 5 2 5 6
M  V30 6 1 6 7
M  V30 7 2 7 8
M  V30 8 1 8 9
M  V30 9 2 9 10
M  V30 10 1 10 11
M  V30 11 2 11 12
M  V30 12 1 12 13
M  V30 13 2 13 14
M  V30 14 1 14 15
M  V30 15 1 15 16
M  V30 16 2 16 17
M  V30 17 1 17 18
M  V30 18 2 18 19
M  V30 19 1 19 20
M  V30 20 1 20 21
M  V30 21 2 20 22
M  V30 22 1 14 23
M  V30 23 2 23 24
M  V30 24 1 24 25
M  V30 25 1 25 5
M  V30 26 1 24 7
M  V30 27 1 23 10
M  V30 28 1 22 16
M  V30 29 1 1 26
M  V30 30 1 1 27
M  V30 31 1 1 28
M  V30 32 1 4 29
M  V30 33 1 8 30
M  V30 34 1 9 31
M  V30 35 1 12 32
M  V30 36 1 15 33
M  V30 37 1 17 34
M  V30 38 1 18 35
M  V30 39 1 19 36
M  V30 40 1 22 37
M  V30 END BOND
M  V30 END CTAB
M  END
>  <Dataset>  (359) 
ChEMBL_Kinases

>  <Ligand_Instance>  (359) 
nan

>  <PDB_ID>  (359) 
nan

>  <Standardized_SMILES>  (359) 
COC(=N)c1nc2ccc3ncnc(Nc4cccc(Cl)c4)c3c2s1

>  <Name>  (359) 
nan

>  <Pocket>  (359) 
nan

>  <ATP_Site>  (359) 
nan

>  <Peripheral>  (359) 
nan

>  <Num_H_Atoms_ProtBoundConf>  (359) 
nan

>  <Num_Resolved_Atoms>  (359) 
nan

>  <Num_Not_Resolved_Atoms>  (359) 
nan

$$$$
CHEMBL2386752
     RDKit          3D

  0  0  0  0  0  0  0  0  0  0999 V3000
M  V30 BEGIN CTAB
M  V30 COUNTS 38 41 0 0 0
M  V30 BEGIN ATOM
M  V30 1 C 3.443997 -4.581958 3.080485 0
M  V30 2 O 3.412382 -4.067957 1.755603 0
M  V30 3 C 2.276383 -3.602896 1.147037 0
M  V30 4 N 1.384918 -4.524750 1.361540 0
M  V30 5 C 1.937996 -2.386818 0.386193 0
M  V30 6 N 2.043055 -2.085069 -0.742492 0
M  V30 7 C 1.705158 -0.958658 -1.326436 0
M  V30 8 C 1.850818 -0.643339 -2.683694 0
M  V30 9 C 1.436379 0.594712 -3.110833 0
M  V30 10 C 0.882597 1.585207 -2.348321 0
M  V30 11 N 0.472369 2.786614 -2.721930 0
M  V30 12 C -0.057674 3.634093 -1.789256 0
M  V30 13 N -0.174784 3.275497 -0.487193 0
M  V30 14 C 0.217801 2.086770 -0.051333 0
M  V30 15 N 0.098661 1.699263 1.319124 0
M  V30 16 C -1.056782 1.044736 1.883499 0
M  V30 17 C -1.204085 0.659205 3.204204 0
M  V30 18 C -2.372457 0.039521 3.599980 0
M  V30 19 C -3.403504 -0.209321 2.717388 0
M  V30 20 O -4.525089 -0.838611 3.239716 0
M  V30 21 C -3.255123 0.177144 1.394837 0
M  V30 22 F -4.308751 -0.101291 0.592793 0
M  V30 23 C -2.088181 0.803611 0.968308 0
M  V30 24 C 0.743993 1.260882 -1.008088 0
M  V30 25 C 1.159869 -0.020845 -0.500230 0
M  V30 26 S 1.149008 -0.758482 1.036304 0
M  V30 27 H 4.487470 -4.883986 3.304806 0
M  V30 28 H 3.064594 -3.818387 3.789967 0
M  V30 29 H 2.756391 -5.455177 3.089738 0
M  V30 30 H 0.416149 -4.406268 0.992130 0
M  V30 31 H 2.267356 -1.298407 -3.437952 0
M  V30 32 H 1.543682 0.859855 -4.176600 0
M  V30 33 H -0.363695 4.594902 -2.197610 0
M  V30 34 H 0.865119 1.871484 2.018945 0
M  V30 35 H -0.359678 0.882640 3.846056 0
M  V30 36 H -2.389168 -0.223306 4.655569 0
M  V30 37 H -4.462832 -1.853664 3.355170 0
M  V30 38 H -2.119622 1.041918 -0.075245 0
M  V30 END ATOM
M  V30 BEGIN BOND
M  V30 1 1 1 2
M  V30 2 1 2 3
M  V30 3 2 3 4 CFG=2
M  V30 4 1 3 5
M  V30 5 2 5 6
M  V30 6 1 6 7
M  V30 7 2 7 8
M  V30 8 1 8 9
M  V30 9 2 9 10
M  V30 10 1 10 11
M  V30 11 2 11 12
M  V30 12 1 12 13
M  V30 13 2 13 14
M  V30 14 1 14 15
M  V30 15 1 15 16
M  V30 16 2 16 17
M  V30 17 1 17 18
M  V30 18 2 18 19
M  V30 19 1 19 20
M  V30 20 1 19 21
M  V30 21 1 21 22
M  V30 22 2 21 23
M  V30 23 1 14 24
M  V30 24 2 24 25
M  V30 25 1 25 26
M  V30 26 1 26 5
M  V30 27 1 25 7
M  V30 28 1 24 10
M  V30 29 1 23 16
M  V30 30 1 1 27
M  V30 31 1 1 28
M  V30 32 1 1 29
M  V30 33 1 4 30
M  V30 34 1 8 31
M  V30 35 1 9 32
M  V30 36 1 12 33
M  V30 37 1 15 34
M  V30 38 1 17 35
M  V30 39 1 18 36
M  V30 40 1 20 37
M  V30 41 1 23 38
M  V30 END BOND
M  V30 END CTAB
M  END
>  <Dataset>  (360) 
ChEMBL_Kinases

>  <Ligand_Instance>  (360) 
nan

>  <PDB_ID>  (360) 
nan

>  <Standardized_SMILES>  (360) 
COC(=N)c1nc2ccc3ncnc(Nc4ccc(O)c(F)c4)c3c2s1

>  <Name>  (360) 
nan

>  <Pocket>  (360) 
nan

>  <ATP_Site>  (360) 
nan

>  <Peripheral>  (360) 
nan

>  <Num_H_Atoms_ProtBoundConf>  (360) 
nan

>  <Num_Resolved_Atoms>  (360) 
nan

>  <Num_Not_Resolved_Atoms>  (360) 
nan

$$$$
CHEMBL2386753
     RDKit          3D

  0  0  0  0  0  0  0  0  0  0999 V3000
M  V30 BEGIN CTAB
M  V30 COUNTS 40 44 0 0 0
M  V30 BEGIN ATOM
M  V30 1 C 3.150811 -4.899644 2.642279 0
M  V30 2 O 3.167365 -3.822071 1.712008 0
M  V30 3 C 2.362412 -3.789341 0.594849 0
M  V30 4 N 1.771062 -4.860160 0.188386 0
M  V30 5 C 2.114756 -2.564057 -0.208564 0
M  V30 6 N 2.074845 -2.082840 -1.216708 0
M  V30 7 C 1.800122 -0.879892 -1.652489 0
M  V30 8 C 1.784099 -0.383869 -2.952163 0
M  V30 9 C 1.461638 0.933025 -3.141562 0
M  V30 10 C 1.138016 1.863754 -2.159417 0
M  V30 11 N 0.830700 3.135282 -2.360292 0
M  V30 12 C 0.541662 3.908864 -1.286361 0
M  V30 13 N 0.557953 3.419902 -0.017761 0
M  V30 14 C 0.863446 2.135623 0.240885 0
M  V30 15 N 0.898730 1.552120 1.539024 0
M  V30 16 C -0.336460 1.027988 2.011304 0
M  V30 17 C -0.458753 0.409527 3.238262 0
M  V30 18 C -1.597229 -0.128814 3.796953 0
M  V30 19 C -2.751821 -0.029399 3.020316 0
M  V30 20 C -2.709920 0.574929 1.783062 0
M  V30 21 C -1.531600 1.093232 1.285489 0
M  V30 22 O -4.005709 0.527401 1.243139 0
M  V30 23 C -4.758821 -0.387022 2.050792 0
M  V30 24 O -4.049735 -0.449558 3.255165 0
M  V30 25 C 1.158640 1.351366 -0.867314 0
M  V30 26 C 1.490299 -0.002890 -0.672986 0
M  V30 27 S 1.624152 -0.993049 0.784064 0
M  V30 28 H 3.899385 -4.661745 3.427048 0
M  V30 29 H 3.447716 -5.865288 2.198183 0
M  V30 30 H 2.164766 -4.949091 3.178171 0
M  V30 31 H 1.842002 -5.795138 0.639371 0
M  V30 32 H 2.009995 -0.955736 -3.866365 0
M  V30 33 H 1.440635 1.356237 -4.160596 0
M  V30 34 H 0.283526 4.967976 -1.426589 0
M  V30 35 H 1.709658 1.472062 2.156725 0
M  V30 36 H 0.437770 0.329195 3.845343 0
M  V30 37 H -1.577635 -0.591433 4.769259 0
M  V30 38 H -1.507950 1.572465 0.297919 0
M  V30 39 H -4.768462 -1.410522 1.598186 0
M  V30 40 H -5.768585 0.022165 2.198812 0
M  V30 END ATOM
M  V30 BEGIN BOND
M  V30 1 1 1 2
M  V30 2 1 2 3
M  V30 3 2 3 4 CFG=2
M  V30 4 1 3 5
M  V30 5 2 5 6
M  V30 6 1 6 7
M  V30 7 2 7 8
M  V30 8 1 8 9
M  V30 9 2 9 10
M  V30 10 1 10 11
M  V30 11 2 11 12
M  V30 12 1 12 13
M  V30 13 2 13 14
M  V30 14 1 14 15
M  V30 15 1 15 16
M  V30 16 2 16 17
M  V30 17 1 17 18
M  V30 18 2 18 19
M  V30 19 1 19 20
M  V30 20 2 20 21
M  V30 21 1 20 22
M  V30 22 1 22 23
M  V30 23 1 23 24
M  V30 24 1 14 25
M  V30 25 2 25 26
M  V30 26 1 26 27
M  V30 27 1 27 5
M  V30 28 1 26 7
M  V30 29 1 25 10
M  V30 30 1 21 16
M  V30 31 1 24 19
M  V30 32 1 1 28
M  V30 33 1 1 29
M  V30 34 1 1 30
M  V30 35 1 4 31
M  V30 36 1 8 32
M  V30 37 1 9 33
M  V30 38 1 12 34
M  V30 39 1 15 35
M  V30 40 1 17 36
M  V30 41 1 18 37
M  V30 42 1 21 38
M  V30 43 1 23 39
M  V30 44 1 23 40
M  V30 END BOND
M  V30 END CTAB
M  END
>  <Dataset>  (361) 
ChEMBL_Kinases

>  <Ligand_Instance>  (361) 
nan

>  <PDB_ID>  (361) 
nan

>  <Standardized_SMILES>  (361) 
COC(=N)c1nc2ccc3ncnc(Nc4ccc5c(c4)OCO5)c3c2s1

>  <Name>  (361) 
nan

>  <Pocket>  (361) 
nan

>  <ATP_Site>  (361) 
nan

>  <Peripheral>  (361) 
nan

>  <Num_H_Atoms_ProtBoundConf>  (361) 
nan

>  <Num_Resolved_Atoms>  (361) 
nan

>  <Num_Not_Resolved_Atoms>  (361) 
nan

$$$$
CHEMBL2386761
     RDKit          3D

  0  0  0  0  0  0  0  0  0  0999 V3000
M  V30 BEGIN CTAB
M  V30 COUNTS 41 44 0 0 0
M  V30 BEGIN ATOM
M  V30 1 C 1.413620 -5.683461 2.546676 0
M  V30 2 O 1.107104 -5.288740 1.226737 0
M  V30 3 C 1.835837 -4.382117 0.474206 0
M  V30 4 N 3.029365 -4.846943 0.590687 0
M  V30 5 C 1.474960 -3.186760 -0.291157 0
M  V30 6 N 1.003346 -3.011759 -1.369151 0
M  V30 7 C 0.740716 -1.823895 -1.908669 0
M  V30 8 C 0.193236 -1.591952 -3.160415 0
M  V30 9 C -0.017072 -0.306232 -3.575746 0
M  V30 10 C 0.272205 0.827146 -2.846164 0
M  V30 11 N 0.078589 2.097505 -3.228820 0
M  V30 12 C 0.426283 3.100675 -2.375961 0
M  V30 13 N 0.965619 2.865175 -1.143298 0
M  V30 14 C 1.176422 1.583276 -0.721554 0
M  V30 15 N 1.738382 1.349147 0.559337 0
M  V30 16 C 0.848443 1.257888 1.664929 0
M  V30 17 C -0.513809 1.411997 1.516602 0
M  V30 18 C -1.429770 1.337793 2.544070 0
M  V30 19 C -0.971806 1.091600 3.826873 0
M  V30 20 O -1.762978 0.988101 4.967973 0
M  V30 21 C -3.159180 1.150446 4.796332 0
M  V30 22 C 0.382017 0.929656 4.029439 0
M  V30 23 C 1.263099 1.014324 2.956678 0
M  V30 24 C 0.816414 0.583493 -1.602733 0
M  V30 25 C 1.030192 -0.713980 -1.179479 0
M  V30 26 S 1.712426 -1.389660 0.356312 0
M  V30 27 H 0.688415 -6.467218 2.850068 0
M  V30 28 H 2.451951 -6.056970 2.633359 0
M  V30 29 H 1.351884 -4.788240 3.199061 0
M  V30 30 H 3.865222 -4.411180 0.145851 0
M  V30 31 H -0.096538 -2.372328 -3.872028 0
M  V30 32 H -0.451883 -0.106550 -4.570228 0
M  V30 33 H 0.280452 4.133474 -2.659983 0
M  V30 34 H 2.748764 1.235918 0.774474 0
M  V30 35 H -0.954094 1.607542 0.545061 0
M  V30 36 H -2.495830 1.458730 2.423464 0
M  V30 37 H -3.731886 0.874985 5.701704 0
M  V30 38 H -3.574037 0.576207 3.949327 0
M  V30 39 H -3.313617 2.240581 4.623011 0
M  V30 40 H 0.791131 0.733515 5.022335 0
M  V30 41 H 2.339239 0.882761 3.135903 0
M  V30 END ATOM
M  V30 BEGIN BOND
M  V30 1 1 1 2
M  V30 2 1 2 3
M  V30 3 2 3 4 CFG=2
M  V30 4 1 3 5
M  V30 5 2 5 6
M  V30 6 1 6 7
M  V30 7 2 7 8
M  V30 8 1 8 9
M  V30 9 2 9 10
M  V30 10 1 10 11
M  V30 11 2 11 12
M  V30 12 1 12 13
M  V30 13 2 13 14
M  V30 14 1 14 15
M  V30 15 1 15 16
M  V30 16 2 16 17
M  V30 17 1 17 18
M  V30 18 2 18 19
M  V30 19 1 19 20
M  V30 20 1 20 21
M  V30 21 1 19 22
M  V30 22 2 22 23
M  V30 23 1 14 24
M  V30 24 2 24 25
M  V30 25 1 25 26
M  V30 26 1 26 5
M  V30 27 1 25 7
M  V30 28 1 24 10
M  V30 29 1 23 16
M  V30 30 1 1 27
M  V30 31 1 1 28
M  V30 32 1 1 29
M  V30 33 1 4 30
M  V30 34 1 8 31
M  V30 35 1 9 32
M  V30 36 1 12 33
M  V30 37 1 15 34
M  V30 38 1 17 35
M  V30 39 1 18 36
M  V30 40 1 21 37
M  V30 41 1 21 38
M  V30 42 1 21 39
M  V30 43 1 22 40
M  V30 44 1 23 41
M  V30 END BOND
M  V30 END CTAB
M  END
>  <Dataset>  (362) 
ChEMBL_Kinases

>  <Ligand_Instance>  (362) 
nan

>  <PDB_ID>  (362) 
nan

>  <Standardized_SMILES>  (362) 
COC(=N)c1nc2ccc3ncnc(Nc4ccc(OC)cc4)c3c2s1

>  <Name>  (362) 
nan

>  <Pocket>  (362) 
nan

>  <ATP_Site>  (362) 
nan

>  <Peripheral>  (362) 
nan

>  <Num_H_Atoms_ProtBoundConf>  (362) 
nan

>  <Num_Resolved_Atoms>  (362) 
nan

>  <Num_Not_Resolved_Atoms>  (362) 
nan

$$$$
CHEMBL2386754
     RDKit          3D

  0  0  0  0  0  0  0  0  0  0999 V3000
M  V30 BEGIN CTAB
M  V30 COUNTS 43 47 0 0 0
M  V30 BEGIN ATOM
M  V30 1 C 1.516213 -2.940501 6.384812 0
M  V30 2 C 0.842374 -1.812739 5.653008 0
M  V30 3 O 1.671855 -1.080988 4.805755 0
M  V30 4 C 1.337776 -0.002622 4.036641 0
M  V30 5 N 0.514909 0.795498 4.675017 0
M  V30 6 C 1.814780 0.255518 2.683589 0
M  V30 7 N 2.780020 0.333581 2.110209 0
M  V30 8 C 3.048507 0.581810 0.847205 0
M  V30 9 C 4.256041 0.668068 0.186162 0
M  V30 10 C 4.289425 0.940071 -1.144925 0
M  V30 11 C 3.178481 1.153028 -1.960089 0
M  V30 12 N 3.205201 1.421065 -3.268034 0
M  V30 13 C 2.011471 1.600177 -3.899508 0
M  V30 14 N 0.824047 1.519607 -3.269875 0
M  V30 15 C 0.756503 1.250915 -1.950792 0
M  V30 16 N -0.490897 1.162799 -1.269854 0
M  V30 17 C -1.239845 -0.038779 -1.136049 0
M  V30 18 C -0.774813 -1.206202 -1.679860 0
M  V30 19 C -1.507403 -2.363093 -1.545281 0
M  V30 20 C -2.716645 -2.314539 -0.851109 0
M  V30 21 C -3.162601 -1.138447 -0.315972 0
M  V30 22 C -2.426581 0.041751 -0.446881 0
M  V30 23 O -4.360249 -1.455539 0.283485 0
M  V30 24 C -4.431797 -2.864052 0.477701 0
M  V30 25 O -3.617328 -3.326627 -0.586742 0
M  V30 26 C 1.958815 1.063841 -1.282598 0
M  V30 27 C 1.940722 0.785802 0.074694 0
M  V30 28 S 0.623732 0.601079 1.237709 0
M  V30 29 H 2.579563 -3.086268 6.130733 0
M  V30 30 H 0.993735 -3.903911 6.212900 0
M  V30 31 H 1.440084 -2.788881 7.499533 0
M  V30 32 H 0.032976 -2.261454 5.005406 0
M  V30 33 H 0.277401 -1.199352 6.388724 0
M  V30 34 H 0.221841 1.641091 4.137631 0
M  V30 35 H 5.237644 0.533893 0.642888 0
M  V30 36 H 5.235389 1.016750 -1.706881 0
M  V30 37 H 2.117072 1.814135 -4.961817 0
M  V30 38 H -0.778990 2.067641 -0.891512 0
M  V30 39 H 0.165773 -1.189913 -2.206861 0
M  V30 40 H -1.094733 -3.249372 -1.991671 0
M  V30 41 H -2.793729 0.972042 -0.015643 0
M  V30 42 H -5.465583 -3.237077 0.324190 0
M  V30 43 H -4.036188 -3.139190 1.472753 0
M  V30 END ATOM
M  V30 BEGIN BOND
M  V30 1 1 1 2
M  V30 2 1 2 3
M  V30 3 1 3 4
M  V30 4 2 4 5 CFG=2
M  V30 5 1 4 6
M  V30 6 2 6 7
M  V30 7 1 7 8
M  V30 8 2 8 9
M  V30 9 1 9 10
M  V30 10 2 10 11
M  V30 11 1 11 12
M  V30 12 2 12 13
M  V30 13 1 13 14
M  V30 14 2 14 15
M  V30 15 1 15 16
M  V30 16 1 16 17
M  V30 17 2 17 18
M  V30 18 1 18 19
M  V30 19 2 19 20
M  V30 20 1 20 21
M  V30 21 2 21 22
M  V30 22 1 21 23
M  V30 23 1 23 24
M  V30 24 1 24 25
M  V30 25 1 15 26
M  V30 26 2 26 27
M  V30 27 1 27 28
M  V30 28 1 28 6
M  V30 29 1 27 8
M  V30 30 1 26 11
M  V30 31 1 22 17
M  V30 32 1 25 20
M  V30 33 1 1 29
M  V30 34 1 1 30
M  V30 35 1 1 31
M  V30 36 1 2 32
M  V30 37 1 2 33
M  V30 38 1 5 34
M  V30 39 1 9 35
M  V30 40 1 10 36
M  V30 41 1 13 37
M  V30 42 1 16 38
M  V30 43 1 18 39
M  V30 44 1 19 40
M  V30 45 1 22 41
M  V30 46 1 24 42
M  V30 47 1 24 43
M  V30 END BOND
M  V30 END CTAB
M  END
>  <Dataset>  (363) 
ChEMBL_Kinases

>  <Ligand_Instance>  (363) 
nan

>  <PDB_ID>  (363) 
nan

>  <Standardized_SMILES>  (363) 
CCOC(=N)c1nc2ccc3ncnc(Nc4ccc5c(c4)OCO5)c3c2s1

>  <Name>  (363) 
nan

>  <Pocket>  (363) 
nan

>  <ATP_Site>  (363) 
nan

>  <Peripheral>  (363) 
nan

>  <Num_H_Atoms_ProtBoundConf>  (363) 
nan

>  <Num_Resolved_Atoms>  (363) 
nan

>  <Num_Not_Resolved_Atoms>  (363) 
nan

$$$$
CHEMBL3703110
     RDKit          3D

  0  0  0  0  0  0  0  0  0  0999 V3000
M  V30 BEGIN CTAB
M  V30 COUNTS 57 62 0 0 0
M  V30 BEGIN ATOM
M  V30 1 C 5.016650 -3.751458 3.508127 0
M  V30 2 N 6.031512 -3.029588 2.801350 0
M  V30 3 C 7.363962 -3.182702 2.712132 0
M  V30 4 N 7.912132 -2.246701 1.914131 0
M  V30 5 C 6.897228 -1.453127 1.466217 0
M  V30 6 C 5.740600 -1.957055 2.028975 0
M  V30 7 C 4.491119 -1.271322 1.699324 0
M  V30 8 C 4.362003 0.104264 1.708017 0
M  V30 9 C 3.169046 0.730618 1.392376 0
M  V30 10 N 2.108495 -0.066258 1.067368 0
M  V30 11 C 0.862151 0.342662 0.729411 0
M  V30 12 C 0.246068 1.644630 0.598742 0
M  V30 13 C 0.614341 2.649220 -0.272552 0
M  V30 14 C -0.026373 3.863183 -0.333331 0
M  V30 15 C -1.094132 4.131959 0.499196 0
M  V30 16 C -1.501215 3.167776 1.384501 0
M  V30 17 C -0.839888 1.961748 1.422262 0
M  V30 18 C 0.115004 -0.804329 0.481143 0
M  V30 19 C -1.267913 -1.074535 0.081356 0
M  V30 20 C -1.555443 -0.558498 -1.167262 0
M  V30 21 C -2.816003 -0.715160 -1.715113 0
M  V30 22 C -3.810156 -1.387488 -1.029655 0
M  V30 23 C -5.193782 -1.618509 -1.510840 0
M  V30 24 N -6.224135 -1.279001 -0.541179 0
M  V30 25 C -5.548175 -1.079956 -2.852745 0
M  V30 26 C -6.305408 -2.381443 -3.124671 0
M  V30 27 C -5.466203 -3.015356 -2.029280 0
M  V30 28 C -3.502387 -1.894148 0.213807 0
M  V30 29 C -2.251760 -1.749455 0.779278 0
M  V30 30 N 0.932831 -1.866111 0.676916 0
M  V30 31 C 2.168422 -1.411500 1.040150 0
M  V30 32 C 3.376750 -2.013548 1.360964 0
M  V30 33 H 4.553913 -4.529757 2.840483 0
M  V30 34 H 5.530176 -4.326400 4.323729 0
M  V30 35 H 4.251976 -3.146394 3.992344 0
M  V30 36 H 7.814199 -3.999699 3.265203 0
M  V30 37 H 7.189140 -0.654029 0.812203 0
M  V30 38 H 5.219647 0.713121 1.969489 0
M  V30 39 H 3.072123 1.807060 1.400366 0
M  V30 40 H 1.456833 2.428805 -0.925146 0
M  V30 41 H 0.335325 4.586781 -1.049080 0
M  V30 42 H -1.596415 5.089931 0.448021 0
M  V30 43 H -2.338721 3.351236 2.052076 0
M  V30 44 H -1.203356 1.232677 2.142528 0
M  V30 45 H -0.859165 -0.010492 -1.804155 0
M  V30 46 H -3.071121 -0.327472 -2.680013 0
M  V30 47 H -6.056171 -0.342154 -0.109474 0
M  V30 48 H -6.286295 -1.959270 0.248875 0
M  V30 49 H -4.751056 -1.003916 -3.616675 0
M  V30 50 H -6.215318 -0.192092 -2.787002 0
M  V30 51 H -7.378444 -2.358727 -2.779240 0
M  V30 52 H -6.155482 -2.810702 -4.126687 0
M  V30 53 H -4.613330 -3.550280 -2.475317 0
M  V30 54 H -6.060610 -3.650671 -1.335353 0
M  V30 55 H -4.227033 -2.440717 0.828497 0
M  V30 56 H -1.921700 -2.111521 1.743411 0
M  V30 57 H 3.367558 -3.097879 1.322890 0
M  V30 END ATOM
M  V30 BEGIN BOND
M  V30 1 1 1 2
M  V30 2 1 2 3
M  V30 3 2 3 4
M  V30 4 1 4 5
M  V30 5 2 5 6
M  V30 6 1 6 7
M  V30 7 1 7 8
M  V30 8 2 8 9
M  V30 9 1 9 10
M  V30 10 1 10 11
M  V30 11 1 11 12
M  V30 12 2 12 13
M  V30 13 1 13 14
M  V30 14 2 14 15
M  V30 15 1 15 16
M  V30 16 2 16 17
M  V30 17 2 11 18
M  V30 18 1 18 19
M  V30 19 2 19 20
M  V30 20 1 20 21
M  V30 21 2 21 22
M  V30 22 1 22 23
M  V30 23 1 23 24
M  V30 24 1 23 25
M  V30 25 1 25 26
M  V30 26 1 26 27
M  V30 27 1 22 28
M  V30 28 2 28 29
M  V30 29 1 18 30
M  V30 30 2 30 31
M  V30 31 1 31 32
M  V30 32 1 6 2
M  V30 33 2 32 7
M  V30 34 1 31 10
M  V30 35 1 17 12
M  V30 36 1 29 19
M  V30 37 1 27 23
M  V30 38 1 1 33
M  V30 39 1 1 34
M  V30 40 1 1 35
M  V30 41 1 3 36
M  V30 42 1 5 37
M  V30 43 1 8 38
M  V30 44 1 9 39
M  V30 45 1 13 40
M  V30 46 1 14 41
M  V30 47 1 15 42
M  V30 48 1 16 43
M  V30 49 1 17 44
M  V30 50 1 20 45
M  V30 51 1 21 46
M  V30 52 1 24 47
M  V30 53 1 24 48
M  V30 54 1 25 49
M  V30 55 1 25 50
M  V30 56 1 26 51
M  V30 57 1 26 52
M  V30 58 1 27 53
M  V30 59 1 27 54
M  V30 60 1 28 55
M  V30 61 1 29 56
M  V30 62 1 32 57
M  V30 END BOND
M  V30 END CTAB
M  END
>  <Dataset>  (364) 
ChEMBL_Kinases

>  <Ligand_Instance>  (364) 
nan

>  <PDB_ID>  (364) 
nan

>  <Standardized_SMILES>  (364) 
Cn1cncc1-c1ccn2c(-c3ccccc3)c(-c3ccc(C4(N)CCC4)cc3)nc2c1

>  <Name>  (364) 
nan

>  <Pocket>  (364) 
nan

>  <ATP_Site>  (364) 
nan

>  <Peripheral>  (364) 
nan

>  <Num_H_Atoms_ProtBoundConf>  (364) 
nan

>  <Num_Resolved_Atoms>  (364) 
nan

>  <Num_Not_Resolved_Atoms>  (364) 
nan

$$$$
CHEMBL2386755
     RDKit          3D

  0  0  0  0  0  0  0  0  0  0999 V3000
M  V30 BEGIN CTAB
M  V30 COUNTS 50 55 0 0 0
M  V30 BEGIN ATOM
M  V30 1 N 0.473681 -1.662085 3.185175 0
M  V30 2 C 1.007205 -0.658678 2.624211 0
M  V30 3 O 2.302677 -0.198640 2.806267 0
M  V30 4 C 3.139624 -0.937821 3.676925 0
M  V30 5 C 4.454926 -0.238033 3.714426 0
M  V30 6 C 4.595243 0.740572 4.697976 0
M  V30 7 C 5.742765 1.483613 4.875088 0
M  V30 8 C 6.792200 1.214628 4.009291 0
M  V30 9 C 6.695143 0.253169 3.020644 0
M  V30 10 C 5.530802 -0.471936 2.872117 0
M  V30 11 C 0.296844 0.229666 1.633199 0
M  V30 12 N 0.335796 1.221469 1.102807 0
M  V30 13 C -0.480405 1.766775 0.231326 0
M  V30 14 C -0.407532 2.990691 -0.406124 0
M  V30 15 C -1.373513 3.372819 -1.289527 0
M  V30 16 C -2.474893 2.617876 -1.627582 0
M  V30 17 N -3.466417 2.916441 -2.480881 0
M  V30 18 C -4.491972 2.073574 -2.716302 0
M  V30 19 N -4.560962 0.870769 -2.088088 0
M  V30 20 C -3.611535 0.486553 -1.215783 0
M  V30 21 N -3.689190 -0.756428 -0.570035 0
M  V30 22 C -3.252448 -2.085944 -0.821611 0
M  V30 23 C -3.550411 -3.047793 0.111754 0
M  V30 24 C -3.100365 -4.314628 -0.191645 0
M  V30 25 C -2.400761 -4.667374 -1.320893 0
M  V30 26 C -2.130611 -3.651242 -2.225765 0
M  V30 27 C -2.557162 -2.361483 -1.974432 0
M  V30 28 O -1.417687 -4.194172 -3.301970 0
M  V30 29 C -0.931211 -5.475418 -2.890388 0
M  V30 30 O -1.849930 -5.809504 -1.858475 0
M  V30 31 C -2.588200 1.388499 -1.015126 0
M  V30 32 C -1.567652 1.027691 -0.105971 0
M  V30 33 S -1.316666 -0.473055 0.911130 0
M  V30 34 H -0.517254 -1.971757 3.012897 0
M  V30 35 H 2.734867 -1.083975 4.678901 0
M  V30 36 H 3.297526 -1.922165 3.146048 0
M  V30 37 H 3.773598 0.966764 5.392723 0
M  V30 38 H 5.806244 2.236804 5.656324 0
M  V30 39 H 7.733405 1.775207 4.102288 0
M  V30 40 H 7.521430 0.053991 2.352765 0
M  V30 41 H 5.384646 -1.233550 2.126878 0
M  V30 42 H 0.382963 3.732082 -0.275511 0
M  V30 43 H -1.344657 4.343310 -1.815065 0
M  V30 44 H -5.214879 2.451626 -3.428429 0
M  V30 45 H -4.217165 -0.488153 0.278461 0
M  V30 46 H -4.094724 -2.872190 1.030585 0
M  V30 47 H -3.299596 -5.123477 0.499655 0
M  V30 48 H -2.315190 -1.607232 -2.721387 0
M  V30 49 H 0.088829 -5.347914 -2.504171 0
M  V30 50 H -0.965903 -6.201379 -3.735434 0
M  V30 END ATOM
M  V30 BEGIN BOND
M  V30 1 2 1 2 CFG=2
M  V30 2 1 2 3
M  V30 3 1 3 4
M  V30 4 1 4 5
M  V30 5 2 5 6
M  V30 6 1 6 7
M  V30 7 2 7 8
M  V30 8 1 8 9
M  V30 9 2 9 10
M  V30 10 1 2 11
M  V30 11 2 11 12
M  V30 12 1 12 13
M  V30 13 2 13 14
M  V30 14 1 14 15
M  V30 15 2 15 16
M  V30 16 1 16 17
M  V30 17 2 17 18
M  V30 18 1 18 19
M  V30 19 2 19 20
M  V30 20 1 20 21
M  V30 21 1 21 22
M  V30 22 2 22 23
M  V30 23 1 23 24
M  V30 24 2 24 25
M  V30 25 1 25 26
M  V30 26 2 26 27
M  V30 27 1 26 28
M  V30 28 1 28 29
M  V30 29 1 29 30
M  V30 30 1 20 31
M  V30 31 2 31 32
M  V30 32 1 32 33
M  V30 33 1 10 5
M  V30 34 1 33 11
M  V30 35 1 32 13
M  V30 36 1 31 16
M  V30 37 1 27 22
M  V30 38 1 30 25
M  V30 39 1 1 34
M  V30 40 1 4 35
M  V30 41 1 4 36
M  V30 42 1 6 37
M  V30 43 1 7 38
M  V30 44 1 8 39
M  V30 45 1 9 40
M  V30 46 1 10 41
M  V30 47 1 14 42
M  V30 48 1 15 43
M  V30 49 1 18 44
M  V30 50 1 21 45
M  V30 51 1 23 46
M  V30 52 1 24 47
M  V30 53 1 27 48
M  V30 54 1 29 49
M  V30 55 1 29 50
M  V30 END BOND
M  V30 END CTAB
M  END
>  <Dataset>  (365) 
ChEMBL_Kinases

>  <Ligand_Instance>  (365) 
nan

>  <PDB_ID>  (365) 
nan

>  <Standardized_SMILES>  (365) 
N=C(OCc1ccccc1)c1nc2ccc3ncnc(Nc4ccc5c(c4)OCO5)c3c2s1

>  <Name>  (365) 
nan

>  <Pocket>  (365) 
nan

>  <ATP_Site>  (365) 
nan

>  <Peripheral>  (365) 
nan

>  <Num_H_Atoms_ProtBoundConf>  (365) 
nan

>  <Num_Resolved_Atoms>  (365) 
nan

>  <Num_Not_Resolved_Atoms>  (365) 
nan

$$$$
CHEMBL4461256
     RDKit          3D

  0  0  0  0  0  0  0  0  0  0999 V3000
M  V30 BEGIN CTAB
M  V30 COUNTS 49 53 0 0 0
M  V30 BEGIN ATOM
M  V30 1 C 3.250733 -2.945084 -0.682723 0
M  V30 2 C 2.371624 -2.787421 0.504510 0
M  V30 3 C 2.438432 -3.606980 1.605451 0
M  V30 4 C 1.597711 -3.418198 2.683919 0
M  V30 5 C 0.661325 -2.377784 2.660904 0
M  V30 6 C 0.628544 -1.579290 1.536101 0
M  V30 7 C -0.377786 -0.526089 1.606067 0
M  V30 8 N 0.093387 0.739083 1.578172 0
M  V30 9 N -0.923432 1.594218 1.648733 0
M  V30 10 C -0.893864 3.035285 1.649766 0
M  V30 11 C -0.975571 3.631893 0.318384 0
M  V30 12 S -2.197868 4.638810 -0.070418 0
M  V30 13 N -0.034062 3.392509 -0.704625 0
M  V30 14 C 1.157467 2.667460 -0.959596 0
M  V30 15 C 2.416372 3.217532 -0.698245 0
M  V30 16 C 3.590829 2.513451 -0.946092 0
M  V30 17 C 3.438499 1.246319 -1.462650 0
M  V30 18 C 2.263021 0.619422 -1.752539 0
M  V30 19 C 1.139238 1.375678 -1.482041 0
M  V30 20 F -0.100911 0.871052 -1.724923 0
M  V30 21 C -2.088342 0.902443 1.724641 0
M  V30 22 C -1.752185 -0.455103 1.698145 0
M  V30 23 C -2.507772 -1.710189 1.744036 0
M  V30 24 C -3.311698 -2.103234 2.782878 0
M  V30 25 C -3.981604 -3.293413 2.740845 0
M  V30 26 C -3.840549 -4.102778 1.634550 0
M  V30 27 N -4.608743 -5.322861 1.738754 0
M  V30 28 S -4.081306 -5.977352 0.097322 0
M  V30 29 N -3.119433 -4.796561 -0.398078 0
M  V30 30 C -3.050976 -3.698335 0.633555 0
M  V30 31 C -2.377144 -2.519290 0.656612 0
M  V30 32 N 1.459708 -1.777224 0.486662 0
M  V30 33 H 2.595202 -2.801816 -1.567499 0
M  V30 34 H 4.010567 -2.141388 -0.746539 0
M  V30 35 H 3.714390 -3.960466 -0.715934 0
M  V30 36 H 3.166694 -4.401930 1.602035 0
M  V30 37 H 1.667515 -4.080835 3.547374 0
M  V30 38 H 0.021169 -2.264135 3.526329 0
M  V30 39 H -1.702235 3.421477 2.298380 0
M  V30 40 H 0.069707 3.326851 2.147084 0
M  V30 41 H -0.062990 3.799372 -1.657609 0
M  V30 42 H 2.487459 4.223649 -0.289725 0
M  V30 43 H 4.556002 2.956574 -0.737086 0
M  V30 44 H 4.380439 0.730146 -1.642389 0
M  V30 45 H 2.204082 -0.373552 -2.155599 0
M  V30 46 H -3.115787 1.173992 1.794404 0
M  V30 47 H -3.329691 -1.363002 3.594273 0
M  V30 48 H -4.554024 -3.420167 3.640978 0
M  V30 49 H -1.799246 -2.380188 -0.240953 0
M  V30 END ATOM
M  V30 BEGIN BOND
M  V30 1 1 1 2
M  V30 2 2 2 3
M  V30 3 1 3 4
M  V30 4 2 4 5
M  V30 5 1 5 6
M  V30 6 1 6 7
M  V30 7 2 7 8
M  V30 8 1 8 9
M  V30 9 1 9 10
M  V30 10 1 10 11
M  V30 11 2 11 12
M  V30 12 1 11 13
M  V30 13 1 13 14
M  V30 14 2 14 15
M  V30 15 1 15 16
M  V30 16 2 16 17
M  V30 17 1 17 18
M  V30 18 2 18 19
M  V30 19 1 19 20
M  V30 20 1 9 21
M  V30 21 2 21 22
M  V30 22 1 22 23
M  V30 23 1 23 24
M  V30 24 2 24 25
M  V30 25 1 25 26
M  V30 26 2 26 27
M  V30 27 1 27 28
M  V30 28 1 28 29
M  V30 29 2 29 30
M  V30 30 1 30 31
M  V30 31 2 6 32
M  V30 32 1 32 2
M  V30 33 1 22 7
M  V30 34 2 31 23
M  V30 35 1 19 14
M  V30 36 1 30 26
M  V30 37 1 1 33
M  V30 38 1 1 34
M  V30 39 1 1 35
M  V30 40 1 3 36
M  V30 41 1 4 37
M  V30 42 1 5 38
M  V30 43 1 10 39
M  V30 44 1 10 40
M  V30 45 1 13 41
M  V30 46 1 15 42
M  V30 47 1 16 43
M  V30 48 1 17 44
M  V30 49 1 18 45
M  V30 50 1 21 46
M  V30 51 1 24 47
M  V30 52 1 25 48
M  V30 53 1 31 49
M  V30 END BOND
M  V30 END CTAB
M  END
>  <Dataset>  (366) 
ChEMBL_Kinases

>  <Ligand_Instance>  (366) 
nan

>  <PDB_ID>  (366) 
nan

>  <Standardized_SMILES>  (366) 
Cc1cccc(-c2nn(CC(=S)Nc3ccccc3F)cc2-c2ccc3nsnc3c2)n1

>  <Name>  (366) 
nan

>  <Pocket>  (366) 
nan

>  <ATP_Site>  (366) 
nan

>  <Peripheral>  (366) 
nan

>  <Num_H_Atoms_ProtBoundConf>  (366) 
nan

>  <Num_Resolved_Atoms>  (366) 
nan

>  <Num_Not_Resolved_Atoms>  (366) 
nan

$$$$
CHEMBL2386758
     RDKit          3D

  0  0  0  0  0  0  0  0  0  0999 V3000
M  V30 BEGIN CTAB
M  V30 COUNTS 49 52 0 0 0
M  V30 BEGIN ATOM
M  V30 1 C -0.102952 -5.279996 3.434581 0
M  V30 2 O 0.615628 -4.062994 3.445792 0
M  V30 3 C 1.770795 -3.853001 2.732523 0
M  V30 4 N 2.399856 -4.821862 2.177186 0
M  V30 5 C 2.327108 -2.472804 2.583940 0
M  V30 6 N 3.064481 -1.695555 2.551165 0
M  V30 7 C 3.456474 -0.505787 2.412461 0
M  V30 8 C 4.600901 0.264886 2.426267 0
M  V30 9 C 4.492546 1.597135 2.202006 0
M  V30 10 C 3.344796 2.304364 1.952994 0
M  V30 11 N 3.151110 3.603442 1.720085 0
M  V30 12 C 1.990293 4.190313 1.486792 0
M  V30 13 N 0.833828 3.454414 1.467797 0
M  V30 14 C 0.905699 2.130421 1.689930 0
M  V30 15 N -0.253761 1.315324 1.687355 0
M  V30 16 C -0.906086 0.568385 0.678784 0
M  V30 17 C -0.387889 0.480484 -0.587878 0
M  V30 18 C -1.027649 -0.248387 -1.562003 0
M  V30 19 O -0.499558 -0.332617 -2.838956 0
M  V30 20 C 0.729512 0.353482 -3.121587 0
M  V30 21 C -2.209122 -0.878827 -1.192056 0
M  V30 22 O -2.810954 -1.604381 -2.226475 0
M  V30 23 C -3.746705 -0.842233 -3.011115 0
M  V30 24 C -2.759902 -0.805276 0.093878 0
M  V30 25 O -3.836931 -1.432284 0.275693 0
M  V30 26 C -4.941089 -2.073006 0.468319 0
M  V30 27 C -2.076709 -0.053040 1.055085 0
M  V30 28 C 2.143560 1.577046 1.926162 0
M  V30 29 C 2.295003 0.159262 2.169320 0
M  V30 30 S 1.047094 -1.085897 2.214096 0
M  V30 31 H -1.079276 -5.196530 3.950135 0
M  V30 32 H -0.327053 -5.575012 2.392734 0
M  V30 33 H 0.548258 -6.039427 3.899294 0
M  V30 34 H 2.125139 -5.807242 2.202491 0
M  V30 35 H 5.553731 -0.179714 2.611193 0
M  V30 36 H 5.386323 2.235061 2.206184 0
M  V30 37 H 1.954368 5.252806 1.308695 0
M  V30 38 H -0.545132 1.387948 2.665264 0
M  V30 39 H 0.527328 0.992549 -0.811184 0
M  V30 40 H 1.524970 0.016604 -2.419569 0
M  V30 41 H 0.631304 1.440962 -2.987083 0
M  V30 42 H 1.072786 0.119169 -4.143942 0
M  V30 43 H -3.082549 -0.152923 -3.606650 0
M  V30 44 H -4.293305 -0.184081 -2.319110 0
M  V30 45 H -4.369665 -1.462519 -3.658582 0
M  V30 46 H -5.090202 -2.594409 1.471609 0
M  V30 47 H -5.189453 -2.909405 -0.263916 0
M  V30 48 H -5.879177 -1.417988 0.380831 0
M  V30 49 H -2.484874 0.015689 2.055066 0
M  V30 END ATOM
M  V30 BEGIN BOND
M  V30 1 1 1 2
M  V30 2 1 2 3
M  V30 3 2 3 4 CFG=2
M  V30 4 1 3 5
M  V30 5 2 5 6
M  V30 6 1 6 7
M  V30 7 2 7 8
M  V30 8 1 8 9
M  V30 9 2 9 10
M  V30 10 1 10 11
M  V30 11 2 11 12
M  V30 12 1 12 13
M  V30 13 2 13 14
M  V30 14 1 14 15
M  V30 15 1 15 16
M  V30 16 2 16 17
M  V30 17 1 17 18
M  V30 18 1 18 19
M  V30 19 1 19 20
M  V30 20 2 18 21
M  V30 21 1 21 22
M  V30 22 1 22 23
M  V30 23 1 21 24
M  V30 24 1 24 25
M  V30 25 1 25 26
M  V30 26 2 24 27
M  V30 27 1 14 28
M  V30 28 2 28 29
M  V30 29 1 29 30
M  V30 30 1 30 5
M  V30 31 1 29 7
M  V30 32 1 28 10
M  V30 33 1 27 16
M  V30 34 1 1 31
M  V30 35 1 1 32
M  V30 36 1 1 33
M  V30 37 1 4 34
M  V30 38 1 8 35
M  V30 39 1 9 36
M  V30 40 1 12 37
M  V30 41 1 15 38
M  V30 42 1 17 39
M  V30 43 1 20 40
M  V30 44 1 20 41
M  V30 45 1 20 42
M  V30 46 1 23 43
M  V30 47 1 23 44
M  V30 48 1 23 45
M  V30 49 1 26 46
M  V30 50 1 26 47
M  V30 51 1 26 48
M  V30 52 1 27 49
M  V30 END BOND
M  V30 END CTAB
M  END
>  <Dataset>  (367) 
ChEMBL_Kinases

>  <Ligand_Instance>  (367) 
nan

>  <PDB_ID>  (367) 
nan

>  <Standardized_SMILES>  (367) 
COC(=N)c1nc2ccc3ncnc(Nc4cc(OC)c(OC)c(OC)c4)c3c2s1

>  <Name>  (367) 
nan

>  <Pocket>  (367) 
nan

>  <ATP_Site>  (367) 
nan

>  <Peripheral>  (367) 
nan

>  <Num_H_Atoms_ProtBoundConf>  (367) 
nan

>  <Num_Resolved_Atoms>  (367) 
nan

>  <Num_Not_Resolved_Atoms>  (367) 
nan

$$$$
CHEMBL2204096
     RDKit          3D

  0  0  0  0  0  0  0  0  0  0999 V3000
M  V30 BEGIN CTAB
M  V30 COUNTS 58 61 0 0 0
M  V30 BEGIN ATOM
M  V30 1 C 3.843238 -1.829750 -0.317239 0
M  V30 2 O 2.606810 -1.660254 0.345272 0
M  V30 3 C 1.463445 -2.323338 -0.079954 0
M  V30 4 O 1.803994 -3.020198 -1.085373 0
M  V30 5 C 0.129061 -2.259567 0.484007 0
M  V30 6 C -0.158610 -1.481188 1.573041 0
M  V30 7 C 0.886191 -0.657308 2.237357 0
M  V30 8 N 1.178076 0.526848 1.449522 0
M  V30 9 C 2.185293 1.276970 2.136742 0
M  V30 10 C 2.488580 2.619892 1.559654 0
M  V30 11 C 1.325694 3.336478 0.959743 0
M  V30 12 S 0.676111 4.478416 2.147999 0
M  V30 13 C -0.611972 5.482122 1.452209 0
M  V30 14 O 1.765590 5.383969 2.622804 0
M  V30 15 O 0.095718 3.742218 3.296896 0
M  V30 16 C 0.273669 2.452053 0.373380 0
M  V30 17 C -0.045005 1.246799 1.232031 0
M  V30 18 C -1.455573 -1.498358 2.020879 0
M  V30 19 O -1.740628 -0.788250 3.022441 0
M  V30 20 C -2.423847 -2.251876 1.417943 0
M  V30 21 C -3.699925 -2.205611 1.938478 0
M  V30 22 C -4.687416 -2.955673 1.346915 0
M  V30 23 C -4.348081 -3.725375 0.249971 0
M  V30 24 F -5.372461 -4.438391 -0.281611 0
M  V30 25 C -3.067634 -3.765307 -0.264077 0
M  V30 26 C -2.060672 -3.015219 0.320447 0
M  V30 27 N -0.788258 -3.013231 -0.137636 0
M  V30 28 C -0.550223 -3.845656 -1.277047 0
M  V30 29 C -0.117417 -5.130470 -1.347877 0
M  V30 30 C 0.038367 -5.731564 -2.579079 0
M  V30 31 C -0.240158 -5.045191 -3.756163 0
M  V30 32 C -0.682702 -3.732422 -3.693794 0
M  V30 33 C -0.835606 -3.138562 -2.450103 0
M  V30 34 H 4.639735 -1.762971 0.448774 0
M  V30 35 H 3.927901 -2.840419 -0.783774 0
M  V30 36 H 3.971107 -1.038512 -1.091925 0
M  V30 37 H 1.793307 -1.238746 2.495289 0
M  V30 38 H 0.472548 -0.289137 3.207164 0
M  V30 39 H 3.119697 0.665547 2.092129 0
M  V30 40 H 1.890965 1.351204 3.222205 0
M  V30 41 H 2.893882 3.239651 2.410378 0
M  V30 42 H 3.332700 2.526193 0.839265 0
M  V30 43 H 1.741284 3.942570 0.102253 0
M  V30 44 H -0.176464 6.157733 0.662775 0
M  V30 45 H -0.982577 6.147016 2.259214 0
M  V30 46 H -1.435753 4.865662 1.038715 0
M  V30 47 H 0.689592 2.036533 -0.590542 0
M  V30 48 H -0.622592 3.053031 0.179088 0
M  V30 49 H -0.496197 1.562578 2.190904 0
M  V30 50 H -0.724938 0.604967 0.662979 0
M  V30 51 H -3.912086 -1.584282 2.801811 0
M  V30 52 H -5.670542 -2.892262 1.783398 0
M  V30 53 H -2.846635 -4.377138 -1.118071 0
M  V30 54 H 0.068673 -5.568717 -0.381307 0
M  V30 55 H 0.385319 -6.755323 -2.578063 0
M  V30 56 H -0.115243 -5.523753 -4.717079 0
M  V30 57 H -0.886597 -3.238164 -4.635466 0
M  V30 58 H -1.186126 -2.114121 -2.530626 0
M  V30 END ATOM
M  V30 BEGIN BOND
M  V30 1 1 1 2
M  V30 2 1 2 3
M  V30 3 2 3 4
M  V30 4 1 3 5
M  V30 5 2 5 6
M  V30 6 1 6 7
M  V30 7 1 7 8
M  V30 8 1 8 9
M  V30 9 1 9 10
M  V30 10 1 10 11
M  V30 11 1 11 12
M  V30 12 1 12 13
M  V30 13 2 12 14
M  V30 14 2 12 15
M  V30 15 1 11 16
M  V30 16 1 16 17
M  V30 17 1 6 18
M  V30 18 2 18 19
M  V30 19 1 18 20
M  V30 20 2 20 21
M  V30 21 1 21 22
M  V30 22 2 22 23
M  V30 23 1 23 24
M  V30 24 1 23 25
M  V30 25 2 25 26
M  V30 26 1 26 27
M  V30 27 1 27 28
M  V30 28 2 28 29
M  V30 29 1 29 30
M  V30 30 2 30 31
M  V30 31 1 31 32
M  V30 32 2 32 33
M  V30 33 1 27 5
M  V30 34 1 33 28
M  V30 35 1 17 8
M  V30 36 1 26 20
M  V30 37 1 1 34
M  V30 38 1 1 35
M  V30 39 1 1 36
M  V30 40 1 7 37
M  V30 41 1 7 38
M  V30 42 1 9 39
M  V30 43 1 9 40
M  V30 44 1 10 41
M  V30 45 1 10 42
M  V30 46 1 11 43
M  V30 47 1 13 44
M  V30 48 1 13 45
M  V30 49 1 13 46
M  V30 50 1 16 47
M  V30 51 1 16 48
M  V30 52 1 17 49
M  V30 53 1 17 50
M  V30 54 1 21 51
M  V30 55 1 22 52
M  V30 56 1 25 53
M  V30 57 1 29 54
M  V30 58 1 30 55
M  V30 59 1 31 56
M  V30 60 1 32 57
M  V30 61 1 33 58
M  V30 END BOND
M  V30 END CTAB
M  END
>  <Dataset>  (368) 
ChEMBL_Kinases

>  <Ligand_Instance>  (368) 
nan

>  <PDB_ID>  (368) 
nan

>  <Standardized_SMILES>  (368) 
COC(=O)c1c(CN2CCC(S(C)(=O)=O)CC2)c(=O)c2ccc(F)cc2n1-c1ccccc1

>  <Name>  (368) 
nan

>  <Pocket>  (368) 
nan

>  <ATP_Site>  (368) 
nan

>  <Peripheral>  (368) 
nan

>  <Num_H_Atoms_ProtBoundConf>  (368) 
nan

>  <Num_Resolved_Atoms>  (368) 
nan

>  <Num_Not_Resolved_Atoms>  (368) 
nan

$$$$
CHEMBL3703111
     RDKit          3D

  0  0  0  0  0  0  0  0  0  0999 V3000
M  V30 BEGIN CTAB
M  V30 COUNTS 52 57 0 0 0
M  V30 BEGIN ATOM
M  V30 1 N -3.503351 -2.900823 4.759349 0
M  V30 2 C -3.027122 -3.483142 3.530810 0
M  V30 3 C -2.012138 -2.665776 2.848746 0
M  V30 4 C -2.180330 -1.300880 2.989763 0
M  V30 5 C -1.306544 -0.378082 2.406849 0
M  V30 6 C -0.235831 -0.863967 1.662371 0
M  V30 7 C 0.667350 0.118890 1.060509 0
M  V30 8 N 1.455674 1.070377 1.623258 0
M  V30 9 C 2.110962 1.735726 0.630139 0
M  V30 10 C 3.023939 2.784414 0.663008 0
M  V30 11 C 3.562463 3.299441 -0.522621 0
M  V30 12 C 4.530068 4.411387 -0.483388 0
M  V30 13 N 4.030793 5.652516 -0.668575 0
M  V30 14 N 4.996310 6.559856 -0.611073 0
M  V30 15 N 6.121645 5.868511 -0.385094 0
M  V30 16 N 5.871944 4.561968 -0.302546 0
M  V30 17 C 3.145702 2.719830 -1.710806 0
M  V30 18 C 2.230965 1.671351 -1.717019 0
M  V30 19 N 1.731345 1.199589 -0.547415 0
M  V30 20 C 0.839860 0.197452 -0.324646 0
M  V30 21 C 0.209966 -0.612967 -1.357254 0
M  V30 22 C 1.145861 -1.321329 -2.087191 0
M  V30 23 C 0.782703 -2.163953 -3.127133 0
M  V30 24 C -0.576421 -2.283727 -3.426955 0
M  V30 25 C -1.512848 -1.576290 -2.698172 0
M  V30 26 C -1.129760 -0.743375 -1.667448 0
M  V30 27 C -0.048221 -2.238224 1.507806 0
M  V30 28 C -0.939024 -3.109426 2.103358 0
M  V30 29 C -4.214107 -3.766441 2.605831 0
M  V30 30 C -3.538588 -5.063753 2.230607 0
M  V30 31 C -2.780689 -4.969488 3.535935 0
M  V30 32 H -4.308840 -2.259580 4.550377 0
M  V30 33 H -3.882409 -3.663612 5.358189 0
M  V30 34 H -2.985018 -0.822946 3.551493 0
M  V30 35 H -1.434720 0.695885 2.514970 0
M  V30 36 H 3.326699 3.214220 1.627887 0
M  V30 37 H 7.123155 6.205937 -0.270622 0
M  V30 38 H 3.598573 3.162870 -2.593651 0
M  V30 39 H 1.969750 1.287620 -2.697789 0
M  V30 40 H 2.224263 -1.308505 -1.946504 0
M  V30 41 H 1.486011 -2.738890 -3.726266 0
M  V30 42 H -0.946697 -2.917561 -4.220428 0
M  V30 43 H -2.585372 -1.634409 -2.891755 0
M  V30 44 H -1.769017 -0.144950 -1.033226 0
M  V30 45 H 0.771517 -2.598657 0.937890 0
M  V30 46 H -0.843050 -4.171756 2.017572 0
M  V30 47 H -5.183444 -3.859236 3.109110 0
M  V30 48 H -4.280481 -3.003046 1.794568 0
M  V30 49 H -2.949891 -5.080686 1.308855 0
M  V30 50 H -4.256108 -5.921308 2.197838 0
M  V30 51 H -1.741240 -5.305524 3.537585 0
M  V30 52 H -3.421919 -5.442072 4.336593 0
M  V30 END ATOM
M  V30 BEGIN BOND
M  V30 1 1 1 2
M  V30 2 1 2 3
M  V30 3 2 3 4
M  V30 4 1 4 5
M  V30 5 2 5 6
M  V30 6 1 6 7
M  V30 7 1 7 8
M  V30 8 2 8 9
M  V30 9 1 9 10
M  V30 10 2 10 11
M  V30 11 1 11 12
M  V30 12 1 12 13
M  V30 13 2 13 14
M  V30 14 1 14 15
M  V30 15 1 15 16
M  V30 16 1 11 17
M  V30 17 2 17 18
M  V30 18 1 18 19
M  V30 19 1 19 20
M  V30 20 1 20 21
M  V30 21 2 21 22
M  V30 22 1 22 23
M  V30 23 2 23 24
M  V30 24 1 24 25
M  V30 25 2 25 26
M  V30 26 1 6 27
M  V30 27 2 27 28
M  V30 28 1 2 29
M  V30 29 1 29 30
M  V30 30 1 30 31
M  V30 31 1 31 2
M  V30 32 1 28 3
M  V30 33 2 20 7
M  V30 34 1 26 21
M  V30 35 1 19 9
M  V30 36 2 16 12
M  V30 37 1 1 32
M  V30 38 1 1 33
M  V30 39 1 4 34
M  V30 40 1 5 35
M  V30 41 1 10 36
M  V30 42 1 15 37
M  V30 43 1 17 38
M  V30 44 1 18 39
M  V30 45 1 22 40
M  V30 46 1 23 41
M  V30 47 1 24 42
M  V30 48 1 25 43
M  V30 49 1 26 44
M  V30 50 1 27 45
M  V30 51 1 28 46
M  V30 52 1 29 47
M  V30 53 1 29 48
M  V30 54 1 30 49
M  V30 55 1 30 50
M  V30 56 1 31 51
M  V30 57 1 31 52
M  V30 END BOND
M  V30 END CTAB
M  END
>  <Dataset>  (369) 
ChEMBL_Kinases

>  <Ligand_Instance>  (369) 
nan

>  <PDB_ID>  (369) 
nan

>  <Standardized_SMILES>  (369) 
NC1(c2ccc(-c3nc4cc(-c5nn[nH]n5)ccn4c3-c3ccccc3)cc2)CCC1

>  <Name>  (369) 
nan

>  <Pocket>  (369) 
nan

>  <ATP_Site>  (369) 
nan

>  <Peripheral>  (369) 
nan

>  <Num_H_Atoms_ProtBoundConf>  (369) 
nan

>  <Num_Resolved_Atoms>  (369) 
nan

>  <Num_Not_Resolved_Atoms>  (369) 
nan

$$$$
CHEMBL2386759
     RDKit          3D

  0  0  0  0  0  0  0  0  0  0999 V3000
M  V30 BEGIN CTAB
M  V30 COUNTS 34 37 0 0 0
M  V30 BEGIN ATOM
M  V30 1 N -1.180396 -3.667311 3.348780 0
M  V30 2 C 0.148438 -3.923066 2.939565 0
M  V30 3 O 0.746562 -4.963982 3.210238 0
M  V30 4 C 0.970533 -2.954846 2.132888 0
M  V30 5 N 1.972583 -2.777147 1.642647 0
M  V30 6 C 2.427220 -1.754680 0.955170 0
M  V30 7 C 3.663838 -1.563797 0.363136 0
M  V30 8 C 3.928187 -0.411783 -0.313178 0
M  V30 9 C 3.052743 0.638323 -0.480418 0
M  V30 10 N 3.255181 1.792246 -1.134409 0
M  V30 11 C 2.273463 2.739097 -1.209482 0
M  V30 12 N 1.067963 2.552971 -0.632048 0
M  V30 13 C 0.788716 1.404305 0.050542 0
M  V30 14 N -0.474531 1.215179 0.653955 0
M  V30 15 C -1.695496 0.634513 0.217525 0
M  V30 16 C -1.744786 0.113144 -1.056730 0
M  V30 17 C -2.964796 -0.441242 -1.430150 0
M  V30 18 C -4.051562 -0.453684 -0.547464 0
M  V30 19 F -5.249514 -1.004256 -0.929097 0
M  V30 20 C -3.918019 0.091231 0.715533 0
M  V30 21 C -2.716368 0.661080 1.142869 0
M  V30 22 Br -2.514922 1.416419 2.876163 0
M  V30 23 C 1.811947 0.480537 0.097099 0
M  V30 24 C 1.539144 -0.714466 0.798192 0
M  V30 25 S 0.108532 -1.324855 1.674369 0
M  V30 26 H -2.093144 -3.395047 3.755594 0
M  V30 27 H -2.072092 -4.047233 2.910500 0
M  V30 28 H 4.494321 -2.278571 0.382705 0
M  V30 29 H 4.904194 -0.232880 -0.794314 0
M  V30 30 H 2.553955 3.630070 -1.764815 0
M  V30 31 H -0.299402 1.639449 1.589822 0
M  V30 32 H -0.881300 0.140282 -1.712354 0
M  V30 33 H -3.084720 -0.867770 -2.407117 0
M  V30 34 H -4.768077 0.084284 1.412529 0
M  V30 END ATOM
M  V30 BEGIN BOND
M  V30 1 1 1 2
M  V30 2 2 2 3
M  V30 3 1 2 4
M  V30 4 2 4 5
M  V30 5 1 5 6
M  V30 6 2 6 7
M  V30 7 1 7 8
M  V30 8 2 8 9
M  V30 9 1 9 10
M  V30 10 2 10 11
M  V30 11 1 11 12
M  V30 12 2 12 13
M  V30 13 1 13 14
M  V30 14 1 14 15
M  V30 15 2 15 16
M  V30 16 1 16 17
M  V30 17 2 17 18
M  V30 18 1 18 19
M  V30 19 1 18 20
M  V30 20 2 20 21
M  V30 21 1 21 22
M  V30 22 1 13 23
M  V30 23 2 23 24
M  V30 24 1 24 25
M  V30 25 1 25 4
M  V30 26 1 24 6
M  V30 27 1 23 9
M  V30 28 1 21 15
M  V30 29 1 1 26
M  V30 30 1 1 27
M  V30 31 1 7 28
M  V30 32 1 8 29
M  V30 33 1 11 30
M  V30 34 1 14 31
M  V30 35 1 16 32
M  V30 36 1 17 33
M  V30 37 1 20 34
M  V30 END BOND
M  V30 END CTAB
M  END
>  <Dataset>  (370) 
ChEMBL_Kinases

>  <Ligand_Instance>  (370) 
nan

>  <PDB_ID>  (370) 
nan

>  <Standardized_SMILES>  (370) 
NC(=O)c1nc2ccc3ncnc(Nc4ccc(F)cc4Br)c3c2s1

>  <Name>  (370) 
nan

>  <Pocket>  (370) 
nan

>  <ATP_Site>  (370) 
nan

>  <Peripheral>  (370) 
nan

>  <Num_H_Atoms_ProtBoundConf>  (370) 
nan

>  <Num_Resolved_Atoms>  (370) 
nan

>  <Num_Not_Resolved_Atoms>  (370) 
nan

$$$$
CHEMBL2386760
     RDKit          3D

  0  0  0  0  0  0  0  0  0  0999 V3000
M  V30 BEGIN CTAB
M  V30 COUNTS 36 39 0 0 0
M  V30 BEGIN ATOM
M  V30 1 C 2.413659 -3.576321 4.367843 0
M  V30 2 O 2.185397 -2.649754 3.333684 0
M  V30 3 C 3.109107 -2.205303 2.461265 0
M  V30 4 O 4.347225 -2.506519 2.380499 0
M  V30 5 C 2.993307 -1.236067 1.327017 0
M  V30 6 N 3.451319 -0.657879 0.427223 0
M  V30 7 C 2.875107 0.179214 -0.389084 0
M  V30 8 C 3.504931 0.832189 -1.460116 0
M  V30 9 C 2.744418 1.680668 -2.229616 0
M  V30 10 C 1.423813 1.972239 -2.075183 0
M  V30 11 N 0.590022 2.749395 -2.734470 0
M  V30 12 C -0.703837 2.896023 -2.417750 0
M  V30 13 N -1.212048 2.222803 -1.368766 0
M  V30 14 C -0.460267 1.395968 -0.614668 0
M  V30 15 N -1.258727 0.844394 0.386400 0
M  V30 16 C -1.998212 -0.280634 0.788078 0
M  V30 17 C -2.018385 -1.115627 1.880540 0
M  V30 18 C -2.849977 -2.182051 1.944911 0
M  V30 19 C -3.745144 -2.549606 0.971176 0
M  V30 20 Cl -4.753788 -3.951142 1.180376 0
M  V30 21 C -3.741269 -1.717444 -0.138283 0
M  V30 22 C -2.893036 -0.613325 -0.230628 0
M  V30 23 Cl -3.178379 0.199312 -1.778589 0
M  V30 24 C 0.815127 1.336994 -1.034420 0
M  V30 25 C 1.562410 0.411511 -0.162009 0
M  V30 26 S 1.227905 -0.551862 1.171341 0
M  V30 27 H 2.183070 -3.068563 5.327656 0
M  V30 28 H 3.414221 -4.053000 4.346553 0
M  V30 29 H 1.633976 -4.380811 4.266695 0
M  V30 30 H 4.558318 0.746014 -1.765463 0
M  V30 31 H 3.197925 2.215779 -3.082870 0
M  V30 32 H -1.255276 3.585211 -3.079692 0
M  V30 33 H -1.390101 1.514973 1.197314 0
M  V30 34 H -1.308377 -0.778419 2.617186 0
M  V30 35 H -2.773484 -2.774140 2.862787 0
M  V30 36 H -4.477283 -2.061091 -0.881954 0
M  V30 END ATOM
M  V30 BEGIN BOND
M  V30 1 1 1 2
M  V30 2 1 2 3
M  V30 3 2 3 4
M  V30 4 1 3 5
M  V30 5 2 5 6
M  V30 6 1 6 7
M  V30 7 2 7 8
M  V30 8 1 8 9
M  V30 9 2 9 10
M  V30 10 1 10 11
M  V30 11 2 11 12
M  V30 12 1 12 13
M  V30 13 2 13 14
M  V30 14 1 14 15
M  V30 15 1 15 16
M  V30 16 2 16 17
M  V30 17 1 17 18
M  V30 18 2 18 19
M  V30 19 1 19 20
M  V30 20 1 19 21
M  V30 21 2 21 22
M  V30 22 1 22 23
M  V30 23 1 14 24
M  V30 24 2 24 25
M  V30 25 1 25 26
M  V30 26 1 26 5
M  V30 27 1 25 7
M  V30 28 1 24 10
M  V30 29 1 22 16
M  V30 30 1 1 27
M  V30 31 1 1 28
M  V30 32 1 1 29
M  V30 33 1 8 30
M  V30 34 1 9 31
M  V30 35 1 12 32
M  V30 36 1 15 33
M  V30 37 1 17 34
M  V30 38 1 18 35
M  V30 39 1 21 36
M  V30 END BOND
M  V30 END CTAB
M  END
>  <Dataset>  (371) 
ChEMBL_Kinases

>  <Ligand_Instance>  (371) 
nan

>  <PDB_ID>  (371) 
nan

>  <Standardized_SMILES>  (371) 
COC(=O)c1nc2ccc3ncnc(Nc4ccc(Cl)cc4Cl)c3c2s1

>  <Name>  (371) 
nan

>  <Pocket>  (371) 
nan

>  <ATP_Site>  (371) 
nan

>  <Peripheral>  (371) 
nan

>  <Num_H_Atoms_ProtBoundConf>  (371) 
nan

>  <Num_Resolved_Atoms>  (371) 
nan

>  <Num_Not_Resolved_Atoms>  (371) 
nan

$$$$
CHEMBL3703109
     RDKit          3D

  0  0  0  0  0  0  0  0  0  0999 V3000
M  V30 BEGIN CTAB
M  V30 COUNTS 54 59 0 0 0
M  V30 BEGIN ATOM
M  V30 1 N -2.070004 -6.205099 1.049377 0
M  V30 2 C -1.405701 -5.705227 -0.156849 0
M  V30 3 C -0.920420 -4.325402 -0.007696 0
M  V30 4 C -0.902379 -3.278674 -0.917553 0
M  V30 5 C -0.393894 -2.044497 -0.571880 0
M  V30 6 C 0.119927 -1.808514 0.707029 0
M  V30 7 C 0.597525 -0.437578 0.833185 0
M  V30 8 N 1.868624 -0.031602 1.073690 0
M  V30 9 C 1.904600 1.320457 1.116881 0
M  V30 10 C 2.949918 2.231584 1.329438 0
M  V30 11 C 2.659921 3.582765 1.312908 0
M  V30 12 C 3.748938 4.529374 1.534410 0
M  V30 13 C 3.648802 5.912453 1.553406 0
M  V30 14 N 4.896440 6.415416 1.791675 0
M  V30 15 C 5.715266 5.332360 1.910259 0
M  V30 16 N 5.031739 4.182064 1.756279 0
M  V30 17 C 1.373045 4.033296 1.092838 0
M  V30 18 C 0.366163 3.100823 0.886662 0
M  V30 19 N 0.640065 1.763914 0.900740 0
M  V30 20 C -0.168092 0.709598 0.726285 0
M  V30 21 C -1.606810 0.813967 0.470365 0
M  V30 22 C -2.458822 0.264824 1.433443 0
M  V30 23 C -3.827137 0.338915 1.234899 0
M  V30 24 C -4.296424 0.961186 0.077717 0
M  V30 25 C -3.437396 1.504955 -0.875213 0
M  V30 26 C -2.074793 1.419998 -0.657550 0
M  V30 27 C 0.105450 -2.843156 1.616364 0
M  V30 28 C -0.403124 -4.076529 1.269811 0
M  V30 29 C -0.383872 -6.717658 -0.635808 0
M  V30 30 C -1.530151 -7.401328 -1.384146 0
M  V30 31 C -2.193840 -6.018343 -1.410997 0
M  V30 32 H -2.739315 -5.528379 1.434398 0
M  V30 33 H -1.350832 -6.535203 1.733896 0
M  V30 34 H -1.312030 -3.539686 -1.871433 0
M  V30 35 H -0.459163 -1.343025 -1.407284 0
M  V30 36 H 3.951145 1.844377 1.499650 0
M  V30 37 H 2.751830 6.526995 1.407824 0
M  V30 38 H 6.780398 5.425056 2.104449 0
M  V30 39 H 5.454915 3.233533 1.807020 0
M  V30 40 H 1.123259 5.085229 1.075474 0
M  V30 41 H -0.639580 3.476405 0.714774 0
M  V30 42 H -2.097971 -0.219281 2.333860 0
M  V30 43 H -4.563198 -0.061175 1.929916 0
M  V30 44 H -5.350960 1.069825 -0.169802 0
M  V30 45 H -3.813374 1.986168 -1.769723 0
M  V30 46 H -1.335047 1.812414 -1.341198 0
M  V30 47 H 0.522693 -2.553407 2.563845 0
M  V30 48 H -0.345806 -4.786987 2.091111 0
M  V30 49 H 0.040113 -7.274673 0.198103 0
M  V30 50 H 0.325389 -6.326294 -1.382544 0
M  V30 51 H -1.265017 -7.799173 -2.371825 0
M  V30 52 H -2.128902 -8.079945 -0.733995 0
M  V30 53 H -3.296914 -6.040530 -1.205433 0
M  V30 54 H -1.914239 -5.420040 -2.292352 0
M  V30 END ATOM
M  V30 BEGIN BOND
M  V30 1 1 1 2
M  V30 2 1 2 3
M  V30 3 2 3 4
M  V30 4 1 4 5
M  V30 5 2 5 6
M  V30 6 1 6 7
M  V30 7 1 7 8
M  V30 8 2 8 9
M  V30 9 1 9 10
M  V30 10 2 10 11
M  V30 11 1 11 12
M  V30 12 2 12 13
M  V30 13 1 13 14
M  V30 14 2 14 15
M  V30 15 1 15 16
M  V30 16 1 11 17
M  V30 17 2 17 18
M  V30 18 1 18 19
M  V30 19 1 19 20
M  V30 20 1 20 21
M  V30 21 2 21 22
M  V30 22 1 22 23
M  V30 23 2 23 24
M  V30 24 1 24 25
M  V30 25 2 25 26
M  V30 26 1 6 27
M  V30 27 2 27 28
M  V30 28 1 2 29
M  V30 29 1 29 30
M  V30 30 1 30 31
M  V30 31 1 31 2
M  V30 32 1 28 3
M  V30 33 2 20 7
M  V30 34 1 26 21
M  V30 35 1 19 9
M  V30 36 1 16 12
M  V30 37 1 1 32
M  V30 38 1 1 33
M  V30 39 1 4 34
M  V30 40 1 5 35
M  V30 41 1 10 36
M  V30 42 1 13 37
M  V30 43 1 15 38
M  V30 44 1 16 39
M  V30 45 1 17 40
M  V30 46 1 18 41
M  V30 47 1 22 42
M  V30 48 1 23 43
M  V30 49 1 24 44
M  V30 50 1 25 45
M  V30 51 1 26 46
M  V30 52 1 27 47
M  V30 53 1 28 48
M  V30 54 1 29 49
M  V30 55 1 29 50
M  V30 56 1 30 51
M  V30 57 1 30 52
M  V30 58 1 31 53
M  V30 59 1 31 54
M  V30 END BOND
M  V30 END CTAB
M  END
>  <Dataset>  (372) 
ChEMBL_Kinases

>  <Ligand_Instance>  (372) 
nan

>  <PDB_ID>  (372) 
nan

>  <Standardized_SMILES>  (372) 
NC1(c2ccc(-c3nc4cc(-c5cnc[nH]5)ccn4c3-c3ccccc3)cc2)CCC1

>  <Name>  (372) 
nan

>  <Pocket>  (372) 
nan

>  <ATP_Site>  (372) 
nan

>  <Peripheral>  (372) 
nan

>  <Num_H_Atoms_ProtBoundConf>  (372) 
nan

>  <Num_Resolved_Atoms>  (372) 
nan

>  <Num_Not_Resolved_Atoms>  (372) 
nan

$$$$
CHEMBL3703131
     RDKit          3D

  0  0  0  0  0  0  0  0  0  0999 V3000
M  V30 BEGIN CTAB
M  V30 COUNTS 47 51 0 0 0
M  V30 BEGIN ATOM
M  V30 1 N 1.291518 -4.749018 2.892004 0
M  V30 2 C 0.161549 -4.396161 2.068034 0
M  V30 3 C 0.448800 -3.186765 1.268235 0
M  V30 4 C 0.308285 -3.024403 -0.094368 0
M  V30 5 C 0.621952 -1.817895 -0.703204 0
M  V30 6 C 1.078701 -0.784760 0.093402 0
M  V30 7 C 1.420528 0.506043 -0.493697 0
M  V30 8 N 2.300293 0.993741 -1.410534 0
M  V30 9 C 2.120830 2.324652 -1.525837 0
M  V30 10 C 2.751405 3.269551 -2.308856 0
M  V30 11 C 2.405370 4.622477 -2.274682 0
M  V30 12 C 1.391826 4.993274 -1.415434 0
M  V30 13 Cl 0.922711 6.681023 -1.338105 0
M  V30 14 C 0.756937 4.030515 -0.624604 0
M  V30 15 N 1.131225 2.719358 -0.693793 0
M  V30 16 C 0.680902 1.605905 -0.042113 0
M  V30 17 C -0.413536 1.702670 0.950400 0
M  V30 18 C -1.518895 0.966406 0.571663 0
M  V30 19 C -2.623371 0.953871 1.389977 0
M  V30 20 C -2.618518 1.667708 2.567853 0
M  V30 21 C -1.492924 2.401484 2.927023 0
M  V30 22 C -0.362776 2.431051 2.117337 0
M  V30 23 C 1.231296 -0.920685 1.478113 0
M  V30 24 C 0.912673 -2.131748 2.063302 0
M  V30 25 C -0.343854 -5.598434 1.298737 0
M  V30 26 C -1.745541 -5.059004 1.513287 0
M  V30 27 C -1.184504 -4.375505 2.767974 0
M  V30 28 H 1.445088 -5.777248 2.938149 0
M  V30 29 H 1.312672 -4.264463 3.816622 0
M  V30 30 H -0.055768 -3.891046 -0.627087 0
M  V30 31 H 0.505457 -1.712745 -1.763513 0
M  V30 32 H 3.551417 2.926917 -2.976649 0
M  V30 33 H 2.937453 5.323824 -2.915111 0
M  V30 34 H -0.047268 4.345708 0.052930 0
M  V30 35 H -1.605961 0.379402 -0.333249 0
M  V30 36 H -3.519779 0.391862 1.141076 0
M  V30 37 H -3.490412 1.652039 3.203558 0
M  V30 38 H -1.445286 2.979720 3.846646 0
M  V30 39 H 0.548513 2.972173 2.320013 0
M  V30 40 H 1.590889 -0.086030 2.056269 0
M  V30 41 H 1.054611 -2.166141 3.138573 0
M  V30 42 H -0.234791 -6.519567 1.929845 0
M  V30 43 H -0.003594 -5.716286 0.271652 0
M  V30 44 H -2.524536 -5.829118 1.720994 0
M  V30 45 H -2.116904 -4.341631 0.771704 0
M  V30 46 H -1.664637 -3.383503 2.866834 0
M  V30 47 H -1.279962 -5.053486 3.620227 0
M  V30 END ATOM
M  V30 BEGIN BOND
M  V30 1 1 1 2
M  V30 2 1 2 3
M  V30 3 2 3 4
M  V30 4 1 4 5
M  V30 5 2 5 6
M  V30 6 1 6 7
M  V30 7 1 7 8
M  V30 8 2 8 9
M  V30 9 1 9 10
M  V30 10 2 10 11
M  V30 11 1 11 12
M  V30 12 1 12 13
M  V30 13 2 12 14
M  V30 14 1 14 15
M  V30 15 1 15 16
M  V30 16 1 16 17
M  V30 17 2 17 18
M  V30 18 1 18 19
M  V30 19 2 19 20
M  V30 20 1 20 21
M  V30 21 2 21 22
M  V30 22 1 6 23
M  V30 23 2 23 24
M  V30 24 1 2 25
M  V30 25 1 25 26
M  V30 26 1 26 27
M  V30 27 1 27 2
M  V30 28 1 24 3
M  V30 29 2 16 7
M  V30 30 1 22 17
M  V30 31 1 15 9
M  V30 32 1 1 28
M  V30 33 1 1 29
M  V30 34 1 4 30
M  V30 35 1 5 31
M  V30 36 1 10 32
M  V30 37 1 11 33
M  V30 38 1 14 34
M  V30 39 1 18 35
M  V30 40 1 19 36
M  V30 41 1 20 37
M  V30 42 1 21 38
M  V30 43 1 22 39
M  V30 44 1 23 40
M  V30 45 1 24 41
M  V30 46 1 25 42
M  V30 47 1 25 43
M  V30 48 1 26 44
M  V30 49 1 26 45
M  V30 50 1 27 46
M  V30 51 1 27 47
M  V30 END BOND
M  V30 END CTAB
M  END
>  <Dataset>  (373) 
ChEMBL_Kinases

>  <Ligand_Instance>  (373) 
nan

>  <PDB_ID>  (373) 
nan

>  <Standardized_SMILES>  (373) 
NC1(c2ccc(-c3nc4ccc(Cl)cn4c3-c3ccccc3)cc2)CCC1

>  <Name>  (373) 
nan

>  <Pocket>  (373) 
nan

>  <ATP_Site>  (373) 
nan

>  <Peripheral>  (373) 
nan

>  <Num_H_Atoms_ProtBoundConf>  (373) 
nan

>  <Num_Resolved_Atoms>  (373) 
nan

>  <Num_Not_Resolved_Atoms>  (373) 
nan

$$$$
CHEMBL4460511
     RDKit          3D

  0  0  0  0  0  0  0  0  0  0999 V3000
M  V30 BEGIN CTAB
M  V30 COUNTS 44 46 0 0 0
M  V30 BEGIN ATOM
M  V30 1 C 1.405435 -6.476639 -3.265918 0
M  V30 2 O 1.817472 -5.112343 -3.095184 0
M  V30 3 C 0.938705 -4.138786 -2.689200 0
M  V30 4 C -0.398617 -4.384477 -2.413922 0
M  V30 5 C -1.207621 -3.330362 -2.008864 0
M  V30 6 C -0.649882 -2.073534 -1.894735 0
M  V30 7 C 0.675288 -1.799395 -2.161427 0
M  V30 8 C 1.243714 -0.414946 -2.024542 0 CFG=1
M  V30 9 C 0.832429 0.361843 -3.229579 0
M  V30 10 N 0.749688 0.110370 -0.777372 0
M  V30 11 C 1.553133 0.446106 0.339220 0
M  V30 12 O 2.788549 0.242715 0.154457 0
M  V30 13 C 1.003446 0.977273 1.585938 0
M  V30 14 C -0.336961 1.213975 1.828774 0
M  V30 15 C -0.759256 1.720467 3.046595 0
M  V30 16 C 0.130501 2.008547 4.061821 0
M  V30 17 C -0.240407 2.542536 5.366923 0
M  V30 18 C -1.540435 2.822232 5.734791 0
M  V30 19 C -1.915617 3.327348 6.962337 0
M  V30 20 N -0.934671 3.556514 7.847929 0
M  V30 21 C 0.324600 3.300293 7.530443 0
M  V30 22 N 0.665846 2.807701 6.326304 0
M  V30 23 C 1.472590 1.776206 3.830994 0
M  V30 24 C 1.893951 1.265334 2.601328 0
M  V30 25 C 1.467086 -2.870675 -2.565721 0
M  V30 26 H 0.863754 -6.626107 -4.220259 0
M  V30 27 H 2.280208 -7.148109 -3.278975 0
M  V30 28 H 0.765560 -6.811344 -2.417936 0
M  V30 29 H -0.758865 -5.400789 -2.528197 0
M  V30 30 H -2.254510 -3.533331 -1.795483 0
M  V30 31 H -1.320852 -1.288306 -1.576454 0
M  V30 32 H 2.348268 -0.536673 -2.030961 0
M  V30 33 H -0.213309 0.753674 -3.062458 0
M  V30 34 H 0.716837 -0.344088 -4.078031 0
M  V30 35 H 1.520692 1.181070 -3.507747 0
M  V30 36 H -0.287109 0.245547 -0.716159 0
M  V30 37 H -1.030178 0.987615 1.032748 0
M  V30 38 H -1.805898 1.898950 3.219452 0
M  V30 39 H -2.344738 2.644009 5.034247 0
M  V30 40 H -2.957620 3.525528 7.188482 0
M  V30 41 H 1.204213 3.440211 8.151287 0
M  V30 42 H 2.203892 1.996865 4.622844 0
M  V30 43 H 2.980204 1.118946 2.524591 0
M  V30 44 H 2.508370 -2.652795 -2.774792 0
M  V30 END ATOM
M  V30 BEGIN BOND
M  V30 1 1 1 2
M  V30 2 1 2 3
M  V30 3 2 3 4
M  V30 4 1 4 5
M  V30 5 2 5 6
M  V30 6 1 6 7
M  V30 7 1 7 8
M  V30 8 1 8 9
M  V30 9 1 8 10
M  V30 10 1 10 11
M  V30 11 2 11 12
M  V30 12 1 11 13
M  V30 13 2 13 14
M  V30 14 1 14 15
M  V30 15 2 15 16
M  V30 16 1 16 17
M  V30 17 2 17 18
M  V30 18 1 18 19
M  V30 19 2 19 20
M  V30 20 1 20 21
M  V30 21 2 21 22
M  V30 22 1 16 23
M  V30 23 2 23 24
M  V30 24 2 7 25
M  V30 25 1 25 3
M  V30 26 1 24 13
M  V30 27 1 22 17
M  V30 28 1 1 26
M  V30 29 1 1 27
M  V30 30 1 1 28
M  V30 31 1 4 29
M  V30 32 1 5 30
M  V30 33 1 6 31
M  V30 34 1 8 32 CFG=1
M  V30 35 1 9 33
M  V30 36 1 9 34
M  V30 37 1 9 35
M  V30 38 1 10 36
M  V30 39 1 14 37
M  V30 40 1 15 38
M  V30 41 1 18 39
M  V30 42 1 19 40
M  V30 43 1 21 41
M  V30 44 1 23 42
M  V30 45 1 24 43
M  V30 46 1 25 44
M  V30 END BOND
M  V30 END CTAB
M  END
>  <Dataset>  (374) 
ChEMBL_Kinases

>  <Ligand_Instance>  (374) 
nan

>  <PDB_ID>  (374) 
nan

>  <Standardized_SMILES>  (374) 
COc1cccc([C@@H](C)NC(=O)c2ccc(-c3ccncn3)cc2)c1

>  <Name>  (374) 
nan

>  <Pocket>  (374) 
nan

>  <ATP_Site>  (374) 
nan

>  <Peripheral>  (374) 
nan

>  <Num_H_Atoms_ProtBoundConf>  (374) 
nan

>  <Num_Resolved_Atoms>  (374) 
nan

>  <Num_Not_Resolved_Atoms>  (374) 
nan

$$$$
CHEMBL3703132
     RDKit          3D

  0  0  0  0  0  0  0  0  0  0999 V3000
M  V30 BEGIN CTAB
M  V30 COUNTS 57 61 0 0 0
M  V30 BEGIN ATOM
M  V30 1 C 8.214081 -5.045651 3.335173 0
M  V30 2 O 7.095530 -4.230477 2.954966 0
M  V30 3 C 5.920551 -4.789557 2.471971 0
M  V30 4 O 5.612313 -6.015815 2.281388 0
M  V30 5 C 4.863172 -3.815173 2.124836 0
M  V30 6 C 4.981958 -2.502900 2.247819 0
M  V30 7 C 4.018099 -1.452384 1.941027 0
M  V30 8 C 4.323769 -0.117093 2.135994 0
M  V30 9 C 3.362197 0.822201 1.823424 0
M  V30 10 C 2.121922 0.472539 1.328860 0
M  V30 11 N 1.047758 1.212872 0.961411 0
M  V30 12 C 0.062495 0.394598 0.536795 0
M  V30 13 C -1.244480 0.847353 0.063771 0
M  V30 14 C -2.123607 1.558632 0.856478 0
M  V30 15 C -3.354715 1.973244 0.379078 0
M  V30 16 C -3.752123 1.686512 -0.923303 0
M  V30 17 C -5.077745 2.188441 -1.286139 0
M  V30 18 N -6.123467 1.917076 -0.302020 0
M  V30 19 C -5.592481 1.934104 -2.655818 0
M  V30 20 C -6.033538 3.379069 -2.719141 0
M  V30 21 C -4.984002 3.665256 -1.656401 0
M  V30 22 C -2.865887 0.975831 -1.704988 0
M  V30 23 C -1.634891 0.557867 -1.236921 0
M  V30 24 C 0.567859 -0.884537 0.655223 0
M  V30 25 C -0.161879 -2.100760 0.305011 0
M  V30 26 C 0.349648 -2.925518 -0.688888 0
M  V30 27 C -0.328130 -4.092404 -1.042325 0
M  V30 28 C -1.518731 -4.436375 -0.402206 0
M  V30 29 C -2.027787 -3.606194 0.593799 0
M  V30 30 C -1.340509 -2.453492 0.929581 0
M  V30 31 N 1.823703 -0.829701 1.138670 0
M  V30 32 C 2.768834 -1.763061 1.445336 0
M  V30 33 H 9.131428 -4.729404 2.826712 0
M  V30 34 H 8.340637 -4.956869 4.428181 0
M  V30 35 H 7.994753 -6.124531 3.132392 0
M  V30 36 H 3.881654 -4.119936 1.730948 0
M  V30 37 H 5.962692 -2.190551 2.641411 0
M  V30 38 H 5.290229 0.104888 2.518411 0
M  V30 39 H 3.644252 1.851123 1.991492 0
M  V30 40 H -1.781315 1.761075 1.856149 0
M  V30 41 H -3.982935 2.531217 1.081089 0
M  V30 42 H -5.724849 1.475948 0.552058 0
M  V30 43 H -6.825338 1.230847 -0.676895 0
M  V30 44 H -6.495388 1.276848 -2.685756 0
M  V30 45 H -4.906554 1.610754 -3.441441 0
M  V30 46 H -7.061797 3.568689 -2.317210 0
M  V30 47 H -5.871702 3.893993 -3.668926 0
M  V30 48 H -3.998201 3.950595 -2.067442 0
M  V30 49 H -5.318526 4.297448 -0.808212 0
M  V30 50 H -3.200380 0.770795 -2.701892 0
M  V30 51 H -1.021461 0.008311 -1.935157 0
M  V30 52 H 1.282085 -2.703992 -1.225057 0
M  V30 53 H 0.042695 -4.763903 -1.817014 0
M  V30 54 H -2.044562 -5.352187 -0.684036 0
M  V30 55 H -2.964889 -3.880121 1.095307 0
M  V30 56 H -1.726637 -1.789879 1.709928 0
M  V30 57 H 2.446207 -2.759409 1.263589 0
M  V30 END ATOM
M  V30 BEGIN BOND
M  V30 1 1 1 2
M  V30 2 1 2 3
M  V30 3 2 3 4
M  V30 4 1 3 5
M  V30 5 2 5 6
M  V30 6 1 6 7
M  V30 7 1 7 8
M  V30 8 2 8 9
M  V30 9 1 9 10
M  V30 10 2 10 11
M  V30 11 1 11 12
M  V30 12 1 12 13
M  V30 13 2 13 14
M  V30 14 1 14 15
M  V30 15 2 15 16
M  V30 16 1 16 17
M  V30 17 1 17 18
M  V30 18 1 17 19
M  V30 19 1 19 20
M  V30 20 1 20 21
M  V30 21 1 16 22
M  V30 22 2 22 23
M  V30 23 2 12 24
M  V30 24 1 24 25
M  V30 25 2 25 26
M  V30 26 1 26 27
M  V30 27 2 27 28
M  V30 28 1 28 29
M  V30 29 2 29 30
M  V30 30 1 24 31
M  V30 31 1 31 32
M  V30 32 2 32 7
M  V30 33 1 31 10
M  V30 34 1 23 13
M  V30 35 1 30 25
M  V30 36 1 21 17
M  V30 37 1 1 33
M  V30 38 1 1 34
M  V30 39 1 1 35
M  V30 40 1 5 36
M  V30 41 1 6 37
M  V30 42 1 8 38
M  V30 43 1 9 39
M  V30 44 1 14 40
M  V30 45 1 15 41
M  V30 46 1 18 42
M  V30 47 1 18 43
M  V30 48 1 19 44
M  V30 49 1 19 45
M  V30 50 1 20 46
M  V30 51 1 20 47
M  V30 52 1 21 48
M  V30 53 1 21 49
M  V30 54 1 22 50
M  V30 55 1 23 51
M  V30 56 1 26 52
M  V30 57 1 27 53
M  V30 58 1 28 54
M  V30 59 1 29 55
M  V30 60 1 30 56
M  V30 61 1 32 57
M  V30 END BOND
M  V30 END CTAB
M  END
>  <Dataset>  (375) 
ChEMBL_Kinases

>  <Ligand_Instance>  (375) 
nan

>  <PDB_ID>  (375) 
nan

>  <Standardized_SMILES>  (375) 
COC(=O)/C=C/c1ccc2nc(-c3ccc(C4(N)CCC4)cc3)c(-c3ccccc3)n2c1

>  <Name>  (375) 
nan

>  <Pocket>  (375) 
nan

>  <ATP_Site>  (375) 
nan

>  <Peripheral>  (375) 
nan

>  <Num_H_Atoms_ProtBoundConf>  (375) 
nan

>  <Num_Resolved_Atoms>  (375) 
nan

>  <Num_Not_Resolved_Atoms>  (375) 
nan

$$$$
CHEMBL2387463
     RDKit          3D

  0  0  0  0  0  0  0  0  0  0999 V3000
M  V30 BEGIN CTAB
M  V30 COUNTS 61 66 0 0 0
M  V30 BEGIN ATOM
M  V30 1 O -0.003370 -1.295161 5.177689 0
M  V30 2 C -0.180534 -1.972691 4.107199 0
M  V30 3 N 0.883241 -2.158972 3.200453 0
M  V30 4 C 2.225557 -1.777715 3.108068 0
M  V30 5 C 3.321286 -2.461178 3.630429 0
M  V30 6 N 4.458480 -1.777471 3.327150 0
M  V30 7 C 4.142762 -0.668041 2.622504 0
M  V30 8 N 4.951358 0.291642 2.113531 0
M  V30 9 C 4.386899 1.326301 1.423449 0
M  V30 10 C 3.015110 1.372879 1.259961 0
M  V30 11 C 2.372675 2.468084 0.528234 0
M  V30 12 C 2.883339 3.704949 0.891595 0
M  V30 13 C 2.435006 4.896795 0.338170 0
M  V30 14 C 1.434523 4.820976 -0.615656 0
M  V30 15 C 0.915978 3.596272 -0.988397 0
M  V30 16 C 1.375786 2.419392 -0.425336 0
M  V30 17 F 0.955238 1.162405 -0.701546 0
M  V30 18 C 2.184704 0.387910 1.782471 0
M  V30 19 C 2.767873 -0.667719 2.487203 0
M  V30 20 C -1.479223 -2.559720 3.810607 0
M  V30 21 C -2.522985 -2.663807 4.702363 0
M  V30 22 N -3.556054 -3.249037 4.066229 0
M  V30 23 N -3.226009 -3.527482 2.804741 0
M  V30 24 C -3.972445 -4.108281 1.841882 0
M  V30 25 C -3.330947 -4.251432 0.639427 0
M  V30 26 C -2.016257 -3.844790 0.388221 0
M  V30 27 N -1.446196 -4.021302 -0.890020 0
M  V30 28 C -1.031433 -3.266455 -2.055026 0
M  V30 29 C -2.146965 -2.369548 -2.574604 0
M  V30 30 C -1.618214 -1.640235 -3.789149 0
M  V30 31 C -1.048118 -0.310657 -3.399067 0
M  V30 32 N -2.060477 0.589610 -2.881239 0
M  V30 33 C -2.966680 -0.058912 -1.977859 0
M  V30 34 C -2.524442 -1.392563 -1.476582 0
M  V30 35 N -1.394399 -3.282052 1.437651 0
M  V30 36 C -1.956667 -3.108256 2.642593 0
M  V30 37 H 0.737296 -2.723510 2.316359 0
M  V30 38 H 3.190313 -3.400789 4.188267 0
M  V30 39 H 5.380686 -2.149224 3.644295 0
M  V30 40 H 5.028272 2.099302 1.011453 0
M  V30 41 H 3.674225 3.868763 1.634458 0
M  V30 42 H 2.824752 5.868813 0.613876 0
M  V30 43 H 1.029430 5.721204 -1.096531 0
M  V30 44 H 0.134671 3.486320 -1.727428 0
M  V30 45 H 1.092966 0.390358 1.673853 0
M  V30 46 H -2.522722 -2.333076 5.745093 0
M  V30 47 H -4.984906 -4.441653 1.969620 0
M  V30 48 H -3.893613 -4.716697 -0.173320 0
M  V30 49 H -1.319317 -5.077068 -0.892831 0
M  V30 50 H -0.733608 -3.972467 -2.875415 0
M  V30 51 H -0.134676 -2.658270 -1.824791 0
M  V30 52 H -3.033143 -2.946574 -2.889626 0
M  V30 53 H -2.372246 -1.518268 -4.572094 0
M  V30 54 H -0.772342 -2.219262 -4.243325 0
M  V30 55 H -0.264369 -0.420677 -2.622769 0
M  V30 56 H -0.651074 0.161672 -4.345137 0
M  V30 57 H -1.579168 1.420870 -2.484302 0
M  V30 58 H -3.070216 0.597847 -1.081331 0
M  V30 59 H -3.963902 -0.166938 -2.429232 0
M  V30 60 H -3.378107 -1.832101 -0.922977 0
M  V30 61 H -1.675416 -1.302931 -0.738075 0
M  V30 END ATOM
M  V30 BEGIN BOND
M  V30 1 2 1 2
M  V30 2 1 2 3
M  V30 3 1 3 4
M  V30 4 2 4 5
M  V30 5 1 5 6
M  V30 6 1 6 7
M  V30 7 2 7 8
M  V30 8 1 8 9
M  V30 9 2 9 10
M  V30 10 1 10 11
M  V30 11 2 11 12
M  V30 12 1 12 13
M  V30 13 2 13 14
M  V30 14 1 14 15
M  V30 15 2 15 16
M  V30 16 1 16 17
M  V30 17 1 10 18
M  V30 18 2 18 19
M  V30 19 1 2 20
M  V30 20 1 20 21
M  V30 21 2 21 22
M  V30 22 1 22 23
M  V30 23 1 23 24
M  V30 24 2 24 25
M  V30 25 1 25 26
M  V30 26 1 26 27
M  V30 27 1 27 28
M  V30 28 1 28 29
M  V30 29 1 29 30
M  V30 30 1 30 31
M  V30 31 1 31 32
M  V30 32 1 32 33
M  V30 33 1 33 34
M  V30 34 2 26 35
M  V30 35 1 35 36
M  V30 36 1 19 4
M  V30 37 2 36 20
M  V30 38 1 19 7
M  V30 39 1 36 23
M  V30 40 1 16 11
M  V30 41 1 34 29
M  V30 42 1 3 37
M  V30 43 1 5 38
M  V30 44 1 6 39
M  V30 45 1 9 40
M  V30 46 1 12 41
M  V30 47 1 13 42
M  V30 48 1 14 43
M  V30 49 1 15 44
M  V30 50 1 18 45
M  V30 51 1 21 46
M  V30 52 1 24 47
M  V30 53 1 25 48
M  V30 54 1 27 49
M  V30 55 1 28 50
M  V30 56 1 28 51
M  V30 57 1 29 52
M  V30 58 1 30 53
M  V30 59 1 30 54
M  V30 60 1 31 55
M  V30 61 1 31 56
M  V30 62 1 32 57
M  V30 63 1 33 58
M  V30 64 1 33 59
M  V30 65 1 34 60
M  V30 66 1 34 61
M  V30 END BOND
M  V30 END CTAB
M  END
>  <Dataset>  (376) 
ChEMBL_Kinases

>  <Ligand_Instance>  (376) 
nan

>  <PDB_ID>  (376) 
nan

>  <Standardized_SMILES>  (376) 
O=C(Nc1c[nH]c2ncc(-c3ccccc3F)cc12)c1cnn2ccc(NCC3CCNCC3)nc12

>  <Name>  (376) 
nan

>  <Pocket>  (376) 
nan

>  <ATP_Site>  (376) 
nan

>  <Peripheral>  (376) 
nan

>  <Num_H_Atoms_ProtBoundConf>  (376) 
nan

>  <Num_Resolved_Atoms>  (376) 
nan

>  <Num_Not_Resolved_Atoms>  (376) 
nan

$$$$
CHEMBL2387465
     RDKit          3D

  0  0  0  0  0  0  0  0  0  0999 V3000
M  V30 BEGIN CTAB
M  V30 COUNTS 61 66 0 0 0
M  V30 BEGIN ATOM
M  V30 1 O 1.396159 -1.390456 5.318678 0
M  V30 2 C 0.881602 -2.066348 4.388584 0
M  V30 3 N 1.697661 -2.357408 3.236440 0
M  V30 4 C 3.045783 -1.919078 3.105017 0
M  V30 5 C 4.309033 -2.414362 3.430139 0
M  V30 6 N 5.235509 -1.511264 3.042257 0
M  V30 7 C 4.623989 -0.471520 2.489187 0
M  V30 8 N 5.232554 0.605798 1.994894 0
M  V30 9 C 4.512518 1.608162 1.453422 0
M  V30 10 C 3.124482 1.466432 1.435527 0
M  V30 11 C 2.180564 2.461040 0.883838 0
M  V30 12 C 1.708992 3.434410 1.763766 0
M  V30 13 F 2.109915 3.453389 3.069504 0
M  V30 14 C 0.823049 4.393033 1.306362 0
M  V30 15 C 0.431585 4.348183 -0.032095 0
M  V30 16 C 0.894330 3.381445 -0.923637 0
M  V30 17 C 1.780448 2.436221 -0.433150 0
M  V30 18 F 2.265791 1.461705 -1.272482 0
M  V30 19 C 2.490259 0.352795 1.946130 0
M  V30 20 C 3.239857 -0.671980 2.500527 0
M  V30 21 C -0.500202 -2.590513 4.379133 0
M  V30 22 C -1.342630 -3.003253 5.393866 0
M  V30 23 N -2.507198 -3.397886 4.870208 0
M  V30 24 N -2.452052 -3.257982 3.567879 0
M  V30 25 C -3.291175 -3.482461 2.535700 0
M  V30 26 C -3.004155 -3.252121 1.208045 0
M  V30 27 C -1.756618 -2.750303 0.902988 0
M  V30 28 N -1.345091 -2.472260 -0.431018 0
M  V30 29 C -2.253047 -2.717193 -1.530974 0
M  V30 30 C -1.638744 -2.362568 -2.865147 0 CFG=1
M  V30 31 C -2.669969 -2.657219 -3.933690 0
M  V30 32 C -3.922255 -1.834909 -3.729618 0
M  V30 33 N -3.584716 -0.456496 -3.550352 0
M  V30 34 C -2.209351 -0.172143 -3.933479 0
M  V30 35 C -1.293063 -0.897377 -2.956734 0 CFG=2
M  V30 36 F -0.016653 -0.785491 -3.472947 0
M  V30 37 N -0.928617 -2.530352 1.938760 0
M  V30 38 C -1.255727 -2.771224 3.215042 0
M  V30 39 H 1.375248 -2.909813 2.405219 0
M  V30 40 H 4.302538 -3.385486 3.909979 0
M  V30 41 H 6.248320 -1.726661 3.213058 0
M  V30 42 H 4.817789 2.548986 1.007408 0
M  V30 43 H 0.444140 5.157460 1.970612 0
M  V30 44 H -0.269423 5.133156 -0.330333 0
M  V30 45 H 0.556772 3.393440 -1.954648 0
M  V30 46 H 1.427252 0.198103 1.955374 0
M  V30 47 H -1.020795 -2.976516 6.440161 0
M  V30 48 H -4.282705 -3.881819 2.784083 0
M  V30 49 H -3.718155 -3.451569 0.421236 0
M  V30 50 H -0.405840 -2.099738 -0.600739 0
M  V30 51 H -2.601833 -3.751608 -1.517568 0
M  V30 52 H -3.116531 -2.055059 -1.374509 0
M  V30 53 H -0.761279 -2.994125 -3.104667 0
M  V30 54 H -2.964415 -3.733886 -3.799019 0
M  V30 55 H -2.254733 -2.533666 -4.936786 0
M  V30 56 H -4.509911 -2.174223 -2.859892 0
M  V30 57 H -4.538864 -1.902638 -4.653529 0
M  V30 58 H -4.224623 0.193284 -4.055942 0
M  V30 59 H -2.055799 -0.466662 -4.979864 0
M  V30 60 H -2.093986 0.917655 -3.835403 0
M  V30 61 H -1.393798 -0.367674 -1.979369 0
M  V30 END ATOM
M  V30 BEGIN BOND
M  V30 1 2 1 2
M  V30 2 1 2 3
M  V30 3 1 3 4
M  V30 4 2 4 5
M  V30 5 1 5 6
M  V30 6 1 6 7
M  V30 7 2 7 8
M  V30 8 1 8 9
M  V30 9 2 9 10
M  V30 10 1 10 11
M  V30 11 2 11 12
M  V30 12 1 12 13
M  V30 13 1 12 14
M  V30 14 2 14 15
M  V30 15 1 15 16
M  V30 16 2 16 17
M  V30 17 1 17 18
M  V30 18 1 10 19
M  V30 19 2 19 20
M  V30 20 1 2 21
M  V30 21 1 21 22
M  V30 22 2 22 23
M  V30 23 1 23 24
M  V30 24 1 24 25
M  V30 25 2 25 26
M  V30 26 1 26 27
M  V30 27 1 27 28
M  V30 28 1 28 29
M  V30 29 1 29 30
M  V30 30 1 30 31
M  V30 31 1 31 32
M  V30 32 1 32 33
M  V30 33 1 33 34
M  V30 34 1 34 35
M  V30 35 1 35 36
M  V30 36 2 27 37
M  V30 37 1 37 38
M  V30 38 1 20 4
M  V30 39 2 38 21
M  V30 40 1 20 7
M  V30 41 1 38 24
M  V30 42 1 17 11
M  V30 43 1 35 30
M  V30 44 1 3 39
M  V30 45 1 5 40
M  V30 46 1 6 41
M  V30 47 1 9 42
M  V30 48 1 14 43
M  V30 49 1 15 44
M  V30 50 1 16 45
M  V30 51 1 19 46
M  V30 52 1 22 47
M  V30 53 1 25 48
M  V30 54 1 26 49
M  V30 55 1 28 50
M  V30 56 1 29 51
M  V30 57 1 29 52
M  V30 58 1 30 53 CFG=3
M  V30 59 1 31 54
M  V30 60 1 31 55
M  V30 61 1 32 56
M  V30 62 1 32 57
M  V30 63 1 33 58
M  V30 64 1 34 59
M  V30 65 1 34 60
M  V30 66 1 35 61 CFG=1
M  V30 END BOND
M  V30 END CTAB
M  END
>  <Dataset>  (377) 
ChEMBL_Kinases

>  <Ligand_Instance>  (377) 
nan

>  <PDB_ID>  (377) 
nan

>  <Standardized_SMILES>  (377) 
O=C(Nc1c[nH]c2ncc(-c3c(F)cccc3F)cc12)c1cnn2ccc(NC[C@H]3CCNC[C@@H]3F)nc12

>  <Name>  (377) 
nan

>  <Pocket>  (377) 
nan

>  <ATP_Site>  (377) 
nan

>  <Peripheral>  (377) 
nan

>  <Num_H_Atoms_ProtBoundConf>  (377) 
nan

>  <Num_Resolved_Atoms>  (377) 
nan

>  <Num_Not_Resolved_Atoms>  (377) 
nan

$$$$
CHEMBL3703133
     RDKit          3D

  0  0  0  0  0  0  0  0  0  0999 V3000
M  V30 BEGIN CTAB
M  V30 COUNTS 55 59 0 0 0
M  V30 BEGIN ATOM
M  V30 1 N 5.611897 -6.483847 -0.423873 0
M  V30 2 C 5.986677 -5.129678 -0.554016 0
M  V30 3 O 7.126534 -5.583830 -0.784240 0
M  V30 4 C 5.045702 -4.037217 -0.390056 0
M  V30 5 C 5.497705 -2.808982 -0.533424 0
M  V30 6 C 4.632307 -1.660748 -0.387642 0
M  V30 7 C 5.171485 -0.401647 -0.552153 0
M  V30 8 C 4.358937 0.727932 -0.416825 0
M  V30 9 C 3.015164 0.570286 -0.117715 0
M  V30 10 N 2.051950 1.497499 0.058330 0
M  V30 11 C 0.875441 0.859931 0.338963 0
M  V30 12 C -0.479042 1.335860 0.617513 0
M  V30 13 C -0.876263 2.151556 1.665040 0
M  V30 14 C -2.206069 2.504649 1.777008 0
M  V30 15 C -3.166550 2.075694 0.881278 0
M  V30 16 C -4.530310 2.548498 1.154910 0
M  V30 17 N -4.576059 3.845144 1.763656 0
M  V30 18 C -5.218289 1.530178 2.072595 0
M  V30 19 C -5.890352 0.921340 0.837443 0
M  V30 20 C -5.591638 2.238871 0.149709 0
M  V30 21 C -2.766909 1.271121 -0.149678 0
M  V30 22 C -1.444990 0.914053 -0.269648 0
M  V30 23 C 1.160766 -0.515448 0.327604 0
M  V30 24 C 0.248467 -1.606183 0.567222 0
M  V30 25 C 0.047516 -2.524905 -0.462096 0
M  V30 26 C -0.799756 -3.621990 -0.373735 0
M  V30 27 C -1.491966 -3.816007 0.818591 0
M  V30 28 C -1.301058 -2.912954 1.844692 0
M  V30 29 C -0.459041 -1.822664 1.756888 0
M  V30 30 N 2.470968 -0.671346 0.047161 0
M  V30 31 C 3.291373 -1.748938 -0.091806 0
M  V30 32 H 5.348511 -7.472180 -0.404319 0
M  V30 33 H 5.343220 -7.089195 0.384132 0
M  V30 34 H 4.051312 -4.295983 -0.164730 0
M  V30 35 H 6.546819 -2.709184 -0.765095 0
M  V30 36 H 6.212147 -0.275718 -0.783720 0
M  V30 37 H 4.778385 1.700412 -0.544447 0
M  V30 38 H -0.082854 2.456506 2.334833 0
M  V30 39 H -2.400428 3.141079 2.628937 0
M  V30 40 H -4.736031 3.827326 2.797731 0
M  V30 41 H -3.793934 4.469850 1.538572 0
M  V30 42 H -4.551778 0.778345 2.524097 0
M  V30 43 H -5.917568 1.974980 2.800167 0
M  V30 44 H -5.354510 0.041779 0.427083 0
M  V30 45 H -6.966068 0.731626 1.064039 0
M  V30 46 H -6.464178 2.927334 0.318689 0
M  V30 47 H -5.320133 2.202589 -0.901502 0
M  V30 48 H -3.526711 0.946711 -0.837347 0
M  V30 49 H -1.228016 0.277731 -1.114287 0
M  V30 50 H 0.589566 -2.382236 -1.410488 0
M  V30 51 H -0.887206 -4.286690 -1.244558 0
M  V30 52 H -2.154236 -4.667114 0.898145 0
M  V30 53 H -1.848655 -3.066900 2.786419 0
M  V30 54 H -0.301176 -1.107863 2.555201 0
M  V30 55 H 2.814006 -2.710370 0.047999 0
M  V30 END ATOM
M  V30 BEGIN BOND
M  V30 1 1 1 2
M  V30 2 2 2 3
M  V30 3 1 2 4
M  V30 4 2 4 5
M  V30 5 1 5 6
M  V30 6 1 6 7
M  V30 7 2 7 8
M  V30 8 1 8 9
M  V30 9 2 9 10
M  V30 10 1 10 11
M  V30 11 1 11 12
M  V30 12 2 12 13
M  V30 13 1 13 14
M  V30 14 2 14 15
M  V30 15 1 15 16
M  V30 16 1 16 17
M  V30 17 1 16 18
M  V30 18 1 18 19
M  V30 19 1 19 20
M  V30 20 1 15 21
M  V30 21 2 21 22
M  V30 22 2 11 23
M  V30 23 1 23 24
M  V30 24 2 24 25
M  V30 25 1 25 26
M  V30 26 2 26 27
M  V30 27 1 27 28
M  V30 28 2 28 29
M  V30 29 1 23 30
M  V30 30 1 30 31
M  V30 31 2 31 6
M  V30 32 1 30 9
M  V30 33 1 22 12
M  V30 34 1 29 24
M  V30 35 1 20 16
M  V30 36 1 1 32
M  V30 37 1 1 33
M  V30 38 1 4 34
M  V30 39 1 5 35
M  V30 40 1 7 36
M  V30 41 1 8 37
M  V30 42 1 13 38
M  V30 43 1 14 39
M  V30 44 1 17 40
M  V30 45 1 17 41
M  V30 46 1 18 42
M  V30 47 1 18 43
M  V30 48 1 19 44
M  V30 49 1 19 45
M  V30 50 1 20 46
M  V30 51 1 20 47
M  V30 52 1 21 48
M  V30 53 1 22 49
M  V30 54 1 25 50
M  V30 55 1 26 51
M  V30 56 1 27 52
M  V30 57 1 28 53
M  V30 58 1 29 54
M  V30 59 1 31 55
M  V30 END BOND
M  V30 END CTAB
M  END
>  <Dataset>  (378) 
ChEMBL_Kinases

>  <Ligand_Instance>  (378) 
nan

>  <PDB_ID>  (378) 
nan

>  <Standardized_SMILES>  (378) 
NC(=O)/C=C/c1ccc2nc(-c3ccc(C4(N)CCC4)cc3)c(-c3ccccc3)n2c1

>  <Name>  (378) 
nan

>  <Pocket>  (378) 
nan

>  <ATP_Site>  (378) 
nan

>  <Peripheral>  (378) 
nan

>  <Num_H_Atoms_ProtBoundConf>  (378) 
nan

>  <Num_Resolved_Atoms>  (378) 
nan

>  <Num_Not_Resolved_Atoms>  (378) 
nan

$$$$
CHEMBL3702140
     RDKit          3D

  0  0  0  0  0  0  0  0  0  0999 V3000
M  V30 BEGIN CTAB
M  V30 COUNTS 61 66 0 0 0
M  V30 BEGIN ATOM
M  V30 1 O 1.260938 -3.494780 2.796952 0
M  V30 2 C 2.479242 -3.713751 3.006794 0
M  V30 3 O 2.555461 -4.979045 3.600173 0
M  V30 4 C 3.609438 -2.800124 2.684411 0
M  V30 5 C 3.045972 -1.554501 2.046433 0
M  V30 6 C 2.678652 -0.571576 2.972875 0
M  V30 7 C 2.123312 0.635330 2.605026 0
M  V30 8 C 1.945856 0.826993 1.251453 0
M  V30 9 N 1.351823 2.026505 0.772265 0
M  V30 10 C 1.842380 3.115791 0.169645 0
M  V30 11 C 3.125007 3.422330 -0.198392 0
M  V30 12 N 3.380102 4.597105 -0.815115 0
M  V30 13 C 2.382571 5.487734 -1.080118 0
M  V30 14 C 1.065541 5.188094 -0.708905 0
M  V30 15 C 0.815487 3.998369 -0.085659 0
M  V30 16 C -0.364728 3.457905 0.366788 0
M  V30 17 C -1.685825 3.770789 0.425666 0
M  V30 18 N -2.669266 2.983501 0.953609 0
M  V30 19 C -2.332750 1.763381 1.479836 0
M  V30 20 N -3.415582 1.006077 1.988955 0
M  V30 21 C -3.115443 -0.302147 1.471448 0
M  V30 22 C -3.567021 -0.386559 0.144889 0
M  V30 23 C -3.402498 -1.544069 -0.635639 0
M  V30 24 C -2.770625 -2.621105 -0.049976 0
M  V30 25 N -2.524907 -3.837072 -0.737803 0
M  V30 26 C -1.913096 -5.036489 -0.203471 0
M  V30 27 C -0.961998 -5.605088 -1.229087 0
M  V30 28 N -0.422058 -4.502248 -2.016940 0
M  V30 29 C -1.509019 -4.037689 -2.870385 0
M  V30 30 C -2.832785 -4.119457 -2.129199 0
M  V30 31 C -2.342275 -2.504988 1.249340 0
M  V30 32 N -2.508604 -1.388814 1.979959 0
M  V30 33 C -0.993528 1.456129 1.417882 0
M  V30 34 C 0.027088 2.223051 0.894086 0
M  V30 35 C 2.295757 -0.116291 0.289344 0
M  V30 36 C 2.848094 -1.308979 0.705854 0
M  V30 37 H 1.886698 -5.333115 4.277723 0
M  V30 38 H 4.290949 -3.231638 1.939922 0
M  V30 39 H 4.205046 -2.514771 3.573390 0
M  V30 40 H 2.805187 -0.688262 4.053204 0
M  V30 41 H 1.841463 1.391102 3.332325 0
M  V30 42 H 3.906546 2.726305 0.007251 0
M  V30 43 H 2.479041 6.453848 -1.566923 0
M  V30 44 H 0.251720 5.863237 -0.900345 0
M  V30 45 H -1.922548 4.755379 -0.005846 0
M  V30 46 H -4.177241 1.403664 2.578081 0
M  V30 47 H -4.074961 0.410315 -0.404148 0
M  V30 48 H -3.757040 -1.584744 -1.654658 0
M  V30 49 H -2.658613 -5.825850 0.015176 0
M  V30 50 H -1.303106 -4.856007 0.710948 0
M  V30 51 H -1.479196 -6.329235 -1.928292 0
M  V30 52 H -0.145714 -6.193269 -0.754051 0
M  V30 53 H 0.397532 -4.797190 -2.588732 0
M  V30 54 H -1.576628 -4.572723 -3.815798 0
M  V30 55 H -1.314472 -2.968262 -3.085395 0
M  V30 56 H -3.500835 -3.351264 -2.554001 0
M  V30 57 H -3.355955 -5.083025 -2.287577 0
M  V30 58 H -1.841209 -3.257086 1.829613 0
M  V30 59 H -0.804861 0.469453 1.861747 0
M  V30 60 H 2.158892 0.038902 -0.769671 0
M  V30 61 H 3.160774 -2.120688 0.058494 0
M  V30 END ATOM
M  V30 BEGIN BOND
M  V30 1 2 1 2
M  V30 2 1 2 3
M  V30 3 1 2 4
M  V30 4 1 4 5
M  V30 5 2 5 6
M  V30 6 1 6 7
M  V30 7 2 7 8
M  V30 8 1 8 9
M  V30 9 1 9 10
M  V30 10 2 10 11
M  V30 11 1 11 12
M  V30 12 2 12 13
M  V30 13 1 13 14
M  V30 14 2 14 15
M  V30 15 1 15 16
M  V30 16 2 16 17
M  V30 17 1 17 18
M  V30 18 2 18 19
M  V30 19 1 19 20
M  V30 20 1 20 21
M  V30 21 2 21 22
M  V30 22 1 22 23
M  V30 23 2 23 24
M  V30 24 1 24 25
M  V30 25 1 25 26
M  V30 26 1 26 27
M  V30 27 1 27 28
M  V30 28 1 28 29
M  V30 29 1 29 30
M  V30 30 1 24 31
M  V30 31 2 31 32
M  V30 32 1 19 33
M  V30 33 2 33 34
M  V30 34 1 8 35
M  V30 35 2 35 36
M  V30 36 1 36 5
M  V30 37 1 34 9
M  V30 38 1 15 10
M  V30 39 1 34 16
M  V30 40 1 32 21
M  V30 41 1 30 25
M  V30 42 1 3 37
M  V30 43 1 4 38
M  V30 44 1 4 39
M  V30 45 1 6 40
M  V30 46 1 7 41
M  V30 47 1 11 42
M  V30 48 1 13 43
M  V30 49 1 14 44
M  V30 50 1 17 45
M  V30 51 1 20 46
M  V30 52 1 22 47
M  V30 53 1 23 48
M  V30 54 1 26 49
M  V30 55 1 26 50
M  V30 56 1 27 51
M  V30 57 1 27 52
M  V30 58 1 28 53
M  V30 59 1 29 54
M  V30 60 1 29 55
M  V30 61 1 30 56
M  V30 62 1 30 57
M  V30 63 1 31 58
M  V30 64 1 33 59
M  V30 65 1 35 60
M  V30 66 1 36 61
M  V30 END BOND
M  V30 END CTAB
M  END
>  <Dataset>  (379) 
ChEMBL_Kinases

>  <Ligand_Instance>  (379) 
nan

>  <PDB_ID>  (379) 
nan

>  <Standardized_SMILES>  (379) 
O=C(O)Cc1ccc(-n2c3cnccc3c3cnc(Nc4ccc(N5CCNCC5)cn4)cc32)cc1

>  <Name>  (379) 
nan

>  <Pocket>  (379) 
nan

>  <ATP_Site>  (379) 
nan

>  <Peripheral>  (379) 
nan

>  <Num_H_Atoms_ProtBoundConf>  (379) 
nan

>  <Num_Resolved_Atoms>  (379) 
nan

>  <Num_Not_Resolved_Atoms>  (379) 
nan

$$$$
CHEMBL3703134
     RDKit          3D

  0  0  0  0  0  0  0  0  0  0999 V3000
M  V30 BEGIN CTAB
M  V30 COUNTS 56 60 0 0 0
M  V30 BEGIN ATOM
M  V30 1 C 7.418424 -3.847438 1.386473 0
M  V30 2 C 6.306102 -4.406948 0.529587 0
M  V30 3 O 5.332730 -3.381054 0.293708 0
M  V30 4 C 5.633281 -2.202873 -0.336340 0
M  V30 5 O 6.793181 -1.947909 -0.749734 0
M  V30 6 C 4.577329 -1.206907 -0.537501 0
M  V30 7 C 4.816251 -0.000370 -1.164593 0
M  V30 8 C 3.806926 0.943795 -1.354455 0
M  V30 9 C 2.559894 0.588274 -0.873657 0
M  V30 10 N 1.408551 1.311576 -0.924175 0
M  V30 11 C 0.414571 0.600814 -0.340294 0
M  V30 12 C -1.002350 0.883385 -0.116595 0
M  V30 13 C -1.519269 0.980214 1.160424 0
M  V30 14 C -2.854394 1.245912 1.377647 0
M  V30 15 C -3.743782 1.429086 0.312142 0
M  V30 16 C -5.132820 1.705291 0.686946 0
M  V30 17 N -5.215980 2.476419 1.913857 0
M  V30 18 C -5.998337 0.447802 0.843871 0
M  V30 19 C -7.130953 1.255890 0.246224 0
M  V30 20 C -6.073971 2.176965 -0.375878 0
M  V30 21 C -3.207250 1.328341 -0.954938 0
M  V30 22 C -1.869937 1.062176 -1.175931 0
M  V30 23 C 0.958551 -0.596908 0.085855 0
M  V30 24 C 0.338333 -1.745009 0.780808 0
M  V30 25 C -0.644490 -2.300111 -0.036852 0
M  V30 26 C -1.372050 -3.407314 0.414131 0
M  V30 27 C -1.114697 -3.941002 1.658372 0
M  V30 28 C -0.139575 -3.360531 2.424476 0
M  V30 29 C 0.589904 -2.285098 2.025002 0
M  V30 30 N 2.263472 -0.570337 -0.254536 0
M  V30 31 C 3.290372 -1.447202 -0.100794 0
M  V30 32 H 7.336619 -2.748726 1.531049 0
M  V30 33 H 7.440136 -4.300598 2.403117 0
M  V30 34 H 8.431601 -4.054504 0.943814 0
M  V30 35 H 6.700468 -4.731075 -0.444093 0
M  V30 36 H 5.856534 -5.248216 1.067909 0
M  V30 37 H 5.788867 0.240501 -1.522416 0
M  V30 38 H 3.971921 1.895044 -1.843226 0
M  V30 39 H -0.830364 0.838296 1.990050 0
M  V30 40 H -3.182656 1.306177 2.413137 0
M  V30 41 H -5.273593 1.873643 2.745537 0
M  V30 42 H -6.094192 3.046621 1.868156 0
M  V30 43 H -6.143823 0.144306 1.890542 0
M  V30 44 H -5.630152 -0.312889 0.132669 0
M  V30 45 H -7.742357 1.713064 1.023105 0
M  V30 46 H -7.663498 0.654575 -0.530341 0
M  V30 47 H -5.848903 1.916619 -1.408589 0
M  V30 48 H -6.384971 3.242495 -0.202935 0
M  V30 49 H -3.892282 1.469196 -1.755800 0
M  V30 50 H -1.483501 0.989724 -2.178083 0
M  V30 51 H -0.950109 -1.989350 -1.024119 0
M  V30 52 H -2.157976 -3.892052 -0.177533 0
M  V30 53 H -1.669370 -4.792852 2.013960 0
M  V30 54 H 0.117902 -3.733434 3.424893 0
M  V30 55 H 1.371272 -1.746106 2.527652 0
M  V30 56 H 3.067916 -2.375251 0.391136 0
M  V30 END ATOM
M  V30 BEGIN BOND
M  V30 1 1 1 2
M  V30 2 1 2 3
M  V30 3 1 3 4
M  V30 4 2 4 5
M  V30 5 1 4 6
M  V30 6 1 6 7
M  V30 7 2 7 8
M  V30 8 1 8 9
M  V30 9 2 9 10
M  V30 10 1 10 11
M  V30 11 1 11 12
M  V30 12 2 12 13
M  V30 13 1 13 14
M  V30 14 2 14 15
M  V30 15 1 15 16
M  V30 16 1 16 17
M  V30 17 1 16 18
M  V30 18 1 18 19
M  V30 19 1 19 20
M  V30 20 1 15 21
M  V30 21 2 21 22
M  V30 22 2 11 23
M  V30 23 1 23 24
M  V30 24 2 24 25
M  V30 25 1 25 26
M  V30 26 2 26 27
M  V30 27 1 27 28
M  V30 28 2 28 29
M  V30 29 1 23 30
M  V30 30 1 30 31
M  V30 31 2 31 6
M  V30 32 1 30 9
M  V30 33 1 22 12
M  V30 34 1 29 24
M  V30 35 1 20 16
M  V30 36 1 1 32
M  V30 37 1 1 33
M  V30 38 1 1 34
M  V30 39 1 2 35
M  V30 40 1 2 36
M  V30 41 1 7 37
M  V30 42 1 8 38
M  V30 43 1 13 39
M  V30 44 1 14 40
M  V30 45 1 17 41
M  V30 46 1 17 42
M  V30 47 1 18 43
M  V30 48 1 18 44
M  V30 49 1 19 45
M  V30 50 1 19 46
M  V30 51 1 20 47
M  V30 52 1 20 48
M  V30 53 1 21 49
M  V30 54 1 22 50
M  V30 55 1 25 51
M  V30 56 1 26 52
M  V30 57 1 27 53
M  V30 58 1 28 54
M  V30 59 1 29 55
M  V30 60 1 31 56
M  V30 END BOND
M  V30 END CTAB
M  END
>  <Dataset>  (380) 
ChEMBL_Kinases

>  <Ligand_Instance>  (380) 
nan

>  <PDB_ID>  (380) 
nan

>  <Standardized_SMILES>  (380) 
CCOC(=O)c1ccc2nc(-c3ccc(C4(N)CCC4)cc3)c(-c3ccccc3)n2c1

>  <Name>  (380) 
nan

>  <Pocket>  (380) 
nan

>  <ATP_Site>  (380) 
nan

>  <Peripheral>  (380) 
nan

>  <Num_H_Atoms_ProtBoundConf>  (380) 
nan

>  <Num_Resolved_Atoms>  (380) 
nan

>  <Num_Not_Resolved_Atoms>  (380) 
nan

$$$$
CHEMBL4460756
     RDKit          3D

  0  0  0  0  0  0  0  0  0  0999 V3000
M  V30 BEGIN CTAB
M  V30 COUNTS 51 54 0 0 0
M  V30 BEGIN ATOM
M  V30 1 C 5.084314 -2.838261 4.068542 0
M  V30 2 N 4.978828 -3.939984 3.165886 0
M  V30 3 N 5.574411 -5.134691 3.159305 0
M  V30 4 C 5.176260 -5.872054 2.106589 0
M  V30 5 C 4.268870 -5.072548 1.414179 0
M  V30 6 C 4.174937 -3.864136 2.117183 0
M  V30 7 C 3.257651 -2.865469 1.548284 0
M  V30 8 C 2.375808 -2.168007 2.347146 0
M  V30 9 C 1.500717 -1.223059 1.844306 0
M  V30 10 C 1.489072 -0.947743 0.491224 0
M  V30 11 C 0.635612 0.013468 -0.202431 0
M  V30 12 O 0.653083 0.239359 -1.446226 0
M  V30 13 N -0.308509 0.783634 0.531987 0
M  V30 14 C -1.252712 1.777164 0.122511 0 CFG=2
M  V30 15 C -1.199871 3.046019 0.904357 0
M  V30 16 N -2.028829 3.019451 2.091054 0
M  V30 17 C -3.437630 3.048153 1.795154 0
M  V30 18 C -3.681056 2.242921 0.551263 0
M  V30 19 C -2.642169 1.172817 0.326872 0 CFG=1
M  V30 20 C -3.056597 0.385245 -0.847644 0
M  V30 21 C -3.147018 1.096050 -2.025108 0
M  V30 22 C -3.527764 0.454595 -3.189912 0
M  V30 23 C -3.816123 -0.900153 -3.165175 0
M  V30 24 F -4.198125 -1.596006 -4.279315 0
M  V30 25 C -3.730333 -1.636809 -1.983042 0
M  V30 26 F -4.012575 -2.975969 -1.945110 0
M  V30 27 C -3.346595 -0.961663 -0.838992 0
M  V30 28 C 2.367729 -1.638476 -0.326311 0
M  V30 29 C 3.244491 -2.585648 0.179634 0
M  V30 30 H 5.396159 -1.891298 3.591912 0
M  V30 31 H 4.241603 -2.726740 4.782013 0
M  V30 32 H 5.958777 -3.088594 4.742808 0
M  V30 33 H 5.562077 -6.888125 1.935687 0
M  V30 34 H 3.817667 -5.496564 0.504468 0
M  V30 35 H 2.323207 -2.320988 3.391945 0
M  V30 36 H 0.800745 -0.661290 2.436684 0
M  V30 37 H -0.437143 0.706327 1.565661 0
M  V30 38 H -1.165957 1.908939 -0.983702 0
M  V30 39 H -1.489834 3.942339 0.316952 0
M  V30 40 H -0.155773 3.266931 1.272778 0
M  V30 41 H -1.772478 2.202719 2.681396 0
M  V30 42 H -3.959190 2.627492 2.691319 0
M  V30 43 H -3.807518 4.091175 1.702109 0
M  V30 44 H -4.634900 1.680811 0.717823 0
M  V30 45 H -3.810952 2.886448 -0.339085 0
M  V30 46 H -2.581081 0.566328 1.253862 0
M  V30 47 H -2.946031 2.163400 -2.170832 0
M  V30 48 H -3.614163 0.970000 -4.144099 0
M  V30 49 H -3.260993 -1.484092 0.118669 0
M  V30 50 H 2.443112 -1.502428 -1.397267 0
M  V30 51 H 3.944488 -3.137697 -0.462650 0
M  V30 END ATOM
M  V30 BEGIN BOND
M  V30 1 1 1 2
M  V30 2 1 2 3
M  V30 3 2 3 4
M  V30 4 1 4 5
M  V30 5 2 5 6
M  V30 6 1 6 7
M  V30 7 2 7 8
M  V30 8 1 8 9
M  V30 9 2 9 10
M  V30 10 1 10 11
M  V30 11 2 11 12
M  V30 12 1 11 13
M  V30 13 1 13 14
M  V30 14 1 14 15
M  V30 15 1 15 16
M  V30 16 1 16 17
M  V30 17 1 17 18
M  V30 18 1 18 19
M  V30 19 1 19 20
M  V30 20 2 20 21
M  V30 21 1 21 22
M  V30 22 2 22 23
M  V30 23 1 23 24
M  V30 24 1 23 25
M  V30 25 1 25 26
M  V30 26 2 25 27
M  V30 27 1 10 28
M  V30 28 2 28 29
M  V30 29 1 6 2
M  V30 30 1 29 7
M  V30 31 1 19 14
M  V30 32 1 27 20
M  V30 33 1 1 30
M  V30 34 1 1 31
M  V30 35 1 1 32
M  V30 36 1 4 33
M  V30 37 1 5 34
M  V30 38 1 8 35
M  V30 39 1 9 36
M  V30 40 1 13 37
M  V30 41 1 14 38 CFG=3
M  V30 42 1 15 39
M  V30 43 1 15 40
M  V30 44 1 16 41
M  V30 45 1 17 42
M  V30 46 1 17 43
M  V30 47 1 18 44
M  V30 48 1 18 45
M  V30 49 1 19 46 CFG=1
M  V30 50 1 21 47
M  V30 51 1 22 48
M  V30 52 1 27 49
M  V30 53 1 28 50
M  V30 54 1 29 51
M  V30 END BOND
M  V30 END CTAB
M  END
>  <Dataset>  (381) 
ChEMBL_Kinases

>  <Ligand_Instance>  (381) 
nan

>  <PDB_ID>  (381) 
nan

>  <Standardized_SMILES>  (381) 
Cn1nccc1-c1ccc(C(=O)N[C@@H]2CNCC[C@H]2c2ccc(F)c(F)c2)cc1

>  <Name>  (381) 
nan

>  <Pocket>  (381) 
nan

>  <ATP_Site>  (381) 
nan

>  <Peripheral>  (381) 
nan

>  <Num_H_Atoms_ProtBoundConf>  (381) 
nan

>  <Num_Resolved_Atoms>  (381) 
nan

>  <Num_Not_Resolved_Atoms>  (381) 
nan

$$$$
CHEMBL3703136
     RDKit          3D

  0  0  0  0  0  0  0  0  0  0999 V3000
M  V30 BEGIN CTAB
M  V30 COUNTS 51 55 0 0 0
M  V30 BEGIN ATOM
M  V30 1 C 3.374129 -5.828456 3.311188 0
M  V30 2 O 2.594714 -4.731984 2.817752 0
M  V30 3 C 3.234150 -3.577581 2.392189 0
M  V30 4 C 4.594205 -3.435687 2.421755 0
M  V30 5 C 5.216279 -2.272622 1.991507 0
M  V30 6 Cl 6.964491 -2.124807 2.043349 0
M  V30 7 C 4.436147 -1.217332 1.515248 0
M  V30 8 N 3.116316 -1.391869 1.501426 0
M  V30 9 C 2.113458 -0.570198 1.104503 0
M  V30 10 C 2.291939 0.775350 0.577121 0
M  V30 11 C 2.871974 0.898642 -0.671628 0
M  V30 12 C 3.044271 2.185246 -1.171785 0
M  V30 13 C 2.680159 3.341751 -0.515658 0
M  V30 14 C 2.108769 3.153508 0.721187 0
M  V30 15 C 1.906665 1.897369 1.281770 0
M  V30 16 C 0.888888 -1.178527 1.271149 0
M  V30 17 C -0.471531 -0.733180 0.999819 0
M  V30 18 C -1.228661 0.281919 1.546070 0
M  V30 19 C -2.515846 0.503231 1.102161 0
M  V30 20 C -3.129534 -0.240079 0.116536 0
M  V30 21 C -4.502004 0.103697 -0.256500 0
M  V30 22 N -5.410754 0.463301 0.815243 0
M  V30 23 C -4.655487 1.114007 -1.371926 0
M  V30 24 C -5.945014 0.356175 -1.719920 0
M  V30 25 C -5.203902 -0.875973 -1.175608 0
M  V30 26 C -2.367440 -1.271803 -0.442382 0
M  V30 27 C -1.073605 -1.504450 -0.005622 0
M  V30 28 N 1.147857 -2.413235 1.787318 0
M  V30 29 C 2.483195 -2.500439 1.908838 0
M  V30 30 H 2.706828 -6.567829 3.806383 0
M  V30 31 H 3.911621 -6.358164 2.506417 0
M  V30 32 H 4.086357 -5.452390 4.090383 0
M  V30 33 H 5.217479 -4.250105 2.790961 0
M  V30 34 H 4.924275 -0.309224 1.179380 0
M  V30 35 H 3.206131 0.100809 -1.299234 0
M  V30 36 H 3.500567 2.331653 -2.161298 0
M  V30 37 H 2.838848 4.318235 -0.955769 0
M  V30 38 H 1.802634 4.020083 1.284002 0
M  V30 39 H 1.462925 1.831815 2.242874 0
M  V30 40 H -0.692530 0.816966 2.306925 0
M  V30 41 H -2.957960 1.349326 1.650683 0
M  V30 42 H -5.587288 -0.372275 1.408262 0
M  V30 43 H -4.969685 1.185247 1.420891 0
M  V30 44 H -4.950087 2.139562 -1.054996 0
M  V30 45 H -3.939246 1.058794 -2.198237 0
M  V30 46 H -6.188586 0.306161 -2.783443 0
M  V30 47 H -6.789516 0.562099 -1.053147 0
M  V30 48 H -4.630247 -1.288848 -2.007163 0
M  V30 49 H -5.834768 -1.558499 -0.604540 0
M  V30 50 H -2.841696 -1.851860 -1.209337 0
M  V30 51 H -0.592183 -2.344239 -0.530435 0
M  V30 END ATOM
M  V30 BEGIN BOND
M  V30 1 1 1 2
M  V30 2 1 2 3
M  V30 3 2 3 4
M  V30 4 1 4 5
M  V30 5 1 5 6
M  V30 6 2 5 7
M  V30 7 1 7 8
M  V30 8 1 8 9
M  V30 9 1 9 10
M  V30 10 2 10 11
M  V30 11 1 11 12
M  V30 12 2 12 13
M  V30 13 1 13 14
M  V30 14 2 14 15
M  V30 15 2 9 16
M  V30 16 1 16 17
M  V30 17 2 17 18
M  V30 18 1 18 19
M  V30 19 2 19 20
M  V30 20 1 20 21
M  V30 21 1 21 22
M  V30 22 1 21 23
M  V30 23 1 23 24
M  V30 24 1 24 25
M  V30 25 1 20 26
M  V30 26 2 26 27
M  V30 27 1 16 28
M  V30 28 2 28 29
M  V30 29 1 29 3
M  V30 30 1 29 8
M  V30 31 1 15 10
M  V30 32 1 27 17
M  V30 33 1 25 21
M  V30 34 1 1 30
M  V30 35 1 1 31
M  V30 36 1 1 32
M  V30 37 1 4 33
M  V30 38 1 7 34
M  V30 39 1 11 35
M  V30 40 1 12 36
M  V30 41 1 13 37
M  V30 42 1 14 38
M  V30 43 1 15 39
M  V30 44 1 18 40
M  V30 45 1 19 41
M  V30 46 1 22 42
M  V30 47 1 22 43
M  V30 48 1 23 44
M  V30 49 1 23 45
M  V30 50 1 24 46
M  V30 51 1 24 47
M  V30 52 1 25 48
M  V30 53 1 25 49
M  V30 54 1 26 50
M  V30 55 1 27 51
M  V30 END BOND
M  V30 END CTAB
M  END
>  <Dataset>  (382) 
ChEMBL_Kinases

>  <Ligand_Instance>  (382) 
nan

>  <PDB_ID>  (382) 
nan

>  <Standardized_SMILES>  (382) 
COc1cc(Cl)cn2c(-c3ccccc3)c(-c3ccc(C4(N)CCC4)cc3)nc12

>  <Name>  (382) 
nan

>  <Pocket>  (382) 
nan

>  <ATP_Site>  (382) 
nan

>  <Peripheral>  (382) 
nan

>  <Num_H_Atoms_ProtBoundConf>  (382) 
nan

>  <Num_Resolved_Atoms>  (382) 
nan

>  <Num_Not_Resolved_Atoms>  (382) 
nan

$$$$
CHEMBL3703137
     RDKit          3D

  0  0  0  0  0  0  0  0  0  0999 V3000
M  V30 BEGIN CTAB
M  V30 COUNTS 55 59 0 0 0
M  V30 BEGIN ATOM
M  V30 1 C 3.429427 -6.545186 0.994882 0
M  V30 2 O 4.110115 -5.458470 1.537583 0
M  V30 3 C 3.650146 -4.164010 1.566523 0
M  V30 4 C 4.417367 -3.148842 2.137196 0
M  V30 5 C 3.979226 -1.819711 2.183459 0
M  V30 6 O 4.664237 -0.920627 2.691551 0
M  V30 7 C 5.442851 -0.020057 3.245414 0
M  V30 8 C 2.720481 -1.580471 1.618590 0
M  V30 9 N 2.045590 -0.392000 1.522587 0
M  V30 10 C 0.859871 -0.600965 0.905973 0
M  V30 11 C -0.206966 0.340864 0.571970 0
M  V30 12 C -0.834277 1.018233 1.606662 0
M  V30 13 C -1.850026 1.916955 1.314570 0
M  V30 14 C -2.235105 2.134958 -0.014455 0
M  V30 15 C -3.335783 3.125696 -0.161167 0
M  V30 16 N -4.476845 2.859362 0.704702 0
M  V30 17 C -3.785823 3.397334 -1.583093 0
M  V30 18 C -4.106580 4.809083 -1.069255 0
M  V30 19 C -2.922874 4.580637 -0.116809 0
M  V30 20 C -1.615446 1.464305 -1.051412 0
M  V30 21 C -0.597650 0.564472 -0.752224 0
M  V30 22 C 0.800012 -1.961029 0.611572 0
M  V30 23 C -0.273431 -2.635597 -0.041772 0
M  V30 24 C -1.510663 -2.633455 0.593343 0
M  V30 25 C -2.575462 -3.276210 -0.007044 0
M  V30 26 C -2.468148 -3.935923 -1.235657 0
M  V30 27 C -1.230047 -3.948250 -1.889370 0
M  V30 28 C -0.180780 -3.296906 -1.265800 0
M  V30 29 N 1.941544 -2.517499 1.057494 0
M  V30 30 C 2.428897 -3.794022 1.045346 0
M  V30 31 H 4.109950 -7.417011 1.043138 0
M  V30 32 H 3.031521 -6.373392 -0.014783 0
M  V30 33 H 2.572448 -6.798661 1.651590 0
M  V30 34 H 5.387012 -3.400979 2.558975 0
M  V30 35 H 4.950512 0.946559 3.558245 0
M  V30 36 H 6.313994 0.331707 2.609969 0
M  V30 37 H 5.973090 -0.407923 4.175868 0
M  V30 38 H -0.517433 0.832144 2.631095 0
M  V30 39 H -2.293956 2.409191 2.174045 0
M  V30 40 H -4.556527 3.516073 1.491835 0
M  V30 41 H -4.581231 1.858905 0.919809 0
M  V30 42 H -4.663318 2.803820 -1.883514 0
M  V30 43 H -2.948284 3.430707 -2.307074 0
M  V30 44 H -3.986194 5.616944 -1.789537 0
M  V30 45 H -5.025062 4.776339 -0.453847 0
M  V30 46 H -3.040466 5.075728 0.858094 0
M  V30 47 H -1.989785 4.762866 -0.675003 0
M  V30 48 H -1.951755 1.672192 -2.036251 0
M  V30 49 H -0.104144 0.034653 -1.533739 0
M  V30 50 H -1.671689 -2.143102 1.548113 0
M  V30 51 H -3.540822 -3.267834 0.500736 0
M  V30 52 H -3.328513 -4.418883 -1.655962 0
M  V30 53 H -1.130052 -4.446004 -2.826395 0
M  V30 54 H 0.799991 -3.297951 -1.767343 0
M  V30 55 H 1.851935 -4.599693 0.607824 0
M  V30 END ATOM
M  V30 BEGIN BOND
M  V30 1 1 1 2
M  V30 2 1 2 3
M  V30 3 1 3 4
M  V30 4 2 4 5
M  V30 5 1 5 6
M  V30 6 1 6 7
M  V30 7 1 5 8
M  V30 8 2 8 9
M  V30 9 1 9 10
M  V30 10 1 10 11
M  V30 11 2 11 12
M  V30 12 1 12 13
M  V30 13 2 13 14
M  V30 14 1 14 15
M  V30 15 1 15 16
M  V30 16 1 15 17
M  V30 17 1 17 18
M  V30 18 1 18 19
M  V30 19 1 14 20
M  V30 20 2 20 21
M  V30 21 2 10 22
M  V30 22 1 22 23
M  V30 23 2 23 24
M  V30 24 1 24 25
M  V30 25 2 25 26
M  V30 26 1 26 27
M  V30 27 2 27 28
M  V30 28 1 22 29
M  V30 29 1 29 30
M  V30 30 2 30 3
M  V30 31 1 29 8
M  V30 32 1 21 11
M  V30 33 1 28 23
M  V30 34 1 19 15
M  V30 35 1 1 31
M  V30 36 1 1 32
M  V30 37 1 1 33
M  V30 38 1 4 34
M  V30 39 1 7 35
M  V30 40 1 7 36
M  V30 41 1 7 37
M  V30 42 1 12 38
M  V30 43 1 13 39
M  V30 44 1 16 40
M  V30 45 1 16 41
M  V30 46 1 17 42
M  V30 47 1 17 43
M  V30 48 1 18 44
M  V30 49 1 18 45
M  V30 50 1 19 46
M  V30 51 1 19 47
M  V30 52 1 20 48
M  V30 53 1 21 49
M  V30 54 1 24 50
M  V30 55 1 25 51
M  V30 56 1 26 52
M  V30 57 1 27 53
M  V30 58 1 28 54
M  V30 59 1 30 55
M  V30 END BOND
M  V30 END CTAB
M  END
>  <Dataset>  (383) 
ChEMBL_Kinases

>  <Ligand_Instance>  (383) 
nan

>  <PDB_ID>  (383) 
nan

>  <Standardized_SMILES>  (383) 
COc1cc(OC)c2nc(-c3ccc(C4(N)CCC4)cc3)c(-c3ccccc3)n2c1

>  <Name>  (383) 
nan

>  <Pocket>  (383) 
nan

>  <ATP_Site>  (383) 
nan

>  <Peripheral>  (383) 
nan

>  <Num_H_Atoms_ProtBoundConf>  (383) 
nan

>  <Num_Resolved_Atoms>  (383) 
nan

>  <Num_Not_Resolved_Atoms>  (383) 
nan

$$$$
CHEMBL2387471
     RDKit          3D

  0  0  0  0  0  0  0  0  0  0999 V3000
M  V30 BEGIN CTAB
M  V30 COUNTS 61 66 0 0 0
M  V30 BEGIN ATOM
M  V30 1 O 1.540738 -3.133490 2.780764 0
M  V30 2 C 0.626518 -2.617066 3.517115 0
M  V30 3 N 0.963710 -1.536896 4.342930 0
M  V30 4 C 2.332541 -1.161024 4.202340 0
M  V30 5 C 3.403810 -1.692477 4.886265 0
M  V30 6 N 4.471904 -1.018740 4.435521 0
M  V30 7 C 4.110312 -0.107595 3.515525 0
M  V30 8 N 4.839632 0.797743 2.806431 0
M  V30 9 C 4.235747 1.637617 1.930947 0
M  V30 10 C 2.863138 1.645910 1.689303 0
M  V30 11 C 2.242428 2.588005 0.773162 0
M  V30 12 C 2.116526 2.524189 -0.601514 0
M  V30 13 F 2.707745 1.417926 -1.142818 0
M  V30 14 C 1.458292 3.515499 -1.311723 0
M  V30 15 C 0.913023 4.595357 -0.602641 0
M  V30 16 C 1.027110 4.676017 0.766990 0
M  V30 17 C 1.694748 3.674967 1.471004 0
M  V30 18 F 1.722633 3.893755 2.808345 0
M  V30 19 C 2.149012 0.701723 2.434898 0
M  V30 20 C 2.721844 -0.163172 3.329358 0
M  V30 21 C -0.710481 -3.237992 3.407276 0
M  V30 22 C -1.625460 -3.494004 4.416817 0
M  V30 23 N -2.681057 -4.032561 3.727501 0
M  V30 24 N -2.434393 -4.097594 2.449916 0
M  V30 25 C -3.247768 -4.559241 1.474226 0
M  V30 26 C -2.758411 -4.515673 0.152843 0
M  V30 27 C -1.464568 -4.005333 -0.083452 0
M  V30 28 N -1.187798 -4.033093 -1.486448 0
M  V30 29 C -1.145720 -3.194595 -2.676315 0
M  V30 30 C -2.412075 -2.371128 -2.826791 0
M  V30 31 C -2.392633 -1.529445 -4.090006 0
M  V30 32 C -3.304418 -0.323463 -3.906582 0
M  V30 33 N -2.695828 0.620189 -2.973831 0
M  V30 34 C -1.740416 -0.101754 -2.127652 0
M  V30 35 C -2.403384 -1.403223 -1.642559 0
M  V30 36 N -0.713242 -3.563962 0.939234 0
M  V30 37 C -1.216528 -3.618583 2.180817 0
M  V30 38 H 0.175805 -1.148398 4.941013 0
M  V30 39 H 3.296588 -2.490291 5.618861 0
M  V30 40 H 5.439882 -1.224977 4.798381 0
M  V30 41 H 4.894071 2.316504 1.407743 0
M  V30 42 H 1.423902 3.357212 -2.380181 0
M  V30 43 H 0.422924 5.300265 -1.268558 0
M  V30 44 H 0.565266 5.553932 1.247533 0
M  V30 45 H 1.084292 0.642414 2.296752 0
M  V30 46 H -1.485961 -3.294005 5.464362 0
M  V30 47 H -4.260978 -4.959335 1.629510 0
M  V30 48 H -3.446747 -4.896789 -0.616170 0
M  V30 49 H -0.922222 -5.059114 -1.608371 0
M  V30 50 H -0.239540 -2.543787 -2.631083 0
M  V30 51 H -1.064866 -3.869428 -3.541658 0
M  V30 52 H -3.286558 -3.002694 -2.743092 0
M  V30 53 H -1.389391 -1.196228 -4.372834 0
M  V30 54 H -2.823601 -2.124300 -4.899034 0
M  V30 55 H -3.402097 0.183577 -4.871959 0
M  V30 56 H -4.319668 -0.633327 -3.575186 0
M  V30 57 H -2.252106 1.411540 -3.440564 0
M  V30 58 H -1.472055 0.476834 -1.221246 0
M  V30 59 H -0.798747 -0.332889 -2.645136 0
M  V30 60 H -3.419155 -1.156199 -1.292837 0
M  V30 61 H -1.754082 -1.747925 -0.828013 0
M  V30 END ATOM
M  V30 BEGIN BOND
M  V30 1 2 1 2
M  V30 2 1 2 3
M  V30 3 1 3 4
M  V30 4 2 4 5
M  V30 5 1 5 6
M  V30 6 1 6 7
M  V30 7 2 7 8
M  V30 8 1 8 9
M  V30 9 2 9 10
M  V30 10 1 10 11
M  V30 11 2 11 12
M  V30 12 1 12 13
M  V30 13 1 12 14
M  V30 14 2 14 15
M  V30 15 1 15 16
M  V30 16 2 16 17
M  V30 17 1 17 18
M  V30 18 1 10 19
M  V30 19 2 19 20
M  V30 20 1 2 21
M  V30 21 1 21 22
M  V30 22 2 22 23
M  V30 23 1 23 24
M  V30 24 1 24 25
M  V30 25 2 25 26
M  V30 26 1 26 27
M  V30 27 1 27 28
M  V30 28 1 28 29
M  V30 29 1 29 30
M  V30 30 1 30 31
M  V30 31 1 31 32
M  V30 32 1 32 33
M  V30 33 1 33 34
M  V30 34 1 34 35
M  V30 35 2 27 36
M  V30 36 1 36 37
M  V30 37 1 20 4
M  V30 38 2 37 21
M  V30 39 1 20 7
M  V30 40 1 37 24
M  V30 41 1 17 11
M  V30 42 1 35 30
M  V30 43 1 3 38
M  V30 44 1 5 39
M  V30 45 1 6 40
M  V30 46 1 9 41
M  V30 47 1 14 42
M  V30 48 1 15 43
M  V30 49 1 16 44
M  V30 50 1 19 45
M  V30 51 1 22 46
M  V30 52 1 25 47
M  V30 53 1 26 48
M  V30 54 1 28 49
M  V30 55 1 29 50
M  V30 56 1 29 51
M  V30 57 1 30 52
M  V30 58 1 31 53
M  V30 59 1 31 54
M  V30 60 1 32 55
M  V30 61 1 32 56
M  V30 62 1 33 57
M  V30 63 1 34 58
M  V30 64 1 34 59
M  V30 65 1 35 60
M  V30 66 1 35 61
M  V30 END BOND
M  V30 END CTAB
M  END
>  <Dataset>  (384) 
ChEMBL_Kinases

>  <Ligand_Instance>  (384) 
nan

>  <PDB_ID>  (384) 
nan

>  <Standardized_SMILES>  (384) 
O=C(Nc1c[nH]c2ncc(-c3c(F)cccc3F)cc12)c1cnn2ccc(NCC3CCNCC3)nc12

>  <Name>  (384) 
nan

>  <Pocket>  (384) 
nan

>  <ATP_Site>  (384) 
nan

>  <Peripheral>  (384) 
nan

>  <Num_H_Atoms_ProtBoundConf>  (384) 
nan

>  <Num_Resolved_Atoms>  (384) 
nan

>  <Num_Not_Resolved_Atoms>  (384) 
nan

$$$$
CHEMBL3702139
     RDKit          3D

  0  0  0  0  0  0  0  0  0  0999 V3000
M  V30 BEGIN CTAB
M  V30 COUNTS 55 60 0 0 0
M  V30 BEGIN ATOM
M  V30 1 C 1.653002 -1.418967 4.963334 0
M  V30 2 C 2.636806 -0.925269 6.016127 0
M  V30 3 S 4.118272 -0.239702 5.000568 0
M  V30 4 C 3.383413 -0.626057 3.422050 0
M  V30 5 C 3.920474 -0.422673 2.120639 0
M  V30 6 N 3.679490 0.918270 1.640502 0
M  V30 7 C 4.524950 1.967628 1.871204 0
M  V30 8 C 5.712516 2.091913 2.559330 0
M  V30 9 N 6.345758 3.284492 2.625244 0
M  V30 10 C 5.812844 4.381662 2.009250 0
M  V30 11 C 4.631020 4.309037 1.311968 0
M  V30 12 C 3.996091 3.078513 1.254871 0
M  V30 13 C 2.822674 2.609312 0.671835 0
M  V30 14 C 1.939243 3.350567 -0.080173 0
M  V30 15 N 0.873439 2.720492 -0.572383 0
M  V30 16 C 0.610164 1.406876 -0.379277 0
M  V30 17 N -0.542382 0.915302 -0.989278 0
M  V30 18 C -1.363199 -0.230416 -1.014341 0
M  V30 19 C -1.022630 -1.464435 -1.540750 0
M  V30 20 C -1.899427 -2.527022 -1.566128 0
M  V30 21 C -3.158573 -2.348289 -1.048667 0
M  V30 22 N -4.225479 -3.314183 -0.997337 0
M  V30 23 C -5.616623 -3.075947 -0.650407 0
M  V30 24 C -6.339262 -3.168261 -2.006151 0
M  V30 25 N -6.180909 -4.470928 -2.534946 0
M  V30 26 C -4.849503 -5.010223 -2.559084 0
M  V30 27 C -4.044149 -4.736564 -1.324204 0
M  V30 28 C -3.505857 -1.124175 -0.520110 0
M  V30 29 N -2.627151 -0.110874 -0.511036 0
M  V30 30 C 1.500228 0.692270 0.369713 0
M  V30 31 C 2.618658 1.278634 0.904999 0
M  V30 32 C 2.198139 -1.185185 3.758203 0
M  V30 33 H 1.095386 -1.667651 5.837074 0
M  V30 34 H 3.104955 -0.677279 7.123808 0
M  V30 35 H 5.039733 -0.601473 2.162625 0
M  V30 36 H 3.535579 -1.148436 1.369243 0
M  V30 37 H 6.169896 1.225905 3.071301 0
M  V30 38 H 6.258326 5.381334 2.012024 0
M  V30 39 H 4.175664 5.134110 0.815177 0
M  V30 40 H 2.081674 4.396612 -0.278082 0
M  V30 41 H -1.038882 1.528584 -1.711285 0
M  V30 42 H -0.024610 -1.580639 -1.939574 0
M  V30 43 H -1.675593 -3.493329 -1.955862 0
M  V30 44 H -5.824352 -2.132860 -0.155565 0
M  V30 45 H -6.041994 -3.940786 -0.067561 0
M  V30 46 H -5.788590 -2.457687 -2.672509 0
M  V30 47 H -7.415834 -2.960550 -1.907928 0
M  V30 48 H -6.738290 -4.675176 -3.384072 0
M  V30 49 H -4.989154 -6.132927 -2.618336 0
M  V30 50 H -4.361863 -4.720246 -3.503451 0
M  V30 51 H -2.990434 -5.017697 -1.457170 0
M  V30 52 H -4.506785 -5.314658 -0.487732 0
M  V30 53 H -4.442445 -0.761462 -0.054398 0
M  V30 54 H 1.330985 -0.343796 0.549371 0
M  V30 55 H 1.389673 -1.586623 3.154583 0
M  V30 END ATOM
M  V30 BEGIN BOND
M  V30 1 2 1 2
M  V30 2 1 2 3
M  V30 3 1 3 4
M  V30 4 1 4 5
M  V30 5 1 5 6
M  V30 6 1 6 7
M  V30 7 2 7 8
M  V30 8 1 8 9
M  V30 9 2 9 10
M  V30 10 1 10 11
M  V30 11 2 11 12
M  V30 12 1 12 13
M  V30 13 2 13 14
M  V30 14 1 14 15
M  V30 15 2 15 16
M  V30 16 1 16 17
M  V30 17 1 17 18
M  V30 18 2 18 19
M  V30 19 1 19 20
M  V30 20 2 20 21
M  V30 21 1 21 22
M  V30 22 1 22 23
M  V30 23 1 23 24
M  V30 24 1 24 25
M  V30 25 1 25 26
M  V30 26 1 26 27
M  V30 27 1 21 28
M  V30 28 2 28 29
M  V30 29 1 16 30
M  V30 30 2 30 31
M  V30 31 2 4 32
M  V30 32 1 32 1
M  V30 33 1 31 6
M  V30 34 1 12 7
M  V30 35 1 31 13
M  V30 36 1 29 18
M  V30 37 1 27 22
M  V30 38 1 1 33
M  V30 39 1 2 34
M  V30 40 1 5 35
M  V30 41 1 5 36
M  V30 42 1 8 37
M  V30 43 1 10 38
M  V30 44 1 11 39
M  V30 45 1 14 40
M  V30 46 1 17 41
M  V30 47 1 19 42
M  V30 48 1 20 43
M  V30 49 1 23 44
M  V30 50 1 23 45
M  V30 51 1 24 46
M  V30 52 1 24 47
M  V30 53 1 25 48
M  V30 54 1 26 49
M  V30 55 1 26 50
M  V30 56 1 27 51
M  V30 57 1 27 52
M  V30 58 1 28 53
M  V30 59 1 30 54
M  V30 60 1 32 55
M  V30 END BOND
M  V30 END CTAB
M  END
>  <Dataset>  (385) 
ChEMBL_Kinases

>  <Ligand_Instance>  (385) 
nan

>  <PDB_ID>  (385) 
nan

>  <Standardized_SMILES>  (385) 
c1csc(Cn2c3cnccc3c3cnc(Nc4ccc(N5CCNCC5)cn4)cc32)c1

>  <Name>  (385) 
nan

>  <Pocket>  (385) 
nan

>  <ATP_Site>  (385) 
nan

>  <Peripheral>  (385) 
nan

>  <Num_H_Atoms_ProtBoundConf>  (385) 
nan

>  <Num_Resolved_Atoms>  (385) 
nan

>  <Num_Not_Resolved_Atoms>  (385) 
nan

$$$$
CHEMBL3703138
     RDKit          3D

  0  0  0  0  0  0  0  0  0  0999 V3000
M  V30 BEGIN CTAB
M  V30 COUNTS 57 61 0 0 0
M  V30 BEGIN ATOM
M  V30 1 C 2.986794 -5.653113 3.779250 0
M  V30 2 C 3.587656 -5.138803 2.488020 0
M  V30 3 C 3.175042 -3.718593 2.263893 0
M  V30 4 C 3.949301 -2.688016 2.759901 0
M  V30 5 C 3.536460 -1.390485 2.533079 0
M  V30 6 O 4.257931 -0.280496 2.998418 0
M  V30 7 C 5.455609 -0.552214 3.727870 0
M  V30 8 C 2.385968 -1.084116 1.833493 0
M  V30 9 N 1.777173 0.081889 1.483838 0
M  V30 10 C 0.647282 -0.217098 0.784586 0
M  V30 11 C -0.400886 0.584096 0.158324 0
M  V30 12 C -1.239343 1.462610 0.816366 0
M  V30 13 C -2.210631 2.186418 0.153871 0
M  V30 14 C -2.379794 2.051192 -1.228604 0
M  V30 15 C -3.475482 2.917422 -1.723642 0
M  V30 16 N -4.651829 2.928957 -0.852276 0
M  V30 17 C -3.056100 4.317391 -2.152356 0
M  V30 18 C -4.143985 4.195323 -3.230138 0
M  V30 19 C -3.903352 2.682083 -3.130449 0
M  V30 20 C -1.547552 1.177043 -1.893037 0
M  V30 21 C -0.583548 0.463304 -1.213031 0
M  V30 22 C 0.555024 -1.602850 0.699659 0
M  V30 23 C -0.462022 -2.445056 0.058187 0
M  V30 24 C -1.770047 -2.412780 0.500234 0
M  V30 25 C -2.695088 -3.219321 -0.129671 0
M  V30 26 C -2.313675 -4.037660 -1.177778 0
M  V30 27 C -0.994869 -4.025497 -1.572642 0
M  V30 28 C -0.010341 -3.243544 -0.989159 0
M  V30 29 N 1.633218 -2.117119 1.350617 0
M  V30 30 C 2.025726 -3.400674 1.565258 0
M  V30 31 H 1.888786 -5.530073 3.675573 0
M  V30 32 H 3.312839 -5.099674 4.667040 0
M  V30 33 H 3.198275 -6.741754 3.842314 0
M  V30 34 H 3.150744 -5.747908 1.666357 0
M  V30 35 H 4.677018 -5.209161 2.452655 0
M  V30 36 H 4.873694 -2.870650 3.323395 0
M  V30 37 H 6.181023 -1.116745 3.133344 0
M  V30 38 H 5.905381 0.425863 4.025256 0
M  V30 39 H 5.178016 -1.043218 4.696917 0
M  V30 40 H -1.059204 1.523992 1.889144 0
M  V30 41 H -2.774836 2.825515 0.828576 0
M  V30 42 H -4.880988 3.892862 -0.511556 0
M  V30 43 H -4.620183 2.224287 -0.104354 0
M  V30 44 H -2.053214 4.300556 -2.615855 0
M  V30 45 H -3.251331 5.103743 -1.414887 0
M  V30 46 H -3.891206 4.645932 -4.192485 0
M  V30 47 H -5.154426 4.457357 -2.836038 0
M  V30 48 H -4.875771 2.116120 -3.210274 0
M  V30 49 H -3.129692 2.351019 -3.832965 0
M  V30 50 H -1.756360 1.143549 -2.952129 0
M  V30 51 H 0.014662 -0.194812 -1.834518 0
M  V30 52 H -2.000891 -1.742773 1.333022 0
M  V30 53 H -3.719306 -3.198160 0.211920 0
M  V30 54 H -3.034904 -4.682323 -1.686762 0
M  V30 55 H -0.704334 -4.672358 -2.397627 0
M  V30 56 H 1.006512 -3.257544 -1.320296 0
M  V30 57 H 1.447069 -4.237686 1.193244 0
M  V30 END ATOM
M  V30 BEGIN BOND
M  V30 1 1 1 2
M  V30 2 1 2 3
M  V30 3 1 3 4
M  V30 4 2 4 5
M  V30 5 1 5 6
M  V30 6 1 6 7
M  V30 7 1 5 8
M  V30 8 2 8 9
M  V30 9 1 9 10
M  V30 10 1 10 11
M  V30 11 2 11 12
M  V30 12 1 12 13
M  V30 13 2 13 14
M  V30 14 1 14 15
M  V30 15 1 15 16
M  V30 16 1 15 17
M  V30 17 1 17 18
M  V30 18 1 18 19
M  V30 19 1 14 20
M  V30 20 2 20 21
M  V30 21 2 10 22
M  V30 22 1 22 23
M  V30 23 2 23 24
M  V30 24 1 24 25
M  V30 25 2 25 26
M  V30 26 1 26 27
M  V30 27 2 27 28
M  V30 28 1 22 29
M  V30 29 1 29 30
M  V30 30 2 30 3
M  V30 31 1 29 8
M  V30 32 1 21 11
M  V30 33 1 28 23
M  V30 34 1 19 15
M  V30 35 1 1 31
M  V30 36 1 1 32
M  V30 37 1 1 33
M  V30 38 1 2 34
M  V30 39 1 2 35
M  V30 40 1 4 36
M  V30 41 1 7 37
M  V30 42 1 7 38
M  V30 43 1 7 39
M  V30 44 1 12 40
M  V30 45 1 13 41
M  V30 46 1 16 42
M  V30 47 1 16 43
M  V30 48 1 17 44
M  V30 49 1 17 45
M  V30 50 1 18 46
M  V30 51 1 18 47
M  V30 52 1 19 48
M  V30 53 1 19 49
M  V30 54 1 20 50
M  V30 55 1 21 51
M  V30 56 1 24 52
M  V30 57 1 25 53
M  V30 58 1 26 54
M  V30 59 1 27 55
M  V30 60 1 28 56
M  V30 61 1 30 57
M  V30 END BOND
M  V30 END CTAB
M  END
>  <Dataset>  (386) 
ChEMBL_Kinases

>  <Ligand_Instance>  (386) 
nan

>  <PDB_ID>  (386) 
nan

>  <Standardized_SMILES>  (386) 
CCc1cc(OC)c2nc(-c3ccc(C4(N)CCC4)cc3)c(-c3ccccc3)n2c1

>  <Name>  (386) 
nan

>  <Pocket>  (386) 
nan

>  <ATP_Site>  (386) 
nan

>  <Peripheral>  (386) 
nan

>  <Num_H_Atoms_ProtBoundConf>  (386) 
nan

>  <Num_Resolved_Atoms>  (386) 
nan

>  <Num_Not_Resolved_Atoms>  (386) 
nan

$$$$
CHEMBL2204093
     RDKit          3D

  0  0  0  0  0  0  0  0  0  0999 V3000
M  V30 BEGIN CTAB
M  V30 COUNTS 55 58 0 0 0
M  V30 BEGIN ATOM
M  V30 1 C -2.514285 0.494137 3.798193 0
M  V30 2 O -1.297426 -0.053449 3.391235 0
M  V30 3 C -1.176663 -0.813716 2.266833 0
M  V30 4 O -2.404434 -0.578257 2.190034 0
M  V30 5 C -0.421667 -1.602112 1.328429 0
M  V30 6 C 0.921803 -1.752884 1.532063 0
M  V30 7 C 1.781289 -1.120623 2.554305 0
M  V30 8 C 2.187413 0.251075 2.186875 0
M  V30 9 C 3.278937 0.345650 1.324649 0
M  V30 10 C 3.782085 1.558046 0.895041 0
M  V30 11 C 3.238915 2.752658 1.290631 0
M  V30 12 S 3.812203 4.318279 0.796448 0
M  V30 13 C 2.988595 4.864121 -0.698765 0
M  V30 14 O 5.296514 4.264509 0.520647 0
M  V30 15 O 3.580767 5.374941 1.830846 0
M  V30 16 C 2.146274 2.697365 2.153296 0
M  V30 17 C 1.681107 1.468728 2.553472 0
M  V30 18 C 1.531163 -2.594283 0.591780 0
M  V30 19 O 2.736693 -2.892511 0.561406 0
M  V30 20 C 0.794288 -3.179442 -0.415933 0
M  V30 21 C 1.343739 -4.009009 -1.361446 0
M  V30 22 C 0.655555 -4.618595 -2.388958 0
M  V30 23 C -0.694867 -4.324168 -2.405563 0
M  V30 24 C -1.588958 -4.893484 -3.442788 0
M  V30 25 F -2.588433 -5.667283 -2.872004 0
M  V30 26 F -2.211823 -3.871576 -4.143558 0
M  V30 27 F -0.873615 -5.662681 -4.333511 0
M  V30 28 N -1.316644 -3.525402 -1.523311 0
M  V30 29 C -0.560978 -2.960482 -0.535312 0
M  V30 30 N -1.159296 -2.158525 0.357923 0
M  V30 31 C -2.559880 -1.936674 0.229267 0
M  V30 32 C -3.500187 -2.758839 0.791225 0
M  V30 33 C -4.860838 -2.488266 0.628063 0
M  V30 34 C -5.254853 -1.370920 -0.113768 0
M  V30 35 C -4.285236 -0.561012 -0.667905 0
M  V30 36 C -2.960276 -0.827375 -0.507094 0
M  V30 37 H -2.285255 1.059752 4.753221 0
M  V30 38 H -3.285564 -0.271757 4.096829 0
M  V30 39 H -2.944267 1.254511 3.130525 0
M  V30 40 H 2.723448 -1.730540 2.652082 0
M  V30 41 H 1.302158 -1.118503 3.560751 0
M  V30 42 H 3.865690 -0.450733 0.888718 0
M  V30 43 H 4.626147 1.709369 0.226114 0
M  V30 44 H 1.910279 4.673983 -0.561429 0
M  V30 45 H 3.338463 4.257231 -1.575506 0
M  V30 46 H 3.125267 5.943384 -0.855915 0
M  V30 47 H 1.661402 3.592935 2.511071 0
M  V30 48 H 0.855763 1.458074 3.218306 0
M  V30 49 H 2.423581 -4.220152 -1.317505 0
M  V30 50 H 1.112724 -5.268332 -3.121868 0
M  V30 51 H -3.159094 -3.626652 1.367548 0
M  V30 52 H -5.519509 -3.212304 1.120181 0
M  V30 53 H -6.329458 -1.314135 -0.138330 0
M  V30 54 H -4.712289 0.276454 -1.222059 0
M  V30 55 H -2.291384 -0.121462 -0.988229 0
M  V30 END ATOM
M  V30 BEGIN BOND
M  V30 1 1 1 2
M  V30 2 1 2 3
M  V30 3 2 3 4
M  V30 4 1 3 5
M  V30 5 2 5 6
M  V30 6 1 6 7
M  V30 7 1 7 8
M  V30 8 2 8 9
M  V30 9 1 9 10
M  V30 10 2 10 11
M  V30 11 1 11 12
M  V30 12 1 12 13
M  V30 13 2 12 14
M  V30 14 2 12 15
M  V30 15 1 11 16
M  V30 16 2 16 17
M  V30 17 1 6 18
M  V30 18 2 18 19
M  V30 19 1 18 20
M  V30 20 2 20 21
M  V30 21 1 21 22
M  V30 22 2 22 23
M  V30 23 1 23 24
M  V30 24 1 24 25
M  V30 25 1 24 26
M  V30 26 1 24 27
M  V30 27 1 23 28
M  V30 28 2 28 29
M  V30 29 1 29 30
M  V30 30 1 30 31
M  V30 31 2 31 32
M  V30 32 1 32 33
M  V30 33 2 33 34
M  V30 34 1 34 35
M  V30 35 2 35 36
M  V30 36 1 30 5
M  V30 37 1 36 31
M  V30 38 1 17 8
M  V30 39 1 29 20
M  V30 40 1 1 37
M  V30 41 1 1 38
M  V30 42 1 1 39
M  V30 43 1 7 40
M  V30 44 1 7 41
M  V30 45 1 9 42
M  V30 46 1 10 43
M  V30 47 1 13 44
M  V30 48 1 13 45
M  V30 49 1 13 46
M  V30 50 1 16 47
M  V30 51 1 17 48
M  V30 52 1 21 49
M  V30 53 1 22 50
M  V30 54 1 32 51
M  V30 55 1 33 52
M  V30 56 1 34 53
M  V30 57 1 35 54
M  V30 58 1 36 55
M  V30 END BOND
M  V30 END CTAB
M  END
>  <Dataset>  (387) 
ChEMBL_Kinases

>  <Ligand_Instance>  (387) 
nan

>  <PDB_ID>  (387) 
nan

>  <Standardized_SMILES>  (387) 
COC(=O)c1c(Cc2ccc(S(C)(=O)=O)cc2)c(=O)c2ccc(C(F)(F)F)nc2n1-c1ccccc1

>  <Name>  (387) 
nan

>  <Pocket>  (387) 
nan

>  <ATP_Site>  (387) 
nan

>  <Peripheral>  (387) 
nan

>  <Num_H_Atoms_ProtBoundConf>  (387) 
nan

>  <Num_Resolved_Atoms>  (387) 
nan

>  <Num_Not_Resolved_Atoms>  (387) 
nan

$$$$
CHEMBL3703139
     RDKit          3D

  0  0  0  0  0  0  0  0  0  0999 V3000
M  V30 BEGIN CTAB
M  V30 COUNTS 58 63 0 0 0
M  V30 BEGIN ATOM
M  V30 1 C 4.913465 -2.726782 2.850655 0
M  V30 2 O 3.722376 -2.337562 2.183707 0
M  V30 3 C 3.274499 -1.047017 2.111605 0
M  V30 4 C 3.942629 0.000396 2.683476 0
M  V30 5 C 3.443420 1.299793 2.581662 0
M  V30 6 C 4.169103 2.405595 3.197100 0
M  V30 7 C 5.355982 2.303585 3.902718 0
M  V30 8 N 5.779157 3.486915 4.345879 0
M  V30 9 C 4.857059 4.370057 3.923960 0
M  V30 10 N 3.892075 3.726497 3.236115 0
M  V30 11 C 2.264671 1.568961 1.903596 0
M  V30 12 N 1.617867 0.525615 1.345356 0
M  V30 13 C 0.476656 0.437454 0.634478 0
M  V30 14 C -0.424159 1.498717 0.250590 0
M  V30 15 C -1.007700 2.064978 1.396420 0
M  V30 16 C -1.920923 3.120632 1.275822 0
M  V30 17 C -2.258575 3.614891 0.056169 0
M  V30 18 C -1.684769 3.056795 -1.056413 0
M  V30 19 C -0.781454 2.016233 -0.977204 0
M  V30 20 C 0.232392 -0.869855 0.281018 0
M  V30 21 C -0.804825 -1.572498 -0.463812 0
M  V30 22 C -1.520309 -2.462655 0.350256 0
M  V30 23 C -2.546909 -3.229125 -0.163980 0
M  V30 24 C -2.912431 -3.154712 -1.491265 0
M  V30 25 C -3.962023 -3.878607 -2.213821 0
M  V30 26 N -4.710344 -2.980987 -3.070294 0
M  V30 27 C -4.794797 -4.857863 -1.442251 0
M  V30 28 C -3.819803 -5.963129 -1.839733 0
M  V30 29 C -3.450035 -5.072631 -3.030975 0
M  V30 30 C -2.188235 -2.262197 -2.287450 0
M  V30 31 C -1.173899 -1.501240 -1.791443 0
M  V30 32 N 1.263358 -1.587698 0.798622 0
M  V30 33 C 2.102589 -0.726853 1.445680 0
M  V30 34 H 4.904876 -3.820075 3.040303 0
M  V30 35 H 4.974720 -2.193113 3.822786 0
M  V30 36 H 5.826037 -2.437916 2.272519 0
M  V30 37 H 4.879430 -0.192424 3.225699 0
M  V30 38 H 5.900867 1.366717 4.086929 0
M  V30 39 H 4.851441 5.432059 4.087715 0
M  V30 40 H 3.020188 4.111746 2.766475 0
M  V30 41 H 1.847113 2.566605 1.804312 0
M  V30 42 H -0.838738 1.779179 2.443538 0
M  V30 43 H -2.392053 3.584029 2.136553 0
M  V30 44 H -2.956456 4.428555 -0.115461 0
M  V30 45 H -1.870853 3.361625 -2.095894 0
M  V30 46 H -0.271826 1.506084 -1.772576 0
M  V30 47 H -1.348341 -2.623711 1.390566 0
M  V30 48 H -3.134716 -3.931469 0.407466 0
M  V30 49 H -5.642537 -3.403590 -3.319050 0
M  V30 50 H -4.151255 -2.831946 -3.940995 0
M  V30 51 H -4.840604 -4.735745 -0.361735 0
M  V30 52 H -5.761926 -5.046534 -1.953378 0
M  V30 53 H -2.995366 -6.079640 -1.086932 0
M  V30 54 H -4.267835 -6.929820 -2.100975 0
M  V30 55 H -2.353099 -5.008470 -3.179372 0
M  V30 56 H -4.066267 -5.331414 -3.907901 0
M  V30 57 H -2.345991 -2.080656 -3.351725 0
M  V30 58 H -0.568310 -0.793624 -2.337842 0
M  V30 END ATOM
M  V30 BEGIN BOND
M  V30 1 1 1 2
M  V30 2 1 2 3
M  V30 3 2 3 4
M  V30 4 1 4 5
M  V30 5 1 5 6
M  V30 6 2 6 7
M  V30 7 1 7 8
M  V30 8 2 8 9
M  V30 9 1 9 10
M  V30 10 2 5 11
M  V30 11 1 11 12
M  V30 12 1 12 13
M  V30 13 1 13 14
M  V30 14 2 14 15
M  V30 15 1 15 16
M  V30 16 2 16 17
M  V30 17 1 17 18
M  V30 18 2 18 19
M  V30 19 2 13 20
M  V30 20 1 20 21
M  V30 21 2 21 22
M  V30 22 1 22 23
M  V30 23 2 23 24
M  V30 24 1 24 25
M  V30 25 1 25 26
M  V30 26 1 25 27
M  V30 27 1 27 28
M  V30 28 1 28 29
M  V30 29 1 24 30
M  V30 30 2 30 31
M  V30 31 1 20 32
M  V30 32 2 32 33
M  V30 33 1 33 3
M  V30 34 1 10 6
M  V30 35 1 33 12
M  V30 36 1 19 14
M  V30 37 1 31 21
M  V30 38 1 29 25
M  V30 39 1 1 34
M  V30 40 1 1 35
M  V30 41 1 1 36
M  V30 42 1 4 37
M  V30 43 1 7 38
M  V30 44 1 9 39
M  V30 45 1 10 40
M  V30 46 1 11 41
M  V30 47 1 15 42
M  V30 48 1 16 43
M  V30 49 1 17 44
M  V30 50 1 18 45
M  V30 51 1 19 46
M  V30 52 1 22 47
M  V30 53 1 23 48
M  V30 54 1 26 49
M  V30 55 1 26 50
M  V30 56 1 27 51
M  V30 57 1 27 52
M  V30 58 1 28 53
M  V30 59 1 28 54
M  V30 60 1 29 55
M  V30 61 1 29 56
M  V30 62 1 30 57
M  V30 63 1 31 58
M  V30 END BOND
M  V30 END CTAB
M  END
>  <Dataset>  (388) 
ChEMBL_Kinases

>  <Ligand_Instance>  (388) 
nan

>  <PDB_ID>  (388) 
nan

>  <Standardized_SMILES>  (388) 
COc1cc(-c2cnc[nH]2)cn2c(-c3ccccc3)c(-c3ccc(C4(N)CCC4)cc3)nc12

>  <Name>  (388) 
nan

>  <Pocket>  (388) 
nan

>  <ATP_Site>  (388) 
nan

>  <Peripheral>  (388) 
nan

>  <Num_H_Atoms_ProtBoundConf>  (388) 
nan

>  <Num_Resolved_Atoms>  (388) 
nan

>  <Num_Not_Resolved_Atoms>  (388) 
nan

$$$$
CHEMBL3703140
     RDKit          3D

  0  0  0  0  0  0  0  0  0  0999 V3000
M  V30 BEGIN CTAB
M  V30 COUNTS 58 63 0 0 0
M  V30 BEGIN ATOM
M  V30 1 C 1.496002 -1.056997 6.533295 0
M  V30 2 O 1.045245 -1.062706 5.218751 0
M  V30 3 C 1.446023 -0.275940 4.176120 0
M  V30 4 C 2.429432 0.695960 4.330596 0
M  V30 5 C 2.833977 1.492998 3.270049 0
M  V30 6 C 3.868440 2.516203 3.433974 0
M  V30 7 N 4.500008 2.764487 4.601990 0
M  V30 8 C 5.385602 3.765218 4.389240 0
M  V30 9 C 5.299143 4.142290 3.063891 0
M  V30 10 N 4.354755 3.351967 2.505523 0
M  V30 11 C 2.245854 1.321945 2.016770 0
M  V30 12 N 1.284523 0.362383 1.892603 0
M  V30 13 C 0.560706 -0.016709 0.829446 0
M  V30 14 C 0.642797 0.544317 -0.513726 0
M  V30 15 C 0.334249 1.894639 -0.587364 0
M  V30 16 C 0.387951 2.502414 -1.824253 0
M  V30 17 C 0.735978 1.820576 -2.988713 0
M  V30 18 C 1.041183 0.460761 -2.880109 0
M  V30 19 C 0.991936 -0.166858 -1.641273 0
M  V30 20 C -0.316086 -1.048697 1.161702 0
M  V30 21 C -1.266937 -1.732792 0.287666 0
M  V30 22 C -1.122862 -3.100887 0.111399 0
M  V30 23 C -1.985894 -3.809295 -0.701435 0
M  V30 24 C -3.029961 -3.184705 -1.373874 0
M  V30 25 C -4.011425 -3.833740 -2.265860 0
M  V30 26 N -5.377590 -3.412417 -2.019656 0
M  V30 27 C -3.854088 -5.310921 -2.453177 0
M  V30 28 C -2.917503 -5.033141 -3.622131 0
M  V30 29 C -3.649450 -3.693728 -3.751450 0
M  V30 30 C -3.163037 -1.822187 -1.190330 0
M  V30 31 C -2.309988 -1.090541 -0.380264 0
M  V30 32 N -0.070918 -1.256630 2.473046 0
M  V30 33 C 0.891621 -0.410079 2.918246 0
M  V30 34 H 0.741067 -0.652460 7.242840 0
M  V30 35 H 2.467862 -0.550912 6.700442 0
M  V30 36 H 1.620009 -2.135270 6.846491 0
M  V30 37 H 2.916912 0.863136 5.298184 0
M  V30 38 H 6.087879 4.264516 5.054576 0
M  V30 39 H 5.851995 4.907984 2.531802 0
M  V30 40 H 4.017043 3.352451 1.501922 0
M  V30 41 H 2.541283 1.929434 1.171252 0
M  V30 42 H 0.055943 2.488301 0.272740 0
M  V30 43 H 0.146084 3.564100 -1.885257 0
M  V30 44 H 0.753081 2.373795 -3.916082 0
M  V30 45 H 1.311967 -0.080177 -3.769883 0
M  V30 46 H 1.221981 -1.217027 -1.521678 0
M  V30 47 H -0.346535 -3.709612 0.581686 0
M  V30 48 H -1.893224 -4.864540 -0.851549 0
M  V30 49 H -6.028394 -4.153951 -2.299105 0
M  V30 50 H -5.532767 -2.503970 -2.543191 0
M  V30 51 H -3.452980 -5.911381 -1.642986 0
M  V30 52 H -4.776345 -5.787553 -2.845016 0
M  V30 53 H -1.861915 -4.976708 -3.352645 0
M  V30 54 H -3.096222 -5.690105 -4.502002 0
M  V30 55 H -2.896089 -2.871542 -3.883258 0
M  V30 56 H -4.488578 -3.714486 -4.446786 0
M  V30 57 H -3.955431 -1.244635 -1.679078 0
M  V30 58 H -2.359706 -0.034429 -0.196843 0
M  V30 END ATOM
M  V30 BEGIN BOND
M  V30 1 1 1 2
M  V30 2 1 2 3
M  V30 3 2 3 4
M  V30 4 1 4 5
M  V30 5 1 5 6
M  V30 6 2 6 7
M  V30 7 1 7 8
M  V30 8 2 8 9
M  V30 9 1 9 10
M  V30 10 2 5 11
M  V30 11 1 11 12
M  V30 12 1 12 13
M  V30 13 1 13 14
M  V30 14 2 14 15
M  V30 15 1 15 16
M  V30 16 2 16 17
M  V30 17 1 17 18
M  V30 18 2 18 19
M  V30 19 2 13 20
M  V30 20 1 20 21
M  V30 21 2 21 22
M  V30 22 1 22 23
M  V30 23 2 23 24
M  V30 24 1 24 25
M  V30 25 1 25 26
M  V30 26 1 25 27
M  V30 27 1 27 28
M  V30 28 1 28 29
M  V30 29 1 24 30
M  V30 30 2 30 31
M  V30 31 1 20 32
M  V30 32 2 32 33
M  V30 33 1 33 3
M  V30 34 1 10 6
M  V30 35 1 33 12
M  V30 36 1 19 14
M  V30 37 1 31 21
M  V30 38 1 29 25
M  V30 39 1 1 34
M  V30 40 1 1 35
M  V30 41 1 1 36
M  V30 42 1 4 37
M  V30 43 1 8 38
M  V30 44 1 9 39
M  V30 45 1 10 40
M  V30 46 1 11 41
M  V30 47 1 15 42
M  V30 48 1 16 43
M  V30 49 1 17 44
M  V30 50 1 18 45
M  V30 51 1 19 46
M  V30 52 1 22 47
M  V30 53 1 23 48
M  V30 54 1 26 49
M  V30 55 1 26 50
M  V30 56 1 27 51
M  V30 57 1 27 52
M  V30 58 1 28 53
M  V30 59 1 28 54
M  V30 60 1 29 55
M  V30 61 1 29 56
M  V30 62 1 30 57
M  V30 63 1 31 58
M  V30 END BOND
M  V30 END CTAB
M  END
>  <Dataset>  (389) 
ChEMBL_Kinases

>  <Ligand_Instance>  (389) 
nan

>  <PDB_ID>  (389) 
nan

>  <Standardized_SMILES>  (389) 
COc1cc(-c2ncc[nH]2)cn2c(-c3ccccc3)c(-c3ccc(C4(N)CCC4)cc3)nc12

>  <Name>  (389) 
nan

>  <Pocket>  (389) 
nan

>  <ATP_Site>  (389) 
nan

>  <Peripheral>  (389) 
nan

>  <Num_H_Atoms_ProtBoundConf>  (389) 
nan

>  <Num_Resolved_Atoms>  (389) 
nan

>  <Num_Not_Resolved_Atoms>  (389) 
nan

$$$$
CHEMBL3703141
     RDKit          3D

  0  0  0  0  0  0  0  0  0  0999 V3000
M  V30 BEGIN CTAB
M  V30 COUNTS 57 62 0 0 0
M  V30 BEGIN ATOM
M  V30 1 C 5.163094 -5.560270 6.524271 0
M  V30 2 N 4.387394 -5.116497 5.380490 0
M  V30 3 C 4.188101 -3.858782 4.894802 0
M  V30 4 C 3.370323 -3.921108 3.777423 0
M  V30 5 C 2.895589 -2.823465 2.937373 0
M  V30 6 C 3.606520 -1.662714 2.691641 0
M  V30 7 C 3.072901 -0.666732 1.871413 0
M  V30 8 N 1.850584 -0.878870 1.335120 0
M  V30 9 C 1.134864 -0.077210 0.521088 0
M  V30 10 C 1.406029 1.237873 -0.040884 0
M  V30 11 C 1.590828 1.643864 -1.343195 0
M  V30 12 C 1.833495 2.964647 -1.637244 0
M  V30 13 C 1.898599 3.911475 -0.647782 0
M  V30 14 C 1.718306 3.535250 0.655504 0
M  V30 15 C 1.473137 2.207244 0.964720 0
M  V30 16 C -0.053969 -0.715290 0.230612 0
M  V30 17 C -1.247892 -0.438022 -0.563719 0
M  V30 18 C -2.446088 -0.185485 0.075755 0
M  V30 19 C -3.582450 0.072875 -0.661439 0
M  V30 20 C -3.591670 0.094217 -2.062569 0
M  V30 21 C -4.872267 0.381386 -2.701711 0
M  V30 22 N -5.644895 1.322971 -1.911624 0
M  V30 23 C -5.736895 -0.815650 -3.023826 0
M  V30 24 C -5.853724 -0.374603 -4.451545 0
M  V30 25 C -4.900654 0.762870 -4.138159 0
M  V30 26 C -2.368737 -0.164717 -2.643124 0
M  V30 27 C -1.212088 -0.426914 -1.942282 0
M  V30 28 N -0.043819 -1.915962 0.883745 0
M  V30 29 C 1.133113 -2.018030 1.566615 0
M  V30 30 C 1.629635 -3.026760 2.373682 0
M  V30 31 C 3.095037 -5.268730 3.623811 0
M  V30 32 N 3.718261 -5.970087 4.600309 0
M  V30 33 H 4.466998 -5.962857 7.293861 0
M  V30 34 H 5.853072 -6.388355 6.268954 0
M  V30 35 H 5.678235 -4.707972 7.009352 0
M  V30 36 H 4.614259 -2.963991 5.331956 0
M  V30 37 H 4.567572 -1.563711 3.148857 0
M  V30 38 H 3.618805 0.241552 1.673592 0
M  V30 39 H 1.523484 0.838492 -2.038903 0
M  V30 40 H 1.970179 3.213815 -2.696820 0
M  V30 41 H 2.096579 4.925561 -1.002212 0
M  V30 42 H 1.782857 4.334170 1.386856 0
M  V30 43 H 1.350849 2.048008 2.033697 0
M  V30 44 H -2.471456 -0.194841 1.163192 0
M  V30 45 H -4.490449 0.263768 -0.107320 0
M  V30 46 H -5.042075 1.993652 -1.424383 0
M  V30 47 H -6.365872 0.870830 -1.336742 0
M  V30 48 H -6.732901 -0.829311 -2.538488 0
M  V30 49 H -5.167898 -1.754827 -2.842143 0
M  V30 50 H -6.883594 -0.067821 -4.761847 0
M  V30 51 H -5.420684 -1.064539 -5.204456 0
M  V30 52 H -3.932567 0.712948 -4.634181 0
M  V30 53 H -5.440369 1.729995 -4.357944 0
M  V30 54 H -2.354571 -0.154902 -3.721943 0
M  V30 55 H -0.306417 -0.619153 -2.493330 0
M  V30 56 H 1.064536 -3.937127 2.562455 0
M  V30 57 H 2.472781 -5.725910 2.839761 0
M  V30 END ATOM
M  V30 BEGIN BOND
M  V30 1 1 1 2
M  V30 2 1 2 3
M  V30 3 2 3 4
M  V30 4 1 4 5
M  V30 5 1 5 6
M  V30 6 2 6 7
M  V30 7 1 7 8
M  V30 8 1 8 9
M  V30 9 1 9 10
M  V30 10 2 10 11
M  V30 11 1 11 12
M  V30 12 2 12 13
M  V30 13 1 13 14
M  V30 14 2 14 15
M  V30 15 2 9 16
M  V30 16 1 16 17
M  V30 17 2 17 18
M  V30 18 1 18 19
M  V30 19 2 19 20
M  V30 20 1 20 21
M  V30 21 1 21 22
M  V30 22 1 21 23
M  V30 23 1 23 24
M  V30 24 1 24 25
M  V30 25 1 20 26
M  V30 26 2 26 27
M  V30 27 1 16 28
M  V30 28 2 28 29
M  V30 29 1 29 30
M  V30 30 1 4 31
M  V30 31 2 31 32
M  V30 32 1 32 2
M  V30 33 2 30 5
M  V30 34 1 29 8
M  V30 35 1 15 10
M  V30 36 1 27 17
M  V30 37 1 25 21
M  V30 38 1 1 33
M  V30 39 1 1 34
M  V30 40 1 1 35
M  V30 41 1 3 36
M  V30 42 1 6 37
M  V30 43 1 7 38
M  V30 44 1 11 39
M  V30 45 1 12 40
M  V30 46 1 13 41
M  V30 47 1 14 42
M  V30 48 1 15 43
M  V30 49 1 18 44
M  V30 50 1 19 45
M  V30 51 1 22 46
M  V30 52 1 22 47
M  V30 53 1 23 48
M  V30 54 1 23 49
M  V30 55 1 24 50
M  V30 56 1 24 51
M  V30 57 1 25 52
M  V30 58 1 25 53
M  V30 59 1 26 54
M  V30 60 1 27 55
M  V30 61 1 30 56
M  V30 62 1 31 57
M  V30 END BOND
M  V30 END CTAB
M  END
>  <Dataset>  (390) 
ChEMBL_Kinases

>  <Ligand_Instance>  (390) 
nan

>  <PDB_ID>  (390) 
nan

>  <Standardized_SMILES>  (390) 
Cn1cc(-c2ccn3c(-c4ccccc4)c(-c4ccc(C5(N)CCC5)cc4)nc3c2)cn1

>  <Name>  (390) 
nan

>  <Pocket>  (390) 
nan

>  <ATP_Site>  (390) 
nan

>  <Peripheral>  (390) 
nan

>  <Num_H_Atoms_ProtBoundConf>  (390) 
nan

>  <Num_Resolved_Atoms>  (390) 
nan

>  <Num_Not_Resolved_Atoms>  (390) 
nan

$$$$
CHEMBL3703135
     RDKit          3D

  0  0  0  0  0  0  0  0  0  0999 V3000
M  V30 BEGIN CTAB
M  V30 COUNTS 52 56 0 0 0
M  V30 BEGIN ATOM
M  V30 1 C 1.028170 -7.555057 1.054447 0
M  V30 2 C 2.161957 -6.860959 0.392450 0
M  V30 3 O 3.125767 -7.594661 0.045818 0
M  V30 4 C 2.231187 -5.428304 0.125101 0
M  V30 5 C 3.378750 -4.990036 -0.503617 0
M  V30 6 C 3.445794 -3.614625 -0.761545 0
M  V30 7 C 2.385195 -2.818529 -0.377273 0
M  V30 8 N 2.246893 -1.471415 -0.531635 0
M  V30 9 C 1.049149 -1.096774 -0.012072 0
M  V30 10 C 0.591657 0.291994 -0.017806 0
M  V30 11 C 1.342240 1.253133 0.644715 0
M  V30 12 C 1.003154 2.592344 0.703383 0
M  V30 13 C -0.148455 2.997582 0.066421 0
M  V30 14 C -0.618783 4.401141 0.056309 0
M  V30 15 N -1.138500 4.816545 -1.224512 0
M  V30 16 C 0.179375 5.425658 0.753472 0
M  V30 17 C -0.670725 5.289892 2.007691 0
M  V30 18 C -1.703131 4.601546 1.125084 0
M  V30 19 C -0.925190 2.075764 -0.604443 0
M  V30 20 C -0.568586 0.731950 -0.653194 0
M  V30 21 C 0.432710 -2.229589 0.473269 0
M  V30 22 C -0.861764 -2.273177 1.107655 0
M  V30 23 C -1.283960 -1.659039 2.292898 0
M  V30 24 C -2.578544 -1.831282 2.729304 0
M  V30 25 C -3.487538 -2.600131 2.027601 0
M  V30 26 C -3.094941 -3.223847 0.843488 0
M  V30 27 C -1.785208 -3.036329 0.422635 0
M  V30 28 N 1.272816 -3.276516 0.237715 0
M  V30 29 C 1.193252 -4.597448 0.492698 0
M  V30 30 H 1.259109 -7.735152 2.116436 0
M  V30 31 H 0.095486 -6.974933 0.989759 0
M  V30 32 H 0.821816 -8.552007 0.610769 0
M  V30 33 H 4.205245 -5.600355 -0.804489 0
M  V30 34 H 4.319280 -3.171239 -1.258044 0
M  V30 35 H 2.261657 0.985843 1.164726 0
M  V30 36 H 1.610370 3.297091 1.224761 0
M  V30 37 H -2.182079 4.870347 -1.214314 0
M  V30 38 H -0.775241 4.266417 -2.031964 0
M  V30 39 H 0.021482 6.445306 0.302230 0
M  V30 40 H 1.231842 5.282909 0.964011 0
M  V30 41 H -0.978036 6.239824 2.459029 0
M  V30 42 H -0.259297 4.613354 2.771522 0
M  V30 43 H -2.510419 5.298433 0.846788 0
M  V30 44 H -2.057480 3.665920 1.593287 0
M  V30 45 H -1.829689 2.353826 -1.112821 0
M  V30 46 H -1.121874 -0.038987 -1.154458 0
M  V30 47 H -0.502842 -1.081567 2.766326 0
M  V30 48 H -2.849955 -1.334017 3.650985 0
M  V30 49 H -4.509138 -2.708618 2.414605 0
M  V30 50 H -3.815696 -3.822909 0.303797 0
M  V30 51 H -1.575096 -3.567376 -0.517899 0
M  V30 52 H 0.302156 -4.948483 0.982590 0
M  V30 END ATOM
M  V30 BEGIN BOND
M  V30 1 1 1 2
M  V30 2 2 2 3
M  V30 3 1 2 4
M  V30 4 1 4 5
M  V30 5 2 5 6
M  V30 6 1 6 7
M  V30 7 2 7 8
M  V30 8 1 8 9
M  V30 9 1 9 10
M  V30 10 2 10 11
M  V30 11 1 11 12
M  V30 12 2 12 13
M  V30 13 1 13 14
M  V30 14 1 14 15
M  V30 15 1 14 16
M  V30 16 1 16 17
M  V30 17 1 17 18
M  V30 18 1 13 19
M  V30 19 2 19 20
M  V30 20 2 9 21
M  V30 21 1 21 22
M  V30 22 2 22 23
M  V30 23 1 23 24
M  V30 24 2 24 25
M  V30 25 1 25 26
M  V30 26 2 26 27
M  V30 27 1 21 28
M  V30 28 1 28 29
M  V30 29 2 29 4
M  V30 30 1 28 7
M  V30 31 1 20 10
M  V30 32 1 27 22
M  V30 33 1 18 14
M  V30 34 1 1 30
M  V30 35 1 1 31
M  V30 36 1 1 32
M  V30 37 1 5 33
M  V30 38 1 6 34
M  V30 39 1 11 35
M  V30 40 1 12 36
M  V30 41 1 15 37
M  V30 42 1 15 38
M  V30 43 1 16 39
M  V30 44 1 16 40
M  V30 45 1 17 41
M  V30 46 1 17 42
M  V30 47 1 18 43
M  V30 48 1 18 44
M  V30 49 1 19 45
M  V30 50 1 20 46
M  V30 51 1 23 47
M  V30 52 1 24 48
M  V30 53 1 25 49
M  V30 54 1 26 50
M  V30 55 1 27 51
M  V30 56 1 29 52
M  V30 END BOND
M  V30 END CTAB
M  END
>  <Dataset>  (391) 
ChEMBL_Kinases

>  <Ligand_Instance>  (391) 
nan

>  <PDB_ID>  (391) 
nan

>  <Standardized_SMILES>  (391) 
CC(=O)c1ccc2nc(-c3ccc(C4(N)CCC4)cc3)c(-c3ccccc3)n2c1

>  <Name>  (391) 
nan

>  <Pocket>  (391) 
nan

>  <ATP_Site>  (391) 
nan

>  <Peripheral>  (391) 
nan

>  <Num_H_Atoms_ProtBoundConf>  (391) 
nan

>  <Num_Resolved_Atoms>  (391) 
nan

>  <Num_Not_Resolved_Atoms>  (391) 
nan

$$$$
CHEMBL3703117
     RDKit          3D

  0  0  0  0  0  0  0  0  0  0999 V3000
M  V30 BEGIN CTAB
M  V30 COUNTS 59 63 0 0 0
M  V30 BEGIN ATOM
M  V30 1 C 4.277460 1.211722 6.704790 0
M  V30 2 O 4.582815 1.113387 5.334979 0
M  V30 3 C 5.227321 -0.000384 4.867036 0
M  V30 4 O 5.402676 -0.735165 5.898472 0
M  V30 5 C 5.799746 -0.722332 3.735204 0
M  V30 6 C 5.671954 -0.020019 2.403734 0
M  V30 7 C 4.263215 0.221770 2.036025 0
M  V30 8 C 3.483302 1.326569 2.308348 0
M  V30 9 C 2.168675 1.395050 1.895159 0
M  V30 10 N 1.595800 0.387995 1.211053 0
M  V30 11 C 0.340658 0.286895 0.736713 0
M  V30 12 C -0.784665 1.208213 0.801784 0
M  V30 13 C -0.548214 2.384130 0.081228 0
M  V30 14 C -1.510964 3.392218 0.023539 0
M  V30 15 C -2.714305 3.241792 0.679453 0
M  V30 16 C -2.942435 2.080611 1.388372 0
M  V30 17 C -1.994707 1.085302 1.446759 0
M  V30 18 C 0.271095 -0.944704 0.114943 0
M  V30 19 C -0.803831 -1.643702 -0.584850 0
M  V30 20 C -0.612317 -1.819395 -1.940184 0
M  V30 21 C -1.519114 -2.456839 -2.760247 0
M  V30 22 C -2.693078 -2.961557 -2.242829 0
M  V30 23 C -3.828692 -3.675396 -2.867172 0
M  V30 24 N -4.349053 -4.737992 -2.024716 0
M  V30 25 C -4.940907 -2.777689 -3.365981 0
M  V30 26 C -5.047855 -3.671811 -4.586853 0
M  V30 27 C -3.653403 -4.182827 -4.257954 0
M  V30 28 C -2.890188 -2.784576 -0.865720 0
M  V30 29 C -1.975266 -2.145057 -0.056698 0
M  V30 30 N 1.487048 -1.543428 0.235936 0
M  V30 31 C 2.314842 -0.711377 0.920593 0
M  V30 32 C 3.635388 -0.805874 1.322944 0
M  V30 33 H 3.985156 0.245189 7.174365 0
M  V30 34 H 3.345052 1.845141 6.766188 0
M  V30 35 H 5.043480 1.705325 7.312825 0
M  V30 36 H 5.228377 -1.684716 3.614246 0
M  V30 37 H 6.858948 -1.011872 3.882973 0
M  V30 38 H 6.160871 -0.655070 1.655059 0
M  V30 39 H 6.195608 0.951810 2.497011 0
M  V30 40 H 3.978664 2.102435 2.851603 0
M  V30 41 H 1.630283 2.296341 2.150876 0
M  V30 42 H 0.339571 2.657977 -0.487288 0
M  V30 43 H -1.390077 4.321946 -0.514330 0
M  V30 44 H -3.517751 3.971624 0.688048 0
M  V30 45 H -3.852728 1.875378 1.932240 0
M  V30 46 H -2.103186 0.172294 1.973498 0
M  V30 47 H 0.272453 -1.468355 -2.473854 0
M  V30 48 H -1.431038 -2.624648 -3.814540 0
M  V30 49 H -4.727825 -5.513504 -2.573534 0
M  V30 50 H -3.517863 -5.088694 -1.473742 0
M  V30 51 H -4.669829 -1.739832 -3.559558 0
M  V30 52 H -5.853457 -2.889518 -2.744802 0
M  V30 53 H -5.147968 -3.181314 -5.556540 0
M  V30 54 H -5.766932 -4.513998 -4.470509 0
M  V30 55 H -2.853932 -3.643137 -4.797747 0
M  V30 56 H -3.538744 -5.282733 -4.363081 0
M  V30 57 H -3.767424 -3.126954 -0.302015 0
M  V30 58 H -2.099461 -1.998216 1.000398 0
M  V30 59 H 4.155622 -1.733363 1.047899 0
M  V30 END ATOM
M  V30 BEGIN BOND
M  V30 1 1 1 2
M  V30 2 1 2 3
M  V30 3 2 3 4
M  V30 4 1 3 5
M  V30 5 1 5 6
M  V30 6 1 6 7
M  V30 7 1 7 8
M  V30 8 2 8 9
M  V30 9 1 9 10
M  V30 10 1 10 11
M  V30 11 1 11 12
M  V30 12 2 12 13
M  V30 13 1 13 14
M  V30 14 2 14 15
M  V30 15 1 15 16
M  V30 16 2 16 17
M  V30 17 2 11 18
M  V30 18 1 18 19
M  V30 19 2 19 20
M  V30 20 1 20 21
M  V30 21 2 21 22
M  V30 22 1 22 23
M  V30 23 1 23 24
M  V30 24 1 23 25
M  V30 25 1 25 26
M  V30 26 1 26 27
M  V30 27 1 22 28
M  V30 28 2 28 29
M  V30 29 1 18 30
M  V30 30 2 30 31
M  V30 31 1 31 32
M  V30 32 2 32 7
M  V30 33 1 31 10
M  V30 34 1 17 12
M  V30 35 1 29 19
M  V30 36 1 27 23
M  V30 37 1 1 33
M  V30 38 1 1 34
M  V30 39 1 1 35
M  V30 40 1 5 36
M  V30 41 1 5 37
M  V30 42 1 6 38
M  V30 43 1 6 39
M  V30 44 1 8 40
M  V30 45 1 9 41
M  V30 46 1 13 42
M  V30 47 1 14 43
M  V30 48 1 15 44
M  V30 49 1 16 45
M  V30 50 1 17 46
M  V30 51 1 20 47
M  V30 52 1 21 48
M  V30 53 1 24 49
M  V30 54 1 24 50
M  V30 55 1 25 51
M  V30 56 1 25 52
M  V30 57 1 26 53
M  V30 58 1 26 54
M  V30 59 1 27 55
M  V30 60 1 27 56
M  V30 61 1 28 57
M  V30 62 1 29 58
M  V30 63 1 32 59
M  V30 END BOND
M  V30 END CTAB
M  END
>  <Dataset>  (392) 
ChEMBL_Kinases

>  <Ligand_Instance>  (392) 
nan

>  <PDB_ID>  (392) 
nan

>  <Standardized_SMILES>  (392) 
COC(=O)CCc1ccn2c(-c3ccccc3)c(-c3ccc(C4(N)CCC4)cc3)nc2c1

>  <Name>  (392) 
nan

>  <Pocket>  (392) 
nan

>  <ATP_Site>  (392) 
nan

>  <Peripheral>  (392) 
nan

>  <Num_H_Atoms_ProtBoundConf>  (392) 
nan

>  <Num_Resolved_Atoms>  (392) 
nan

>  <Num_Not_Resolved_Atoms>  (392) 
nan

$$$$
CHEMBL3703118
     RDKit          3D

  0  0  0  0  0  0  0  0  0  0999 V3000
M  V30 BEGIN CTAB
M  V30 COUNTS 57 61 0 0 0
M  V30 BEGIN ATOM
M  V30 1 C 3.465233 -2.179359 7.891665 0
M  V30 2 C 3.909999 -2.936337 6.644051 0
M  V30 3 N 3.260825 -2.470222 5.449678 0
M  V30 4 C 3.386241 -1.128363 4.999634 0
M  V30 5 O 4.089928 -0.375600 5.693366 0
M  V30 6 C 2.740473 -0.624985 3.794323 0
M  V30 7 C 2.938279 0.677448 3.388507 0
M  V30 8 C 2.345637 1.220203 2.245618 0
M  V30 9 N 1.545600 0.429582 1.511375 0
M  V30 10 C 0.850150 0.676021 0.381585 0
M  V30 11 C 0.739058 1.881802 -0.421975 0
M  V30 12 C 1.172117 2.091243 -1.714540 0
M  V30 13 C 1.006555 3.283647 -2.377460 0
M  V30 14 C 0.384079 4.353153 -1.765651 0
M  V30 15 C -0.064858 4.180200 -0.465848 0
M  V30 16 C 0.112272 2.989100 0.166377 0
M  V30 17 C 0.185208 -0.454533 0.026656 0
M  V30 18 C -0.718127 -0.918036 -1.016923 0
M  V30 19 C -1.986315 -1.304038 -0.560529 0
M  V30 20 C -3.014014 -1.783546 -1.358797 0
M  V30 21 C -2.753907 -1.882398 -2.698360 0
M  V30 22 C -3.721686 -2.378571 -3.683992 0
M  V30 23 N -3.586794 -1.694039 -4.943728 0
M  V30 24 C -3.586861 -3.890973 -3.923188 0
M  V30 25 C -4.680590 -4.088381 -2.891640 0
M  V30 26 C -5.110203 -2.667491 -3.200532 0
M  V30 27 C -1.519451 -1.513388 -3.193202 0
M  V30 28 C -0.519350 -1.040851 -2.374583 0
M  V30 29 N 0.515187 -1.366679 0.983567 0
M  V30 30 C 1.338817 -0.840072 1.887153 0
M  V30 31 C 1.912100 -1.396484 3.009032 0
M  V30 32 H 4.293334 -1.535851 8.241139 0
M  V30 33 H 2.661277 -1.472844 7.534057 0
M  V30 34 H 3.056253 -2.848210 8.669664 0
M  V30 35 H 5.029568 -2.928731 6.575600 0
M  V30 36 H 3.640887 -3.994014 6.815997 0
M  V30 37 H 2.676030 -3.120954 4.881613 0
M  V30 38 H 3.577903 1.346960 3.955922 0
M  V30 39 H 2.498550 2.234252 1.928352 0
M  V30 40 H 1.659382 1.243488 -2.171948 0
M  V30 41 H 1.400726 3.297065 -3.393420 0
M  V30 42 H 0.305168 5.242833 -2.374810 0
M  V30 43 H -0.537368 5.045302 -0.050629 0
M  V30 44 H -0.282221 2.988035 1.170789 0
M  V30 45 H -2.243713 -1.244916 0.497667 0
M  V30 46 H -3.957123 -2.062433 -0.963414 0
M  V30 47 H -3.226246 -0.718290 -4.856185 0
M  V30 48 H -4.442172 -1.714923 -5.520703 0
M  V30 49 H -2.585075 -4.282556 -3.646602 0
M  V30 50 H -3.966732 -4.224736 -4.920571 0
M  V30 51 H -4.280382 -4.250779 -1.887044 0
M  V30 52 H -5.438774 -4.848364 -3.170035 0
M  V30 53 H -5.520031 -2.089488 -2.377991 0
M  V30 54 H -5.833136 -2.704508 -4.049089 0
M  V30 55 H -1.225323 -1.557686 -4.238422 0
M  V30 56 H 0.462979 -0.740008 -2.693876 0
M  V30 57 H 1.702651 -2.420450 3.253388 0
M  V30 END ATOM
M  V30 BEGIN BOND
M  V30 1 1 1 2
M  V30 2 1 2 3
M  V30 3 1 3 4
M  V30 4 2 4 5
M  V30 5 1 4 6
M  V30 6 1 6 7
M  V30 7 2 7 8
M  V30 8 1 8 9
M  V30 9 1 9 10
M  V30 10 1 10 11
M  V30 11 2 11 12
M  V30 12 1 12 13
M  V30 13 2 13 14
M  V30 14 1 14 15
M  V30 15 2 15 16
M  V30 16 2 10 17
M  V30 17 1 17 18
M  V30 18 2 18 19
M  V30 19 1 19 20
M  V30 20 2 20 21
M  V30 21 1 21 22
M  V30 22 1 22 23
M  V30 23 1 22 24
M  V30 24 1 24 25
M  V30 25 1 25 26
M  V30 26 1 21 27
M  V30 27 2 27 28
M  V30 28 1 17 29
M  V30 29 2 29 30
M  V30 30 1 30 31
M  V30 31 2 31 6
M  V30 32 1 30 9
M  V30 33 1 16 11
M  V30 34 1 28 18
M  V30 35 1 26 22
M  V30 36 1 1 32
M  V30 37 1 1 33
M  V30 38 1 1 34
M  V30 39 1 2 35
M  V30 40 1 2 36
M  V30 41 1 3 37
M  V30 42 1 7 38
M  V30 43 1 8 39
M  V30 44 1 12 40
M  V30 45 1 13 41
M  V30 46 1 14 42
M  V30 47 1 15 43
M  V30 48 1 16 44
M  V30 49 1 19 45
M  V30 50 1 20 46
M  V30 51 1 23 47
M  V30 52 1 23 48
M  V30 53 1 24 49
M  V30 54 1 24 50
M  V30 55 1 25 51
M  V30 56 1 25 52
M  V30 57 1 26 53
M  V30 58 1 26 54
M  V30 59 1 27 55
M  V30 60 1 28 56
M  V30 61 1 31 57
M  V30 END BOND
M  V30 END CTAB
M  END
>  <Dataset>  (393) 
ChEMBL_Kinases

>  <Ligand_Instance>  (393) 
nan

>  <PDB_ID>  (393) 
nan

>  <Standardized_SMILES>  (393) 
CCNC(=O)c1ccn2c(-c3ccccc3)c(-c3ccc(C4(N)CCC4)cc3)nc2c1

>  <Name>  (393) 
nan

>  <Pocket>  (393) 
nan

>  <ATP_Site>  (393) 
nan

>  <Peripheral>  (393) 
nan

>  <Num_H_Atoms_ProtBoundConf>  (393) 
nan

>  <Num_Resolved_Atoms>  (393) 
nan

>  <Num_Not_Resolved_Atoms>  (393) 
nan

$$$$
CHEMBL4460717
     RDKit          3D

  0  0  0  0  0  0  0  0  0  0999 V3000
M  V30 BEGIN CTAB
M  V30 COUNTS 81 85 0 0 0
M  V30 BEGIN ATOM
M  V30 1 C -0.295156 -5.301711 0.741682 0
M  V30 2 C 1.123962 -5.167474 1.277797 0
M  V30 3 C 1.855670 -6.393153 0.723424 0
M  V30 4 C 1.695443 -3.907031 0.758464 0
M  V30 5 C 2.739211 -3.238214 1.591187 0
M  V30 6 N 2.451207 -1.801049 1.568592 0
M  V30 7 C 3.269960 -0.736702 1.074248 0
M  V30 8 O 4.380845 -1.076397 0.599995 0
M  V30 9 C 2.748163 0.625803 1.163090 0
M  V30 10 C 1.534631 1.028647 1.720110 0
M  V30 11 C 1.192689 2.365850 1.702348 0
M  V30 12 C 2.038912 3.295214 1.140769 0
M  V30 13 N 1.596320 4.642538 1.152503 0
M  V30 14 C 0.374554 5.033409 1.763326 0
M  V30 15 N 0.131092 5.792953 2.845188 0
M  V30 16 C -1.144205 6.014193 3.242286 0
M  V30 17 C -2.142842 5.433221 2.495890 0
M  V30 18 N -3.441936 5.724308 2.992979 0 CHG=1 VAL=4
M  V30 19 O -3.751468 6.743830 3.633320 0
M  V30 20 O -4.710269 5.221180 3.044097 0 CHG=-1 VAL=1
M  V30 21 C -1.949502 4.647267 1.381554 0
M  V30 22 N -3.041605 4.090083 0.672756 0
M  V30 23 C -2.978731 3.210626 -0.417201 0
M  V30 24 C -1.840529 2.620261 -0.916811 0
M  V30 25 C -1.788640 1.755172 -1.985910 0
M  V30 26 C -2.952534 1.429529 -2.635048 0
M  V30 27 C -3.083183 0.531813 -3.772868 0
M  V30 28 O -4.130747 0.216159 -4.403754 0
M  V30 29 N -1.921514 -0.094542 -4.276825 0
M  V30 30 C -1.616696 -1.002646 -5.324245 0
M  V30 31 C -1.680252 -2.342176 -4.939429 0
M  V30 32 C -1.407459 -3.369521 -5.850194 0
M  V30 33 C -1.072912 -3.050764 -7.138979 0
M  V30 34 C -1.004271 -1.715396 -7.542185 0
M  V30 35 Cl -0.598033 -1.107086 -9.128617 0
M  V30 36 C -1.277571 -0.722913 -6.625734 0
M  V30 37 C -4.121478 1.992281 -2.176811 0
M  V30 38 C -4.138734 2.854047 -1.104544 0
M  V30 39 N -0.650825 4.501950 1.088588 0
M  V30 40 C 3.223234 2.915777 0.596077 0
M  V30 41 C 3.594832 1.587428 0.597904 0
M  V30 42 C 2.913206 -3.772739 2.966937 0
M  V30 43 C 1.635336 -4.316914 3.499750 0
M  V30 44 C 0.619366 -3.262918 3.892438 0
M  V30 45 C 2.003345 -4.998944 4.829842 0
M  V30 46 N 1.045584 -5.309149 2.680801 0
M  V30 47 O 1.163208 -6.574974 3.099869 0 RAD=2 VAL=1
M  V30 48 H -0.287365 -5.814295 -0.239726 0
M  V30 49 H -0.681300 -4.270242 0.589396 0
M  V30 50 H -0.972951 -5.775380 1.488024 0
M  V30 51 H 2.752107 -6.655180 1.294372 0
M  V30 52 H 2.023618 -6.316097 -0.369391 0
M  V30 53 H 1.135597 -7.254671 0.853699 0
M  V30 54 H 2.151417 -4.137278 -0.236176 0
M  V30 55 H 0.856229 -3.199230 0.490434 0
M  V30 56 H 3.759033 -3.303741 1.104070 0
M  V30 57 H 1.505016 -1.705318 1.994577 0
M  V30 58 H 0.936177 0.232498 2.137187 0
M  V30 59 H 0.229592 2.539443 2.165396 0
M  V30 60 H 2.124486 5.450224 0.719247 0
M  V30 61 H -1.291489 6.621929 4.103907 0
M  V30 62 H -3.993720 4.368158 1.002578 0
M  V30 63 H -0.893016 2.812113 -0.475536 0
M  V30 64 H -0.875638 1.310839 -2.349858 0
M  V30 65 H -0.952509 0.022255 -3.912377 0
M  V30 66 H -1.931767 -2.723052 -3.954692 0
M  V30 67 H -1.446666 -4.415637 -5.587900 0
M  V30 68 H -0.841962 -3.751739 -7.927323 0
M  V30 69 H -1.257640 0.354902 -6.816341 0
M  V30 70 H -5.084356 1.777270 -2.647142 0
M  V30 71 H -5.078625 3.279535 -0.769675 0
M  V30 72 H 3.827282 3.702188 0.178805 0
M  V30 73 H 4.558584 1.400065 0.137497 0
M  V30 74 H 3.315104 -2.979683 3.629619 0
M  V30 75 H 3.657579 -4.597494 2.990183 0
M  V30 76 H -0.107817 -3.116163 3.068554 0
M  V30 77 H 1.054817 -2.332795 4.260299 0
M  V30 78 H -0.018152 -3.640098 4.746861 0
M  V30 79 H 2.697513 -4.279350 5.332611 0
M  V30 80 H 1.134474 -5.108934 5.491485 0
M  V30 81 H 2.567144 -5.933106 4.639855 0
M  V30 END ATOM
M  V30 BEGIN BOND
M  V30 1 1 1 2
M  V30 2 1 2 3
M  V30 3 1 2 4
M  V30 4 1 4 5
M  V30 5 1 5 6
M  V30 6 1 6 7
M  V30 7 2 7 8
M  V30 8 1 7 9
M  V30 9 2 9 10
M  V30 10 1 10 11
M  V30 11 2 11 12
M  V30 12 1 12 13
M  V30 13 1 13 14
M  V30 14 2 14 15
M  V30 15 1 15 16
M  V30 16 2 16 17
M  V30 17 1 17 18
M  V30 18 2 18 19
M  V30 19 1 18 20
M  V30 20 1 17 21
M  V30 21 1 21 22
M  V30 22 1 22 23
M  V30 23 2 23 24
M  V30 24 1 24 25
M  V30 25 2 25 26
M  V30 26 1 26 27
M  V30 27 2 27 28
M  V30 28 1 27 29
M  V30 29 1 29 30
M  V30 30 2 30 31
M  V30 31 1 31 32
M  V30 32 2 32 33
M  V30 33 1 33 34
M  V30 34 1 34 35
M  V30 35 2 34 36
M  V30 36 1 26 37
M  V30 37 2 37 38
M  V30 38 2 21 39
M  V30 39 1 12 40
M  V30 40 2 40 41
M  V30 41 1 5 42
M  V30 42 1 42 43
M  V30 43 1 43 44
M  V30 44 1 43 45
M  V30 45 1 43 46
M  V30 46 1 46 47
M  V30 47 1 46 2
M  V30 48 1 41 9
M  V30 49 1 39 14
M  V30 50 1 38 23
M  V30 51 1 36 30
M  V30 52 1 1 48
M  V30 53 1 1 49
M  V30 54 1 1 50
M  V30 55 1 3 51
M  V30 56 1 3 52
M  V30 57 1 3 53
M  V30 58 1 4 54
M  V30 59 1 4 55
M  V30 60 1 5 56
M  V30 61 1 6 57
M  V30 62 1 10 58
M  V30 63 1 11 59
M  V30 64 1 13 60
M  V30 65 1 16 61
M  V30 66 1 22 62
M  V30 67 1 24 63
M  V30 68 1 25 64
M  V30 69 1 29 65
M  V30 70 1 31 66
M  V30 71 1 32 67
M  V30 72 1 33 68
M  V30 73 1 36 69
M  V30 74 1 37 70
M  V30 75 1 38 71
M  V30 76 1 40 72
M  V30 77 1 41 73
M  V30 78 1 42 74
M  V30 79 1 42 75
M  V30 80 1 44 76
M  V30 81 1 44 77
M  V30 82 1 44 78
M  V30 83 1 45 79
M  V30 84 1 45 80
M  V30 85 1 45 81
M  V30 END BOND
M  V30 END CTAB
M  END
>  <Dataset>  (394) 
ChEMBL_Kinases

>  <Ligand_Instance>  (394) 
nan

>  <PDB_ID>  (394) 
nan

>  <Standardized_SMILES>  (394) 
CC1(C)CC(NC(=O)c2ccc(Nc3ncc([N+](=O)[O-])c(Nc4ccc(C(=O)Nc5cccc(Cl)c5)cc4)n3)cc2)CC(C)(C)N1[O]

>  <Name>  (394) 
nan

>  <Pocket>  (394) 
nan

>  <ATP_Site>  (394) 
nan

>  <Peripheral>  (394) 
nan

>  <Num_H_Atoms_ProtBoundConf>  (394) 
nan

>  <Num_Resolved_Atoms>  (394) 
nan

>  <Num_Not_Resolved_Atoms>  (394) 
nan

$$$$
CHEMBL3703119
     RDKit          3D

  0  0  0  0  0  0  0  0  0  0999 V3000
M  V30 BEGIN CTAB
M  V30 COUNTS 52 56 0 0 0
M  V30 BEGIN ATOM
M  V30 1 N -4.054522 -3.841712 -2.382350 0
M  V30 2 C -3.240754 -4.006471 -1.169397 0
M  V30 3 C -2.253547 -2.939077 -0.951060 0
M  V30 4 C -2.621983 -1.674532 -1.414334 0
M  V30 5 C -1.744811 -0.625477 -1.243553 0
M  V30 6 C -0.529568 -0.844704 -0.622888 0
M  V30 7 C 0.522283 0.129024 -0.353500 0
M  V30 8 N 1.286060 0.900943 -1.145314 0
M  V30 9 C 2.126907 1.644277 -0.405051 0
M  V30 10 C 3.095407 2.581488 -0.777884 0
M  V30 11 C 3.856427 3.236363 0.163660 0
M  V30 12 C 4.846941 4.199836 -0.293527 0
M  V30 13 O 4.939666 4.368182 -1.534664 0
M  V30 14 N 5.653784 4.899392 0.643915 0
M  V30 15 O 6.618915 5.822839 0.434168 0
M  V30 16 C 3.612539 2.919372 1.483093 0
M  V30 17 C 2.661649 2.002414 1.801066 0
M  V30 18 N 1.902091 1.345899 0.906142 0
M  V30 19 C 0.922617 0.421187 0.934144 0
M  V30 20 C 0.430979 -0.125240 2.197931 0
M  V30 21 C 1.236451 -0.825092 3.073704 0
M  V30 22 C 0.718362 -1.318286 4.253297 0
M  V30 23 C -0.608931 -1.119231 4.573102 0
M  V30 24 C -1.462188 -0.420605 3.724313 0
M  V30 25 C -0.910201 0.061537 2.547553 0
M  V30 26 C -0.191547 -2.113991 -0.172776 0
M  V30 27 C -1.062210 -3.187029 -0.334999 0
M  V30 28 C -4.177839 -4.081504 0.025670 0
M  V30 29 C -3.416933 -5.319864 0.485425 0
M  V30 30 C -2.836775 -5.403754 -0.895119 0
M  V30 31 H -4.753730 -3.074797 -2.290924 0
M  V30 32 H -4.603357 -4.724617 -2.480925 0
M  V30 33 H -3.566274 -1.453642 -1.908090 0
M  V30 34 H -1.913441 0.391785 -1.556274 0
M  V30 35 H 3.206624 2.756728 -1.845618 0
M  V30 36 H 5.588752 4.771239 1.670063 0
M  V30 37 H 6.162584 6.696278 0.333654 0
M  V30 38 H 4.186397 3.410222 2.238678 0
M  V30 39 H 2.487291 1.769783 2.836594 0
M  V30 40 H 2.292388 -0.971467 2.797054 0
M  V30 41 H 1.424168 -1.852296 4.874239 0
M  V30 42 H -0.987098 -1.512808 5.495970 0
M  V30 43 H -2.503674 -0.260968 3.968765 0
M  V30 44 H -1.557428 0.607661 1.873718 0
M  V30 45 H 0.746144 -2.378977 0.328188 0
M  V30 46 H -0.805038 -4.184269 0.014652 0
M  V30 47 H -4.096001 -3.234640 0.744748 0
M  V30 48 H -5.236629 -4.313163 -0.217691 0
M  V30 49 H -4.126509 -6.129808 0.765279 0
M  V30 50 H -2.688361 -5.099598 1.292450 0
M  V30 51 H -3.439050 -6.111235 -1.528288 0
M  V30 52 H -1.772685 -5.684137 -0.973321 0
M  V30 END ATOM
M  V30 BEGIN BOND
M  V30 1 1 1 2
M  V30 2 1 2 3
M  V30 3 2 3 4
M  V30 4 1 4 5
M  V30 5 2 5 6
M  V30 6 1 6 7
M  V30 7 1 7 8
M  V30 8 2 8 9
M  V30 9 1 9 10
M  V30 10 2 10 11
M  V30 11 1 11 12
M  V30 12 2 12 13
M  V30 13 1 12 14
M  V30 14 1 14 15
M  V30 15 1 11 16
M  V30 16 2 16 17
M  V30 17 1 17 18
M  V30 18 1 18 19
M  V30 19 1 19 20
M  V30 20 2 20 21
M  V30 21 1 21 22
M  V30 22 2 22 23
M  V30 23 1 23 24
M  V30 24 2 24 25
M  V30 25 1 6 26
M  V30 26 2 26 27
M  V30 27 1 2 28
M  V30 28 1 28 29
M  V30 29 1 29 30
M  V30 30 1 30 2
M  V30 31 1 27 3
M  V30 32 2 19 7
M  V30 33 1 25 20
M  V30 34 1 18 9
M  V30 35 1 1 31
M  V30 36 1 1 32
M  V30 37 1 4 33
M  V30 38 1 5 34
M  V30 39 1 10 35
M  V30 40 1 14 36
M  V30 41 1 15 37
M  V30 42 1 16 38
M  V30 43 1 17 39
M  V30 44 1 21 40
M  V30 45 1 22 41
M  V30 46 1 23 42
M  V30 47 1 24 43
M  V30 48 1 25 44
M  V30 49 1 26 45
M  V30 50 1 27 46
M  V30 51 1 28 47
M  V30 52 1 28 48
M  V30 53 1 29 49
M  V30 54 1 29 50
M  V30 55 1 30 51
M  V30 56 1 30 52
M  V30 END BOND
M  V30 END CTAB
M  END
>  <Dataset>  (395) 
ChEMBL_Kinases

>  <Ligand_Instance>  (395) 
nan

>  <PDB_ID>  (395) 
nan

>  <Standardized_SMILES>  (395) 
NC1(c2ccc(-c3nc4cc(C(=O)NO)ccn4c3-c3ccccc3)cc2)CCC1

>  <Name>  (395) 
nan

>  <Pocket>  (395) 
nan

>  <ATP_Site>  (395) 
nan

>  <Peripheral>  (395) 
nan

>  <Num_H_Atoms_ProtBoundConf>  (395) 
nan

>  <Num_Resolved_Atoms>  (395) 
nan

>  <Num_Not_Resolved_Atoms>  (395) 
nan

$$$$
CHEMBL3703120
     RDKit          3D

  0  0  0  0  0  0  0  0  0  0999 V3000
M  V30 BEGIN CTAB
M  V30 COUNTS 52 56 0 0 0
M  V30 BEGIN ATOM
M  V30 1 C 1.021589 -4.416469 6.539937 0
M  V30 2 C 2.131914 -3.420372 6.334113 0
M  V30 3 O 3.110858 -3.212894 7.080505 0
M  V30 4 C 2.043163 -2.611322 5.121110 0
M  V30 5 C 2.983435 -1.657476 4.790297 0
M  V30 6 C 2.950879 -0.866848 3.660589 0
M  V30 7 N 1.900409 -1.057445 2.818007 0
M  V30 8 C 1.634925 -0.417518 1.650806 0
M  V30 9 C 2.312728 0.618393 0.932107 0
M  V30 10 C 2.902906 0.553547 -0.314363 0
M  V30 11 C 3.532800 1.619375 -0.918119 0
M  V30 12 C 3.585429 2.840483 -0.243924 0
M  V30 13 C 3.011337 2.991132 1.024867 0
M  V30 14 C 2.406095 1.863716 1.539026 0
M  V30 15 C 0.463477 -0.956595 1.162988 0
M  V30 16 C -0.394485 -0.777250 -0.000979 0
M  V30 17 C -1.651441 -0.228607 0.282814 0
M  V30 18 C -2.583304 0.000227 -0.705552 0
M  V30 19 C -2.314503 -0.302276 -2.013718 0
M  V30 20 C -3.165451 -0.134808 -3.209435 0
M  V30 21 N -2.422785 0.425739 -4.300426 0
M  V30 22 C -4.527435 0.477494 -2.980280 0
M  V30 23 C -5.058640 -0.930074 -2.735215 0
M  V30 24 C -3.867190 -1.441364 -3.518206 0
M  V30 25 C -1.077567 -0.843213 -2.299655 0
M  V30 26 C -0.143565 -1.074928 -1.324926 0
M  V30 27 N 0.055025 -1.896635 2.035979 0
M  V30 28 C 0.933581 -1.962475 3.053444 0
M  V30 29 C 1.014825 -2.727056 4.198238 0
M  V30 30 H 1.231468 -5.119232 7.362217 0
M  V30 31 H 0.071462 -3.856318 6.761775 0
M  V30 32 H 0.826589 -4.983093 5.611035 0
M  V30 33 H 3.814180 -1.540892 5.503910 0
M  V30 34 H 3.713644 -0.129942 3.443356 0
M  V30 35 H 2.843738 -0.412300 -0.807491 0
M  V30 36 H 3.976619 1.503105 -1.898916 0
M  V30 37 H 4.071972 3.702737 -0.685793 0
M  V30 38 H 3.034816 3.922381 1.572824 0
M  V30 39 H 1.962714 2.008810 2.537094 0
M  V30 40 H -2.017516 0.066636 1.278645 0
M  V30 41 H -3.567810 0.420404 -0.542346 0
M  V30 42 H -2.169125 -0.345229 -4.971306 0
M  V30 43 H -1.481500 0.792503 -3.965869 0
M  V30 44 H -4.907281 0.865063 -3.950569 0
M  V30 45 H -4.613292 1.156278 -2.129348 0
M  V30 46 H -4.983925 -1.202766 -1.641840 0
M  V30 47 H -6.051667 -1.140686 -3.157063 0
M  V30 48 H -3.440243 -2.328164 -3.001774 0
M  V30 49 H -4.066831 -1.648500 -4.576916 0
M  V30 50 H -0.734286 -1.131079 -3.302581 0
M  V30 51 H 0.832004 -1.495332 -1.495558 0
M  V30 52 H 0.229601 -3.455406 4.380170 0
M  V30 END ATOM
M  V30 BEGIN BOND
M  V30 1 1 1 2
M  V30 2 2 2 3
M  V30 3 1 2 4
M  V30 4 1 4 5
M  V30 5 2 5 6
M  V30 6 1 6 7
M  V30 7 1 7 8
M  V30 8 1 8 9
M  V30 9 2 9 10
M  V30 10 1 10 11
M  V30 11 2 11 12
M  V30 12 1 12 13
M  V30 13 2 13 14
M  V30 14 2 8 15
M  V30 15 1 15 16
M  V30 16 2 16 17
M  V30 17 1 17 18
M  V30 18 2 18 19
M  V30 19 1 19 20
M  V30 20 1 20 21
M  V30 21 1 20 22
M  V30 22 1 22 23
M  V30 23 1 23 24
M  V30 24 1 19 25
M  V30 25 2 25 26
M  V30 26 1 15 27
M  V30 27 2 27 28
M  V30 28 1 28 29
M  V30 29 2 29 4
M  V30 30 1 28 7
M  V30 31 1 14 9
M  V30 32 1 26 16
M  V30 33 1 24 20
M  V30 34 1 1 30
M  V30 35 1 1 31
M  V30 36 1 1 32
M  V30 37 1 5 33
M  V30 38 1 6 34
M  V30 39 1 10 35
M  V30 40 1 11 36
M  V30 41 1 12 37
M  V30 42 1 13 38
M  V30 43 1 14 39
M  V30 44 1 17 40
M  V30 45 1 18 41
M  V30 46 1 21 42
M  V30 47 1 21 43
M  V30 48 1 22 44
M  V30 49 1 22 45
M  V30 50 1 23 46
M  V30 51 1 23 47
M  V30 52 1 24 48
M  V30 53 1 24 49
M  V30 54 1 25 50
M  V30 55 1 26 51
M  V30 56 1 29 52
M  V30 END BOND
M  V30 END CTAB
M  END
>  <Dataset>  (396) 
ChEMBL_Kinases

>  <Ligand_Instance>  (396) 
nan

>  <PDB_ID>  (396) 
nan

>  <Standardized_SMILES>  (396) 
CC(=O)c1ccn2c(-c3ccccc3)c(-c3ccc(C4(N)CCC4)cc3)nc2c1

>  <Name>  (396) 
nan

>  <Pocket>  (396) 
nan

>  <ATP_Site>  (396) 
nan

>  <Peripheral>  (396) 
nan

>  <Num_H_Atoms_ProtBoundConf>  (396) 
nan

>  <Num_Resolved_Atoms>  (396) 
nan

>  <Num_Not_Resolved_Atoms>  (396) 
nan

$$$$
CHEMBL3703121
     RDKit          3D

  0  0  0  0  0  0  0  0  0  0999 V3000
M  V30 BEGIN CTAB
M  V30 COUNTS 54 59 0 0 0
M  V30 BEGIN ATOM
M  V30 1 N -1.885549 -6.533496 0.510102 0
M  V30 2 C -1.618625 -5.680179 -0.616431 0
M  V30 3 C -0.847228 -4.466853 -0.296569 0
M  V30 4 C 0.181186 -3.953729 -1.032520 0
M  V30 5 C 0.811008 -2.789396 -0.589786 0
M  V30 6 C 0.403467 -2.151708 0.585950 0
M  V30 7 C 1.207173 -0.970611 0.830599 0
M  V30 8 N 2.545420 -0.853014 1.032002 0
M  V30 9 C 2.826995 0.455121 1.215829 0
M  V30 10 C 3.998061 1.163461 1.458530 0
M  V30 11 C 3.996320 2.534574 1.609091 0
M  V30 12 C 2.795865 3.234562 1.516933 0
M  V30 13 C 2.677179 4.686226 1.658956 0
M  V30 14 C 3.783236 5.472984 1.898624 0
M  V30 15 N 3.335038 6.760172 1.975998 0
M  V30 16 C 2.010089 6.694533 1.784250 0
M  V30 17 N 1.561246 5.432834 1.584538 0
M  V30 18 C 1.625494 2.514245 1.273194 0
M  V30 19 N 1.671647 1.161426 1.130964 0
M  V30 20 C 0.662759 0.299827 0.893933 0
M  V30 21 C -0.734959 0.664017 0.738430 0
M  V30 22 C -1.211366 1.274948 1.901261 0
M  V30 23 C -2.533024 1.715779 1.997342 0
M  V30 24 C -3.342319 1.523509 0.902531 0
M  V30 25 C -2.891226 0.925076 -0.248396 0
M  V30 26 C -1.585347 0.493708 -0.332789 0
M  V30 27 C -0.637910 -2.690448 1.311123 0
M  V30 28 C -1.265565 -3.840969 0.880110 0
M  V30 29 C -1.277320 -6.444864 -1.839433 0
M  V30 30 C -2.773024 -6.563561 -2.145771 0
M  V30 31 C -2.942793 -5.303973 -1.292705 0
M  V30 32 H -2.808846 -6.347390 0.964467 0
M  V30 33 H -1.090590 -6.602304 1.178139 0
M  V30 34 H 0.464150 -4.470733 -1.926938 0
M  V30 35 H 1.618960 -2.473414 -1.260152 0
M  V30 36 H 4.917496 0.606060 1.526324 0
M  V30 37 H 4.884186 3.108497 1.797147 0
M  V30 38 H 4.829091 5.157559 2.010209 0
M  V30 39 H 1.364321 7.575725 1.790145 0
M  V30 40 H 0.591454 5.107017 1.413769 0
M  V30 41 H 0.692174 3.047119 1.200837 0
M  V30 42 H -0.646285 1.471066 2.819741 0
M  V30 43 H -2.934110 2.191338 2.881302 0
M  V30 44 H -4.371971 1.861217 0.961726 0
M  V30 45 H -3.503634 0.757493 -1.131885 0
M  V30 46 H -1.096837 0.010128 -1.168137 0
M  V30 47 H -0.862065 -2.112165 2.196563 0
M  V30 48 H -2.085896 -4.207096 1.512242 0
M  V30 49 H -0.873444 -7.462459 -1.596510 0
M  V30 50 H -0.787591 -5.938727 -2.678322 0
M  V30 51 H -3.261887 -7.413952 -1.619236 0
M  V30 52 H -3.025297 -6.451761 -3.208869 0
M  V30 53 H -3.804511 -5.305629 -0.613661 0
M  V30 54 H -2.863837 -4.395243 -1.936095 0
M  V30 END ATOM
M  V30 BEGIN BOND
M  V30 1 1 1 2
M  V30 2 1 2 3
M  V30 3 2 3 4
M  V30 4 1 4 5
M  V30 5 2 5 6
M  V30 6 1 6 7
M  V30 7 1 7 8
M  V30 8 2 8 9
M  V30 9 1 9 10
M  V30 10 2 10 11
M  V30 11 1 11 12
M  V30 12 1 12 13
M  V30 13 2 13 14
M  V30 14 1 14 15
M  V30 15 2 15 16
M  V30 16 1 16 17
M  V30 17 2 12 18
M  V30 18 1 18 19
M  V30 19 1 19 20
M  V30 20 1 20 21
M  V30 21 2 21 22
M  V30 22 1 22 23
M  V30 23 2 23 24
M  V30 24 1 24 25
M  V30 25 2 25 26
M  V30 26 1 6 27
M  V30 27 2 27 28
M  V30 28 1 2 29
M  V30 29 1 29 30
M  V30 30 1 30 31
M  V30 31 1 31 2
M  V30 32 1 28 3
M  V30 33 2 20 7
M  V30 34 1 26 21
M  V30 35 1 19 9
M  V30 36 1 17 13
M  V30 37 1 1 32
M  V30 38 1 1 33
M  V30 39 1 4 34
M  V30 40 1 5 35
M  V30 41 1 10 36
M  V30 42 1 11 37
M  V30 43 1 14 38
M  V30 44 1 16 39
M  V30 45 1 17 40
M  V30 46 1 18 41
M  V30 47 1 22 42
M  V30 48 1 23 43
M  V30 49 1 24 44
M  V30 50 1 25 45
M  V30 51 1 26 46
M  V30 52 1 27 47
M  V30 53 1 28 48
M  V30 54 1 29 49
M  V30 55 1 29 50
M  V30 56 1 30 51
M  V30 57 1 30 52
M  V30 58 1 31 53
M  V30 59 1 31 54
M  V30 END BOND
M  V30 END CTAB
M  END
>  <Dataset>  (397) 
ChEMBL_Kinases

>  <Ligand_Instance>  (397) 
nan

>  <PDB_ID>  (397) 
nan

>  <Standardized_SMILES>  (397) 
NC1(c2ccc(-c3nc4ccc(-c5cnc[nH]5)cn4c3-c3ccccc3)cc2)CCC1

>  <Name>  (397) 
nan

>  <Pocket>  (397) 
nan

>  <ATP_Site>  (397) 
nan

>  <Peripheral>  (397) 
nan

>  <Num_H_Atoms_ProtBoundConf>  (397) 
nan

>  <Num_Resolved_Atoms>  (397) 
nan

>  <Num_Not_Resolved_Atoms>  (397) 
nan

$$$$
CHEMBL4460696
     RDKit          3D

  0  0  0  0  0  0  0  0  0  0999 V3000
M  V30 BEGIN CTAB
M  V30 COUNTS 56 58 0 0 0
M  V30 BEGIN ATOM
M  V30 1 C 1.811741 -4.795432 5.258816 0
M  V30 2 O 1.626776 -4.211825 3.960162 0
M  V30 3 C 2.600442 -3.380622 3.421094 0
M  V30 4 C 3.806617 -3.007755 3.995212 0
M  V30 5 C 4.658192 -2.165030 3.305457 0
M  V30 6 C 4.331222 -1.679237 2.040919 0
M  V30 7 O 5.338167 -0.858670 1.557410 0
M  V30 8 C 5.261375 -0.224008 0.286257 0
M  V30 9 C 4.073423 0.692304 0.218726 0
M  V30 10 O 3.129602 1.061791 0.957299 0
M  V30 11 N 3.909488 1.378632 -1.029157 0
M  V30 12 C 2.744098 2.238062 -1.011117 0
M  V30 13 C 2.731456 3.561338 -0.620756 0
M  V30 14 C 1.542883 4.262473 -0.652735 0
M  V30 15 C 0.356080 3.689617 -1.062727 0
M  V30 16 C 0.381625 2.362488 -1.451656 0
M  V30 17 N -0.783594 1.632880 -1.903122 0
M  V30 18 C -1.415098 1.018226 -0.763690 0
M  V30 19 O -0.901867 1.192631 0.370753 0
M  V30 20 C -2.611484 0.211287 -0.875711 0
M  V30 21 C -3.122340 -0.327123 0.287316 0
M  V30 22 C -4.258783 -1.120114 0.331732 0
M  V30 23 C -4.903734 -1.376184 -0.860971 0
M  V30 24 N -6.076258 -2.191215 -0.844700 0
M  V30 25 C -6.515631 -2.699217 0.438483 0
M  V30 26 C -6.786037 -2.489261 -2.078570 0
M  V30 27 C -4.386783 -0.833921 -2.021144 0
M  V30 28 C -3.255059 -0.043687 -2.069223 0
M  V30 29 C 1.557048 1.626240 -1.432769 0
M  V30 30 C 3.128953 -2.056818 1.479566 0
M  V30 31 C 2.280297 -2.897534 2.168561 0
M  V30 32 F 1.141083 -3.162475 1.460962 0
M  V30 33 H 2.697486 -5.442087 5.293188 0
M  V30 34 H 0.885477 -5.239797 5.621248 0
M  V30 35 H 2.025315 -3.919688 5.939996 0
M  V30 36 H 3.988502 -3.424728 4.976026 0
M  V30 37 H 5.555846 -1.958768 3.867156 0
M  V30 38 H 6.184479 0.283853 0.015179 0
M  V30 39 H 5.100545 -1.035171 -0.456841 0
M  V30 40 H 4.521064 1.316166 -1.897966 0
M  V30 41 H 3.674281 3.976923 -0.307235 0
M  V30 42 H 1.542116 5.310288 -0.341658 0
M  V30 43 H -0.589284 4.213292 -1.098410 0
M  V30 44 H -1.176837 1.510623 -2.839543 0
M  V30 45 H -2.655967 -0.159045 1.256196 0
M  V30 46 H -4.627245 -1.525401 1.277932 0
M  V30 47 H -6.676524 -1.880655 1.169127 0
M  V30 48 H -7.365008 -3.384684 0.339396 0
M  V30 49 H -5.648387 -3.302481 0.834328 0
M  V30 50 H -6.080971 -2.811271 -2.871721 0
M  V30 51 H -7.400902 -1.658883 -2.452147 0
M  V30 52 H -7.480515 -3.341212 -1.895959 0
M  V30 53 H -4.923826 -1.058742 -2.939254 0
M  V30 54 H -2.862418 0.374275 -2.986417 0
M  V30 55 H 1.564269 0.572327 -1.744099 0
M  V30 56 H 2.978109 -1.628842 0.503646 0
M  V30 END ATOM
M  V30 BEGIN BOND
M  V30 1 1 1 2
M  V30 2 1 2 3
M  V30 3 2 3 4
M  V30 4 1 4 5
M  V30 5 2 5 6
M  V30 6 1 6 7
M  V30 7 1 7 8
M  V30 8 1 8 9
M  V30 9 2 9 10
M  V30 10 1 9 11
M  V30 11 1 11 12
M  V30 12 2 12 13
M  V30 13 1 13 14
M  V30 14 2 14 15
M  V30 15 1 15 16
M  V30 16 1 16 17
M  V30 17 1 17 18
M  V30 18 2 18 19
M  V30 19 1 18 20
M  V30 20 2 20 21
M  V30 21 1 21 22
M  V30 22 2 22 23
M  V30 23 1 23 24
M  V30 24 1 24 25
M  V30 25 1 24 26
M  V30 26 1 23 27
M  V30 27 2 27 28
M  V30 28 2 16 29
M  V30 29 1 6 30
M  V30 30 2 30 31
M  V30 31 1 31 32
M  V30 32 1 31 3
M  V30 33 1 29 12
M  V30 34 1 28 20
M  V30 35 1 1 33
M  V30 36 1 1 34
M  V30 37 1 1 35
M  V30 38 1 4 36
M  V30 39 1 5 37
M  V30 40 1 8 38
M  V30 41 1 8 39
M  V30 42 1 11 40
M  V30 43 1 13 41
M  V30 44 1 14 42
M  V30 45 1 15 43
M  V30 46 1 17 44
M  V30 47 1 21 45
M  V30 48 1 22 46
M  V30 49 1 25 47
M  V30 50 1 25 48
M  V30 51 1 25 49
M  V30 52 1 26 50
M  V30 53 1 26 51
M  V30 54 1 26 52
M  V30 55 1 27 53
M  V30 56 1 28 54
M  V30 57 1 29 55
M  V30 58 1 30 56
M  V30 END BOND
M  V30 END CTAB
M  END
>  <Dataset>  (398) 
ChEMBL_Kinases

>  <Ligand_Instance>  (398) 
nan

>  <PDB_ID>  (398) 
nan

>  <Standardized_SMILES>  (398) 
COc1ccc(OCC(=O)Nc2cccc(NC(=O)c3ccc(N(C)C)cc3)c2)cc1F

>  <Name>  (398) 
nan

>  <Pocket>  (398) 
nan

>  <ATP_Site>  (398) 
nan

>  <Peripheral>  (398) 
nan

>  <Num_H_Atoms_ProtBoundConf>  (398) 
nan

>  <Num_Resolved_Atoms>  (398) 
nan

>  <Num_Not_Resolved_Atoms>  (398) 
nan

$$$$
CHEMBL3703122
     RDKit          3D

  0  0  0  0  0  0  0  0  0  0999 V3000
M  V30 BEGIN CTAB
M  V30 COUNTS 54 59 0 0 0
M  V30 BEGIN ATOM
M  V30 1 N -2.005232 -6.613080 0.646911 0
M  V30 2 C -1.737661 -5.799875 -0.506941 0
M  V30 3 C -0.981841 -4.568249 -0.205638 0
M  V30 4 C 0.073093 -4.048530 -0.918311 0
M  V30 5 C 0.700048 -2.871649 -0.522381 0
M  V30 6 C 0.276285 -2.176998 0.616860 0
M  V30 7 C 1.056563 -0.992778 0.843353 0
M  V30 8 N 2.397885 -0.959451 1.071841 0
M  V30 9 C 2.771880 0.333059 1.237295 0
M  V30 10 C 4.011872 0.929201 1.493138 0
M  V30 11 C 4.071871 2.304432 1.612090 0
M  V30 12 C 2.948926 3.098132 1.485993 0
M  V30 13 C 2.976879 4.554616 1.605579 0
M  V30 14 N 4.065709 5.313214 1.846865 0
M  V30 15 C 3.719325 6.614674 1.891568 0
M  V30 16 C 2.358468 6.672121 1.669140 0
M  V30 17 N 1.922697 5.403239 1.496570 0
M  V30 18 C 1.734676 2.481146 1.232855 0
M  V30 19 N 1.688997 1.141009 1.119082 0
M  V30 20 C 0.646093 0.324388 0.878767 0
M  V30 21 C -0.725212 0.738556 0.681649 0
M  V30 22 C -1.217686 1.404379 1.806082 0
M  V30 23 C -2.525358 1.891686 1.832165 0
M  V30 24 C -3.352667 1.722356 0.745104 0
M  V30 25 C -2.843873 1.062503 -0.351778 0
M  V30 26 C -1.560648 0.573226 -0.403211 0
M  V30 27 C -0.779387 -2.705855 1.321743 0
M  V30 28 C -1.402540 -3.873712 0.929963 0
M  V30 29 C -1.358030 -6.593725 -1.690576 0
M  V30 30 C -2.810615 -6.635592 -2.120708 0
M  V30 31 C -3.038387 -5.434152 -1.229668 0
M  V30 32 H -2.992024 -6.560698 0.980151 0
M  V30 33 H -1.305221 -6.536684 1.409741 0
M  V30 34 H 0.368166 -4.604788 -1.779883 0
M  V30 35 H 1.527022 -2.577311 -1.187975 0
M  V30 36 H 4.904309 0.326386 1.595336 0
M  V30 37 H 4.995569 2.834845 1.809470 0
M  V30 38 H 4.515766 7.343717 2.081672 0
M  V30 39 H 1.858509 7.608184 1.659408 0
M  V30 40 H 0.927354 5.157267 1.311214 0
M  V30 41 H 0.833386 3.079710 1.128457 0
M  V30 42 H -0.676840 1.611924 2.741111 0
M  V30 43 H -2.943937 2.413814 2.686208 0
M  V30 44 H -4.363412 2.100130 0.768171 0
M  V30 45 H -3.437007 0.897272 -1.232252 0
M  V30 46 H -1.086825 0.051021 -1.211601 0
M  V30 47 H -1.042058 -2.108968 2.185074 0
M  V30 48 H -2.217967 -4.177055 1.573827 0
M  V30 49 H -1.044591 -7.638291 -1.421797 0
M  V30 50 H -0.762646 -6.143087 -2.495006 0
M  V30 51 H -3.388472 -7.501381 -1.726780 0
M  V30 52 H -2.989230 -6.441521 -3.191819 0
M  V30 53 H -3.917818 -5.468985 -0.582824 0
M  V30 54 H -2.953202 -4.477244 -1.806603 0
M  V30 END ATOM
M  V30 BEGIN BOND
M  V30 1 1 1 2
M  V30 2 1 2 3
M  V30 3 2 3 4
M  V30 4 1 4 5
M  V30 5 2 5 6
M  V30 6 1 6 7
M  V30 7 1 7 8
M  V30 8 2 8 9
M  V30 9 1 9 10
M  V30 10 2 10 11
M  V30 11 1 11 12
M  V30 12 1 12 13
M  V30 13 2 13 14
M  V30 14 1 14 15
M  V30 15 2 15 16
M  V30 16 1 16 17
M  V30 17 2 12 18
M  V30 18 1 18 19
M  V30 19 1 19 20
M  V30 20 1 20 21
M  V30 21 2 21 22
M  V30 22 1 22 23
M  V30 23 2 23 24
M  V30 24 1 24 25
M  V30 25 2 25 26
M  V30 26 1 6 27
M  V30 27 2 27 28
M  V30 28 1 2 29
M  V30 29 1 29 30
M  V30 30 1 30 31
M  V30 31 1 31 2
M  V30 32 1 28 3
M  V30 33 2 20 7
M  V30 34 1 26 21
M  V30 35 1 19 9
M  V30 36 1 17 13
M  V30 37 1 1 32
M  V30 38 1 1 33
M  V30 39 1 4 34
M  V30 40 1 5 35
M  V30 41 1 10 36
M  V30 42 1 11 37
M  V30 43 1 15 38
M  V30 44 1 16 39
M  V30 45 1 17 40
M  V30 46 1 18 41
M  V30 47 1 22 42
M  V30 48 1 23 43
M  V30 49 1 24 44
M  V30 50 1 25 45
M  V30 51 1 26 46
M  V30 52 1 27 47
M  V30 53 1 28 48
M  V30 54 1 29 49
M  V30 55 1 29 50
M  V30 56 1 30 51
M  V30 57 1 30 52
M  V30 58 1 31 53
M  V30 59 1 31 54
M  V30 END BOND
M  V30 END CTAB
M  END
>  <Dataset>  (399) 
ChEMBL_Kinases

>  <Ligand_Instance>  (399) 
nan

>  <PDB_ID>  (399) 
nan

>  <Standardized_SMILES>  (399) 
NC1(c2ccc(-c3nc4ccc(-c5ncc[nH]5)cn4c3-c3ccccc3)cc2)CCC1

>  <Name>  (399) 
nan

>  <Pocket>  (399) 
nan

>  <ATP_Site>  (399) 
nan

>  <Peripheral>  (399) 
nan

>  <Num_H_Atoms_ProtBoundConf>  (399) 
nan

>  <Num_Resolved_Atoms>  (399) 
nan

>  <Num_Not_Resolved_Atoms>  (399) 
nan

$$$$
CHEMBL4460515
     RDKit          3D

  0  0  0  0  0  0  0  0  0  0999 V3000
M  V30 BEGIN CTAB
M  V30 COUNTS 39 42 0 0 0
M  V30 BEGIN ATOM
M  V30 1 C -1.280267 -4.283988 4.197634 0
M  V30 2 C -0.597670 -3.042987 3.726211 0
M  V30 3 N 0.609279 -2.656884 4.175945 0
M  V30 4 C 0.944563 -1.503865 3.558333 0
M  V30 5 C 2.126596 -0.657409 3.666021 0
M  V30 6 C 3.313752 -1.303657 3.306159 0
M  V30 7 C 4.346224 -0.371822 3.460418 0
M  V30 8 C 3.707230 0.784879 3.907155 0
M  V30 9 O 2.431935 0.559993 4.006238 0
M  V30 10 C -0.092204 -1.173113 2.701832 0
M  V30 11 C -0.210299 -0.004336 1.801308 0
M  V30 12 C -0.238514 1.259503 2.379947 0
M  V30 13 C -0.351029 2.293372 1.464245 0
M  V30 14 N -0.424866 2.073176 0.139965 0
M  V30 15 C -0.396234 0.843255 -0.404877 0
M  V30 16 N -0.478630 0.670040 -1.822701 0
M  V30 17 C -1.639271 0.506382 -2.620391 0
M  V30 18 O -2.712057 0.520600 -1.964449 0
M  V30 19 C -1.546960 0.338642 -4.079730 0
M  V30 20 C -0.499675 1.023118 -4.871691 0
M  V30 21 C -0.405251 -0.464427 -4.687506 0
M  V30 22 C -0.285542 -0.242523 0.440976 0
M  V30 23 N -1.024498 -2.138289 2.828058 0
M  V30 24 H -2.379592 -4.083252 4.118513 0
M  V30 25 H -0.978132 -4.527406 5.229702 0
M  V30 26 H -1.069066 -5.123597 3.493014 0
M  V30 27 H 3.606365 -2.290969 2.958545 0
M  V30 28 H 5.426924 -0.471375 3.285389 0
M  V30 29 H 4.202428 1.720810 4.134125 0
M  V30 30 H -0.176680 1.391336 3.450152 0
M  V30 31 H -0.376683 3.300422 1.874116 0
M  V30 32 H 0.485341 0.679804 -2.221980 0
M  V30 33 H -2.509347 0.220591 -4.588322 0
M  V30 34 H -0.717411 1.314011 -5.919974 0
M  V30 35 H 0.253474 1.646405 -4.371764 0
M  V30 36 H 0.330229 -0.807313 -3.904969 0
M  V30 37 H -0.612849 -1.165206 -5.503826 0
M  V30 38 H -0.258162 -1.246909 0.059310 0
M  V30 39 H -1.936485 -2.227814 2.344982 0
M  V30 END ATOM
M  V30 BEGIN BOND
M  V30 1 1 1 2
M  V30 2 2 2 3
M  V30 3 1 3 4
M  V30 4 1 4 5
M  V30 5 2 5 6
M  V30 6 1 6 7
M  V30 7 2 7 8
M  V30 8 1 8 9
M  V30 9 2 4 10
M  V30 10 1 10 11
M  V30 11 2 11 12
M  V30 12 1 12 13
M  V30 13 2 13 14
M  V30 14 1 14 15
M  V30 15 1 15 16
M  V30 16 1 16 17
M  V30 17 2 17 18
M  V30 18 1 17 19
M  V30 19 1 19 20
M  V30 20 1 20 21
M  V30 21 2 15 22
M  V30 22 1 10 23
M  V30 23 1 23 2
M  V30 24 1 9 5
M  V30 25 1 22 11
M  V30 26 1 21 19
M  V30 27 1 1 24
M  V30 28 1 1 25
M  V30 29 1 1 26
M  V30 30 1 6 27
M  V30 31 1 7 28
M  V30 32 1 8 29
M  V30 33 1 12 30
M  V30 34 1 13 31
M  V30 35 1 16 32
M  V30 36 1 19 33
M  V30 37 1 20 34
M  V30 38 1 20 35
M  V30 39 1 21 36
M  V30 40 1 21 37
M  V30 41 1 22 38
M  V30 42 1 23 39
M  V30 END BOND
M  V30 END CTAB
M  END
>  <Dataset>  (400) 
ChEMBL_Kinases

>  <Ligand_Instance>  (400) 
nan

>  <PDB_ID>  (400) 
nan

>  <Standardized_SMILES>  (400) 
Cc1nc(-c2ccco2)c(-c2ccnc(NC(=O)C3CC3)c2)[nH]1

>  <Name>  (400) 
nan

>  <Pocket>  (400) 
nan

>  <ATP_Site>  (400) 
nan

>  <Peripheral>  (400) 
nan

>  <Num_H_Atoms_ProtBoundConf>  (400) 
nan

>  <Num_Resolved_Atoms>  (400) 
nan

>  <Num_Not_Resolved_Atoms>  (400) 
nan

$$$$
CHEMBL3703124
     RDKit          3D

  0  0  0  0  0  0  0  0  0  0999 V3000
M  V30 BEGIN CTAB
M  V30 COUNTS 54 59 0 0 0
M  V30 BEGIN ATOM
M  V30 1 N -2.927514 -5.560605 0.118821 0
M  V30 2 C -1.789335 -5.447416 -0.773274 0
M  V30 3 C -0.979912 -4.256795 -0.542088 0
M  V30 4 C -0.328556 -3.500785 -1.499903 0
M  V30 5 C 0.388929 -2.389780 -1.102612 0
M  V30 6 C 0.470772 -2.014587 0.233186 0
M  V30 7 C 1.280676 -0.793192 0.375487 0
M  V30 8 N 2.558047 -0.464805 0.142209 0
M  V30 9 C 2.743687 0.851042 0.458665 0
M  V30 10 C 3.881170 1.629538 0.382195 0
M  V30 11 C 3.853779 2.957739 0.752006 0
M  V30 12 C 2.645832 3.481196 1.201695 0
M  V30 13 C 2.598360 4.881525 1.596320 0
M  V30 14 C 3.588769 5.676459 2.174153 0
M  V30 15 N 3.053237 6.882539 2.331834 0
M  V30 16 N 1.804785 6.917842 1.901384 0
M  V30 17 C 1.470815 5.694391 1.432285 0
M  V30 18 C 1.540420 2.656367 1.257974 0
M  V30 19 N 1.553491 1.355725 0.899763 0
M  V30 20 C 0.650036 0.362132 0.855534 0
M  V30 21 C -0.746495 0.512330 1.261568 0
M  V30 22 C -0.977865 0.907733 2.556185 0
M  V30 23 C -2.325200 1.022460 2.887700 0
M  V30 24 C -3.349326 0.764246 2.002949 0
M  V30 25 C -3.012462 0.372650 0.724519 0
M  V30 26 C -1.707622 0.233769 0.310852 0
M  V30 27 C -0.174024 -2.762415 1.188423 0
M  V30 28 C -0.887428 -3.870690 0.778116 0
M  V30 29 C -1.057700 -6.765926 -0.792633 0
M  V30 30 C -2.021478 -7.204825 -1.883753 0
M  V30 31 C -2.235079 -5.733530 -2.190239 0
M  V30 32 H -3.555581 -4.752768 0.103372 0
M  V30 33 H -2.616324 -5.895089 1.046638 0
M  V30 34 H -0.415936 -3.828217 -2.529017 0
M  V30 35 H 0.853275 -1.885568 -1.945780 0
M  V30 36 H 4.801487 1.205437 0.033145 0
M  V30 37 H 4.703800 3.610774 0.715208 0
M  V30 38 H 4.572647 5.288338 2.411180 0
M  V30 39 H 1.094208 7.683387 1.871138 0
M  V30 40 H 0.527675 5.373499 1.005536 0
M  V30 41 H 0.591744 3.063859 1.610634 0
M  V30 42 H -0.175069 1.111457 3.250126 0
M  V30 43 H -2.542333 1.336541 3.919495 0
M  V30 44 H -4.391887 0.867081 2.311721 0
M  V30 45 H -3.784987 0.163693 0.015151 0
M  V30 46 H -1.475066 -0.070733 -0.682222 0
M  V30 47 H -0.039998 -2.376405 2.187593 0
M  V30 48 H -1.353240 -4.376756 1.640575 0
M  V30 49 H -1.129600 -7.362382 0.140428 0
M  V30 50 H -0.027982 -6.727439 -1.216129 0
M  V30 51 H -2.916612 -7.640190 -1.431165 0
M  V30 52 H -1.550894 -7.780134 -2.701276 0
M  V30 53 H -3.298720 -5.482949 -2.391642 0
M  V30 54 H -1.542456 -5.443216 -2.995330 0
M  V30 END ATOM
M  V30 BEGIN BOND
M  V30 1 1 1 2
M  V30 2 1 2 3
M  V30 3 2 3 4
M  V30 4 1 4 5
M  V30 5 2 5 6
M  V30 6 1 6 7
M  V30 7 1 7 8
M  V30 8 2 8 9
M  V30 9 1 9 10
M  V30 10 2 10 11
M  V30 11 1 11 12
M  V30 12 1 12 13
M  V30 13 1 13 14
M  V30 14 2 14 15
M  V30 15 1 15 16
M  V30 16 1 16 17
M  V30 17 2 12 18
M  V30 18 1 18 19
M  V30 19 1 19 20
M  V30 20 1 20 21
M  V30 21 2 21 22
M  V30 22 1 22 23
M  V30 23 2 23 24
M  V30 24 1 24 25
M  V30 25 2 25 26
M  V30 26 1 6 27
M  V30 27 2 27 28
M  V30 28 1 2 29
M  V30 29 1 29 30
M  V30 30 1 30 31
M  V30 31 1 31 2
M  V30 32 1 28 3
M  V30 33 2 20 7
M  V30 34 1 26 21
M  V30 35 1 19 9
M  V30 36 2 17 13
M  V30 37 1 1 32
M  V30 38 1 1 33
M  V30 39 1 4 34
M  V30 40 1 5 35
M  V30 41 1 10 36
M  V30 42 1 11 37
M  V30 43 1 14 38
M  V30 44 1 16 39
M  V30 45 1 17 40
M  V30 46 1 18 41
M  V30 47 1 22 42
M  V30 48 1 23 43
M  V30 49 1 24 44
M  V30 50 1 25 45
M  V30 51 1 26 46
M  V30 52 1 27 47
M  V30 53 1 28 48
M  V30 54 1 29 49
M  V30 55 1 29 50
M  V30 56 1 30 51
M  V30 57 1 30 52
M  V30 58 1 31 53
M  V30 59 1 31 54
M  V30 END BOND
M  V30 END CTAB
M  END
>  <Dataset>  (401) 
ChEMBL_Kinases

>  <Ligand_Instance>  (401) 
nan

>  <PDB_ID>  (401) 
nan

>  <Standardized_SMILES>  (401) 
NC1(c2ccc(-c3nc4ccc(-c5cn[nH]c5)cn4c3-c3ccccc3)cc2)CCC1

>  <Name>  (401) 
nan

>  <Pocket>  (401) 
nan

>  <ATP_Site>  (401) 
nan

>  <Peripheral>  (401) 
nan

>  <Num_H_Atoms_ProtBoundConf>  (401) 
nan

>  <Num_Resolved_Atoms>  (401) 
nan

>  <Num_Not_Resolved_Atoms>  (401) 
nan

$$$$
CHEMBL3703125
     RDKit          3D

  0  0  0  0  0  0  0  0  0  0999 V3000
M  V30 BEGIN CTAB
M  V30 COUNTS 57 62 0 0 0
M  V30 BEGIN ATOM
M  V30 1 C 4.332691 -4.471348 1.729671 0
M  V30 2 N 5.373892 -4.044683 0.833625 0
M  V30 3 C 6.416525 -4.832347 0.504786 0
M  V30 4 N 7.197769 -4.139452 -0.341947 0
M  V30 5 C 6.641692 -2.922090 -0.539588 0
M  V30 6 C 5.495212 -2.855800 0.196220 0
M  V30 7 C 4.570853 -1.723991 0.284865 0
M  V30 8 C 5.064655 -0.435447 0.450534 0
M  V30 9 C 4.151695 0.599285 0.528636 0
M  V30 10 C 2.785764 0.421044 0.451280 0
M  V30 11 N 1.706710 1.225029 0.496362 0
M  V30 12 C 0.578557 0.477416 0.364884 0
M  V30 13 C -0.834824 0.855989 0.348148 0
M  V30 14 C -1.440563 1.471832 1.428465 0
M  V30 15 C -2.794852 1.818266 1.373726 0
M  V30 16 C -3.551951 1.548566 0.232381 0
M  V30 17 C -4.946950 1.994356 0.389815 0
M  V30 18 N -5.622739 1.447015 1.562927 0
M  V30 19 C -5.843356 1.739797 -0.808121 0
M  V30 20 C -6.566396 3.029890 -0.398951 0
M  V30 21 C -5.210120 3.469417 0.169028 0
M  V30 22 C -2.950956 0.935393 -0.844659 0
M  V30 23 C -1.611698 0.599200 -0.775187 0
M  V30 24 C 0.972485 -0.849164 0.232237 0
M  V30 25 C 0.162492 -2.042307 0.063862 0
M  V30 26 C 0.176764 -2.923628 -1.007066 0
M  V30 27 C -0.668131 -4.022819 -1.010245 0
M  V30 28 C -1.500589 -4.203919 0.060021 0
M  V30 29 C -1.573871 -3.372210 1.163037 0
M  V30 30 C -0.712319 -2.282551 1.129152 0
M  V30 31 N 2.335504 -0.854502 0.288907 0
M  V30 32 C 3.202965 -1.893349 0.208439 0
M  V30 33 H 3.599456 -5.096416 1.175830 0
M  V30 34 H 3.764592 -3.644434 2.196478 0
M  V30 35 H 4.752536 -5.144558 2.529342 0
M  V30 36 H 6.647907 -5.854407 0.828214 0
M  V30 37 H 6.987394 -2.093700 -1.158380 0
M  V30 38 H 6.126368 -0.227559 0.518443 0
M  V30 39 H 4.519247 1.606500 0.657343 0
M  V30 40 H -0.811850 1.659558 2.289384 0
M  V30 41 H -3.138934 2.296564 2.295410 0
M  V30 42 H -5.166344 0.579860 1.887954 0
M  V30 43 H -5.828790 2.140340 2.294733 0
M  V30 44 H -5.343580 1.843262 -1.786882 0
M  V30 45 H -6.487931 0.842102 -0.710069 0
M  V30 46 H -7.231410 2.853252 0.481913 0
M  V30 47 H -6.957980 3.631800 -1.217762 0
M  V30 48 H -4.524063 3.860400 -0.593766 0
M  V30 49 H -5.282083 4.087671 1.084656 0
M  V30 50 H -3.606014 0.769748 -1.669892 0
M  V30 51 H -1.203753 0.117962 -1.662003 0
M  V30 52 H 0.883706 -2.655176 -1.779452 0
M  V30 53 H -0.619525 -4.675262 -1.861815 0
M  V30 54 H -2.165789 -5.078275 0.046973 0
M  V30 55 H -2.242343 -3.547857 1.986430 0
M  V30 56 H -0.784116 -1.631732 2.014663 0
M  V30 57 H 2.838403 -2.916280 0.078100 0
M  V30 END ATOM
M  V30 BEGIN BOND
M  V30 1 1 1 2
M  V30 2 1 2 3
M  V30 3 2 3 4
M  V30 4 1 4 5
M  V30 5 2 5 6
M  V30 6 1 6 7
M  V30 7 1 7 8
M  V30 8 2 8 9
M  V30 9 1 9 10
M  V30 10 2 10 11
M  V30 11 1 11 12
M  V30 12 1 12 13
M  V30 13 2 13 14
M  V30 14 1 14 15
M  V30 15 2 15 16
M  V30 16 1 16 17
M  V30 17 1 17 18
M  V30 18 1 17 19
M  V30 19 1 19 20
M  V30 20 1 20 21
M  V30 21 1 16 22
M  V30 22 2 22 23
M  V30 23 2 12 24
M  V30 24 1 24 25
M  V30 25 2 25 26
M  V30 26 1 26 27
M  V30 27 2 27 28
M  V30 28 1 28 29
M  V30 29 2 29 30
M  V30 30 1 24 31
M  V30 31 1 31 32
M  V30 32 1 6 2
M  V30 33 2 32 7
M  V30 34 1 31 10
M  V30 35 1 23 13
M  V30 36 1 30 25
M  V30 37 1 21 17
M  V30 38 1 1 33
M  V30 39 1 1 34
M  V30 40 1 1 35
M  V30 41 1 3 36
M  V30 42 1 5 37
M  V30 43 1 8 38
M  V30 44 1 9 39
M  V30 45 1 14 40
M  V30 46 1 15 41
M  V30 47 1 18 42
M  V30 48 1 18 43
M  V30 49 1 19 44
M  V30 50 1 19 45
M  V30 51 1 20 46
M  V30 52 1 20 47
M  V30 53 1 21 48
M  V30 54 1 21 49
M  V30 55 1 22 50
M  V30 56 1 23 51
M  V30 57 1 26 52
M  V30 58 1 27 53
M  V30 59 1 28 54
M  V30 60 1 29 55
M  V30 61 1 30 56
M  V30 62 1 32 57
M  V30 END BOND
M  V30 END CTAB
M  END
>  <Dataset>  (402) 
ChEMBL_Kinases

>  <Ligand_Instance>  (402) 
nan

>  <PDB_ID>  (402) 
nan

>  <Standardized_SMILES>  (402) 
Cn1cncc1-c1ccc2nc(-c3ccc(C4(N)CCC4)cc3)c(-c3ccccc3)n2c1

>  <Name>  (402) 
nan

>  <Pocket>  (402) 
nan

>  <ATP_Site>  (402) 
nan

>  <Peripheral>  (402) 
nan

>  <Num_H_Atoms_ProtBoundConf>  (402) 
nan

>  <Num_Resolved_Atoms>  (402) 
nan

>  <Num_Not_Resolved_Atoms>  (402) 
nan

$$$$
CHEMBL3703126
     RDKit          3D

  0  0  0  0  0  0  0  0  0  0999 V3000
M  V30 BEGIN CTAB
M  V30 COUNTS 57 62 0 0 0
M  V30 BEGIN ATOM
M  V30 1 C 5.512269 -6.232375 5.186992 0
M  V30 2 N 4.772453 -5.417598 4.241781 0
M  V30 3 C 4.459760 -4.095848 4.150762 0
M  V30 4 C 3.718156 -3.886372 3.007621 0
M  V30 5 C 3.200137 -2.570932 2.580385 0
M  V30 6 C 3.914588 -1.431718 2.879611 0
M  V30 7 C 3.389686 -0.212615 2.454749 0
M  V30 8 C 2.197868 -0.174902 1.762270 0
M  V30 9 N 1.514869 0.865979 1.261993 0
M  V30 10 C 0.389588 0.438842 0.653148 0
M  V30 11 C -0.716208 1.080149 -0.053020 0
M  V30 12 C -2.038076 1.194428 0.327586 0
M  V30 13 C -2.931843 1.833185 -0.507015 0
M  V30 14 C -2.557306 2.377027 -1.734818 0
M  V30 15 C -3.709883 2.999132 -2.430664 0
M  V30 16 N -4.936355 2.237847 -2.287103 0
M  V30 17 C -3.960878 4.464229 -2.120663 0
M  V30 18 C -4.474506 4.562527 -3.565023 0
M  V30 19 C -3.495093 3.415810 -3.853117 0
M  V30 20 C -1.233286 2.254124 -2.098670 0
M  V30 21 C -0.335771 1.616906 -1.268430 0
M  V30 22 C 0.358185 -0.960022 0.775614 0
M  V30 23 C -0.559535 -2.033042 0.353061 0
M  V30 24 C -1.850803 -2.308812 0.748317 0
M  V30 25 C -2.500330 -3.387200 0.187317 0
M  V30 26 C -1.921430 -4.204752 -0.749593 0
M  V30 27 C -0.626922 -3.939267 -1.154253 0
M  V30 28 C 0.034190 -2.849057 -0.589747 0
M  V30 29 N 1.489109 -1.302997 1.464979 0
M  V30 30 C 2.013526 -2.481139 1.885476 0
M  V30 31 C 3.597066 -5.143784 2.410715 0
M  V30 32 N 4.244798 -6.043687 3.181893 0
M  V30 33 H 5.610435 -5.617547 6.120195 0
M  V30 34 H 6.508539 -6.537543 4.797777 0
M  V30 35 H 4.923173 -7.123572 5.485059 0
M  V30 36 H 4.795528 -3.426426 4.908416 0
M  V30 37 H 4.838199 -1.561716 3.426782 0
M  V30 38 H 3.950541 0.680581 2.689063 0
M  V30 39 H -2.257897 0.758924 1.282759 0
M  V30 40 H -3.934677 1.848011 -0.080824 0
M  V30 41 H -4.688437 1.234452 -2.188786 0
M  V30 42 H -5.553251 2.609293 -1.540390 0
M  V30 43 H -3.038856 5.047323 -2.059437 0
M  V30 44 H -4.710378 4.624964 -1.341942 0
M  V30 45 H -4.240964 5.492795 -4.088253 0
M  V30 46 H -5.511958 4.223134 -3.712894 0
M  V30 47 H -2.463900 3.776169 -4.008206 0
M  V30 48 H -3.838161 2.709065 -4.623341 0
M  V30 49 H -1.032257 2.701920 -3.060329 0
M  V30 50 H 0.667024 1.587888 -1.669704 0
M  V30 51 H -2.213277 -1.609763 1.489290 0
M  V30 52 H -3.517345 -3.519920 0.567159 0
M  V30 53 H -2.564549 -4.996585 -1.081908 0
M  V30 54 H -0.209850 -4.606725 -1.890836 0
M  V30 55 H 1.033934 -2.751076 -0.990413 0
M  V30 56 H 1.494616 -3.417646 1.679347 0
M  V30 57 H 3.057761 -5.303815 1.480353 0
M  V30 END ATOM
M  V30 BEGIN BOND
M  V30 1 1 1 2
M  V30 2 1 2 3
M  V30 3 2 3 4
M  V30 4 1 4 5
M  V30 5 1 5 6
M  V30 6 2 6 7
M  V30 7 1 7 8
M  V30 8 2 8 9
M  V30 9 1 9 10
M  V30 10 1 10 11
M  V30 11 2 11 12
M  V30 12 1 12 13
M  V30 13 2 13 14
M  V30 14 1 14 15
M  V30 15 1 15 16
M  V30 16 1 15 17
M  V30 17 1 17 18
M  V30 18 1 18 19
M  V30 19 1 14 20
M  V30 20 2 20 21
M  V30 21 2 10 22
M  V30 22 1 22 23
M  V30 23 2 23 24
M  V30 24 1 24 25
M  V30 25 2 25 26
M  V30 26 1 26 27
M  V30 27 2 27 28
M  V30 28 1 22 29
M  V30 29 1 29 30
M  V30 30 1 4 31
M  V30 31 2 31 32
M  V30 32 1 32 2
M  V30 33 2 30 5
M  V30 34 1 29 8
M  V30 35 1 21 11
M  V30 36 1 28 23
M  V30 37 1 19 15
M  V30 38 1 1 33
M  V30 39 1 1 34
M  V30 40 1 1 35
M  V30 41 1 3 36
M  V30 42 1 6 37
M  V30 43 1 7 38
M  V30 44 1 12 39
M  V30 45 1 13 40
M  V30 46 1 16 41
M  V30 47 1 16 42
M  V30 48 1 17 43
M  V30 49 1 17 44
M  V30 50 1 18 45
M  V30 51 1 18 46
M  V30 52 1 19 47
M  V30 53 1 19 48
M  V30 54 1 20 49
M  V30 55 1 21 50
M  V30 56 1 24 51
M  V30 57 1 25 52
M  V30 58 1 26 53
M  V30 59 1 27 54
M  V30 60 1 28 55
M  V30 61 1 30 56
M  V30 62 1 31 57
M  V30 END BOND
M  V30 END CTAB
M  END
>  <Dataset>  (403) 
ChEMBL_Kinases

>  <Ligand_Instance>  (403) 
nan

>  <PDB_ID>  (403) 
nan

>  <Standardized_SMILES>  (403) 
Cn1cc(-c2ccc3nc(-c4ccc(C5(N)CCC5)cc4)c(-c4ccccc4)n3c2)cn1

>  <Name>  (403) 
nan

>  <Pocket>  (403) 
nan

>  <ATP_Site>  (403) 
nan

>  <Peripheral>  (403) 
nan

>  <Num_H_Atoms_ProtBoundConf>  (403) 
nan

>  <Num_Resolved_Atoms>  (403) 
nan

>  <Num_Not_Resolved_Atoms>  (403) 
nan

$$$$
CHEMBL3703127
     RDKit          3D

  0  0  0  0  0  0  0  0  0  0999 V3000
M  V30 BEGIN CTAB
M  V30 COUNTS 52 57 0 0 0
M  V30 BEGIN ATOM
M  V30 1 N -2.665707 -3.656191 5.141382 0
M  V30 2 C -2.536118 -3.968952 3.728632 0
M  V30 3 C -1.571947 -3.085218 3.067910 0
M  V30 4 C -1.441557 -1.781929 3.499919 0
M  V30 5 C -0.521372 -0.950079 2.863022 0
M  V30 6 C 0.285921 -1.371121 1.796945 0
M  V30 7 C 1.180099 -0.340113 1.280146 0
M  V30 8 N 2.225194 0.251518 1.928505 0
M  V30 9 C 2.788450 1.154894 1.079673 0
M  V30 10 C 3.864560 1.999882 1.262379 0
M  V30 11 C 4.262607 2.846619 0.234231 0
M  V30 12 C 3.552101 2.811907 -0.959065 0
M  V30 13 C 3.890540 3.663048 -2.103544 0
M  V30 14 N 4.848576 3.666641 -3.045160 0
M  V30 15 N 4.670458 4.694962 -3.854991 0
M  V30 16 N 3.602727 5.363073 -3.448937 0
M  V30 17 N 3.125319 4.738743 -2.383768 0
M  V30 18 C 2.482640 1.950343 -1.095931 0
M  V30 19 N 2.085794 1.114484 -0.088524 0
M  V30 20 C 1.081166 0.193301 0.010753 0
M  V30 21 C 0.185849 -0.049132 -1.088381 0
M  V30 22 C -0.017125 -1.164959 -1.872297 0
M  V30 23 C -0.959512 -1.137682 -2.881538 0
M  V30 24 C -1.736900 -0.026152 -3.164169 0
M  V30 25 C -1.536432 1.088095 -2.383720 0
M  V30 26 C -0.590238 1.084121 -1.358581 0
M  V30 27 C 0.128390 -2.679946 1.392441 0
M  V30 28 C -0.785160 -3.492924 2.030485 0
M  V30 29 C -3.886288 -3.886107 3.046029 0
M  V30 30 C -3.549676 -5.184951 2.344901 0
M  V30 31 C -2.488913 -5.413377 3.387785 0
M  V30 32 H -3.102049 -4.503203 5.585404 0
M  V30 33 H -3.363491 -2.853656 5.176590 0
M  V30 34 H -2.034031 -1.388267 4.319018 0
M  V30 35 H -0.458271 0.073246 3.245647 0
M  V30 36 H 4.423272 2.043884 2.166760 0
M  V30 37 H 5.092063 3.547581 0.273249 0
M  V30 38 H 3.225042 6.222878 -3.902374 0
M  V30 39 H 1.939960 1.935770 -2.033542 0
M  V30 40 H 0.613622 -1.975149 -1.598953 0
M  V30 41 H -1.027243 -2.066772 -3.424236 0
M  V30 42 H -2.446045 -0.095115 -3.970369 0
M  V30 43 H -2.149036 1.946812 -2.615480 0
M  V30 44 H -0.551096 2.047172 -0.828523 0
M  V30 45 H 0.771503 -2.951854 0.574059 0
M  V30 46 H -0.828766 -4.490398 1.638885 0
M  V30 47 H -4.019743 -3.020210 2.366502 0
M  V30 48 H -4.740519 -4.062929 3.748177 0
M  V30 49 H -3.160174 -4.948613 1.333972 0
M  V30 50 H -4.385783 -5.913041 2.354263 0
M  V30 51 H -1.533124 -5.820327 3.016123 0
M  V30 52 H -2.875199 -6.057154 4.191980 0
M  V30 END ATOM
M  V30 BEGIN BOND
M  V30 1 1 1 2
M  V30 2 1 2 3
M  V30 3 2 3 4
M  V30 4 1 4 5
M  V30 5 2 5 6
M  V30 6 1 6 7
M  V30 7 1 7 8
M  V30 8 2 8 9
M  V30 9 1 9 10
M  V30 10 2 10 11
M  V30 11 1 11 12
M  V30 12 1 12 13
M  V30 13 1 13 14
M  V30 14 2 14 15
M  V30 15 1 15 16
M  V30 16 1 16 17
M  V30 17 2 12 18
M  V30 18 1 18 19
M  V30 19 1 19 20
M  V30 20 1 20 21
M  V30 21 2 21 22
M  V30 22 1 22 23
M  V30 23 2 23 24
M  V30 24 1 24 25
M  V30 25 2 25 26
M  V30 26 1 6 27
M  V30 27 2 27 28
M  V30 28 1 2 29
M  V30 29 1 29 30
M  V30 30 1 30 31
M  V30 31 1 31 2
M  V30 32 1 28 3
M  V30 33 2 20 7
M  V30 34 1 26 21
M  V30 35 1 19 9
M  V30 36 2 17 13
M  V30 37 1 1 32
M  V30 38 1 1 33
M  V30 39 1 4 34
M  V30 40 1 5 35
M  V30 41 1 10 36
M  V30 42 1 11 37
M  V30 43 1 16 38
M  V30 44 1 18 39
M  V30 45 1 22 40
M  V30 46 1 23 41
M  V30 47 1 24 42
M  V30 48 1 25 43
M  V30 49 1 26 44
M  V30 50 1 27 45
M  V30 51 1 28 46
M  V30 52 1 29 47
M  V30 53 1 29 48
M  V30 54 1 30 49
M  V30 55 1 30 50
M  V30 56 1 31 51
M  V30 57 1 31 52
M  V30 END BOND
M  V30 END CTAB
M  END
>  <Dataset>  (404) 
ChEMBL_Kinases

>  <Ligand_Instance>  (404) 
nan

>  <PDB_ID>  (404) 
nan

>  <Standardized_SMILES>  (404) 
NC1(c2ccc(-c3nc4ccc(-c5nn[nH]n5)cn4c3-c3ccccc3)cc2)CCC1

>  <Name>  (404) 
nan

>  <Pocket>  (404) 
nan

>  <ATP_Site>  (404) 
nan

>  <Peripheral>  (404) 
nan

>  <Num_H_Atoms_ProtBoundConf>  (404) 
nan

>  <Num_Resolved_Atoms>  (404) 
nan

>  <Num_Not_Resolved_Atoms>  (404) 
nan

$$$$
CHEMBL2204094
     RDKit          3D

  0  0  0  0  0  0  0  0  0  0999 V3000
M  V30 BEGIN CTAB
M  V30 COUNTS 60 63 0 0 0
M  V30 BEGIN ATOM
M  V30 1 C 3.250192 0.196979 3.005133 0
M  V30 2 O 2.747593 -0.032047 1.728205 0
M  V30 3 C 2.212350 -1.193491 1.239600 0
M  V30 4 O 2.483764 -1.547068 2.389115 0
M  V30 5 C 1.630508 -1.795103 0.066166 0
M  V30 6 C 1.466812 -1.036835 -1.061948 0
M  V30 7 C 1.671184 0.396689 -1.252056 0
M  V30 8 C 0.574506 1.271621 -0.843586 0
M  V30 9 C 0.254237 1.915253 0.324812 0
M  V30 10 C -0.835390 2.708037 0.551105 0
M  V30 11 C -1.740845 2.919353 -0.463054 0
M  V30 12 C -2.935234 3.739520 -0.316586 0
M  V30 13 O -3.813652 4.032533 -1.171388 0
M  V30 14 N -3.282939 4.367309 0.934866 0
M  V30 15 C -4.523836 5.115584 0.767253 0
M  V30 16 C -4.848440 5.747833 2.116743 0
M  V30 17 O -4.994126 4.720313 3.035327 0
M  V30 18 C -1.515333 2.319113 -1.683340 0
M  V30 19 C -0.395785 1.539070 -1.822397 0
M  V30 20 C 0.975448 -1.793099 -2.130480 0
M  V30 21 O 0.741563 -1.342410 -3.271467 0
M  V30 22 C 0.696132 -3.160748 -2.009041 0
M  V30 23 C 0.202959 -3.898416 -3.090266 0
M  V30 24 C -0.059690 -5.241407 -2.924310 0
M  V30 25 C 0.152639 -5.872737 -1.719295 0
M  V30 26 C -0.124634 -7.308064 -1.523172 0
M  V30 27 F 0.927961 -8.126718 -1.895885 0
M  V30 28 F -1.248856 -7.705651 -2.195166 0
M  V30 29 F -0.387674 -7.506819 -0.174599 0
M  V30 30 N 0.627144 -5.124079 -0.711182 0
M  V30 31 C 0.903038 -3.811117 -0.807939 0
M  V30 32 N 1.375254 -3.099228 0.223159 0
M  V30 33 C 1.567383 -3.815029 1.431234 0
M  V30 34 C 2.751102 -4.476978 1.695503 0
M  V30 35 C 2.890109 -5.160402 2.887406 0
M  V30 36 C 1.832022 -5.146970 3.759562 0
M  V30 37 C 0.615211 -4.497587 3.547239 0
M  V30 38 C 0.518559 -3.818739 2.328246 0
M  V30 39 H 2.431088 0.090205 3.768380 0
M  V30 40 H 4.125118 -0.415903 3.270982 0
M  V30 41 H 3.496080 1.300031 3.043940 0
M  V30 42 H 2.598777 0.752333 -0.751855 0
M  V30 43 H 1.874138 0.582499 -2.346648 0
M  V30 44 H 0.935304 1.779429 1.125488 0
M  V30 45 H -0.978535 3.160004 1.515290 0
M  V30 46 H -2.670861 4.245511 1.786290 0
M  V30 47 H -5.365316 4.442002 0.522139 0
M  V30 48 H -4.447422 5.887798 -0.027413 0
M  V30 49 H -4.009727 6.437268 2.411921 0
M  V30 50 H -5.777823 6.340915 2.043324 0
M  V30 51 H -4.389919 4.890500 3.813848 0
M  V30 52 H -2.220609 2.482377 -2.479781 0
M  V30 53 H -0.304763 1.111585 -2.831426 0
M  V30 54 H 0.031659 -3.398906 -4.055579 0
M  V30 55 H -0.446269 -5.817559 -3.772849 0
M  V30 56 H 3.556684 -4.455645 0.970780 0
M  V30 57 H 3.787088 -5.695666 3.152177 0
M  V30 58 H 1.958689 -5.691763 4.697482 0
M  V30 59 H -0.160921 -4.548672 4.305528 0
M  V30 60 H -0.427015 -3.301772 2.139335 0
M  V30 END ATOM
M  V30 BEGIN BOND
M  V30 1 1 1 2
M  V30 2 1 2 3
M  V30 3 2 3 4
M  V30 4 1 3 5
M  V30 5 2 5 6
M  V30 6 1 6 7
M  V30 7 1 7 8
M  V30 8 2 8 9
M  V30 9 1 9 10
M  V30 10 2 10 11
M  V30 11 1 11 12
M  V30 12 2 12 13
M  V30 13 1 12 14
M  V30 14 1 14 15
M  V30 15 1 15 16
M  V30 16 1 16 17
M  V30 17 1 11 18
M  V30 18 2 18 19
M  V30 19 1 6 20
M  V30 20 2 20 21
M  V30 21 1 20 22
M  V30 22 2 22 23
M  V30 23 1 23 24
M  V30 24 2 24 25
M  V30 25 1 25 26
M  V30 26 1 26 27
M  V30 27 1 26 28
M  V30 28 1 26 29
M  V30 29 1 25 30
M  V30 30 2 30 31
M  V30 31 1 31 32
M  V30 32 1 32 33
M  V30 33 2 33 34
M  V30 34 1 34 35
M  V30 35 2 35 36
M  V30 36 1 36 37
M  V30 37 2 37 38
M  V30 38 1 32 5
M  V30 39 1 38 33
M  V30 40 1 19 8
M  V30 41 1 31 22
M  V30 42 1 1 39
M  V30 43 1 1 40
M  V30 44 1 1 41
M  V30 45 1 7 42
M  V30 46 1 7 43
M  V30 47 1 9 44
M  V30 48 1 10 45
M  V30 49 1 14 46
M  V30 50 1 15 47
M  V30 51 1 15 48
M  V30 52 1 16 49
M  V30 53 1 16 50
M  V30 54 1 17 51
M  V30 55 1 18 52
M  V30 56 1 19 53
M  V30 57 1 23 54
M  V30 58 1 24 55
M  V30 59 1 34 56
M  V30 60 1 35 57
M  V30 61 1 36 58
M  V30 62 1 37 59
M  V30 63 1 38 60
M  V30 END BOND
M  V30 END CTAB
M  END
>  <Dataset>  (405) 
ChEMBL_Kinases

>  <Ligand_Instance>  (405) 
nan

>  <PDB_ID>  (405) 
nan

>  <Standardized_SMILES>  (405) 
COC(=O)c1c(Cc2ccc(C(=O)NCCO)cc2)c(=O)c2ccc(C(F)(F)F)nc2n1-c1ccccc1

>  <Name>  (405) 
nan

>  <Pocket>  (405) 
nan

>  <ATP_Site>  (405) 
nan

>  <Peripheral>  (405) 
nan

>  <Num_H_Atoms_ProtBoundConf>  (405) 
nan

>  <Num_Resolved_Atoms>  (405) 
nan

>  <Num_Not_Resolved_Atoms>  (405) 
nan

$$$$
CHEMBL3702141
     RDKit          3D

  0  0  0  0  0  0  0  0  0  0999 V3000
M  V30 BEGIN CTAB
M  V30 COUNTS 56 61 0 0 0
M  V30 BEGIN ATOM
M  V30 1 C -2.216986 -5.607411 3.931753 0
M  V30 2 C -1.131622 -4.765865 3.792280 0
M  V30 3 C -0.777573 -4.347236 2.527293 0
M  V30 4 C 0.229574 -3.524967 2.055959 0
M  V30 5 C 1.217731 -2.858545 2.782887 0
M  V30 6 N 2.091157 -2.110814 2.087307 0
M  V30 7 C 2.026938 -1.999824 0.738914 0
M  V30 8 N 3.041788 -1.160298 0.200255 0
M  V30 9 C 2.349037 0.081601 0.214716 0
M  V30 10 C 2.412026 0.829078 1.393885 0
M  V30 11 C 1.753642 2.046501 1.453710 0
M  V30 12 C 1.030201 2.574479 0.408510 0
M  V30 13 N 0.344647 3.814410 0.447756 0
M  V30 14 C 0.225783 4.681035 1.582733 0
M  V30 15 C 1.055228 5.927581 1.279993 0
M  V30 16 N 0.770976 6.413165 -0.057517 0
M  V30 17 C -0.425414 5.816643 -0.602905 0
M  V30 18 C -0.315590 4.305237 -0.744168 0
M  V30 19 C 1.010584 1.787074 -0.719349 0
M  V30 20 N 1.632447 0.601004 -0.825745 0
M  V30 21 C 1.049592 -2.659789 0.026299 0
M  V30 22 C 0.121474 -3.444499 0.683138 0
M  V30 23 N -0.922525 -4.188833 0.264178 0
M  V30 24 C -1.275583 -4.296798 -1.090060 0
M  V30 25 C -2.096291 -5.448418 -1.530848 0
M  V30 26 C -1.842567 -5.461629 -3.059866 0
M  V30 27 S -2.511477 -3.767834 -3.327542 0
M  V30 28 C -1.876395 -3.085078 -1.730594 0
M  V30 29 C -1.448911 -4.722168 1.382760 0
M  V30 30 C -2.523758 -5.562903 1.582959 0
M  V30 31 N -2.863224 -5.967158 2.819002 0
M  V30 32 H -2.473340 -5.920500 4.933766 0
M  V30 33 H -0.559455 -4.433580 4.662168 0
M  V30 34 H 1.256482 -2.955066 3.843042 0
M  V30 35 H 4.022291 -1.164559 -0.162072 0
M  V30 36 H 2.978301 0.434361 2.236888 0
M  V30 37 H 1.831525 2.578289 2.373336 0
M  V30 38 H -0.853049 4.954682 1.749991 0
M  V30 39 H 0.576192 4.160895 2.477473 0
M  V30 40 H 2.116538 5.616464 1.299880 0
M  V30 41 H 0.801007 6.681703 2.038908 0
M  V30 42 H 1.575892 6.316470 -0.684086 0
M  V30 43 H -0.572749 6.235482 -1.626415 0
M  V30 44 H -1.302392 6.053023 0.008571 0
M  V30 45 H -1.326817 3.844606 -0.836991 0
M  V30 46 H 0.223933 4.060994 -1.681590 0
M  V30 47 H 0.497502 2.049223 -1.613189 0
M  V30 48 H 1.052259 -2.530173 -1.046133 0
M  V30 49 H -0.302864 -4.439277 -1.665144 0
M  V30 50 H -1.785795 -6.421457 -1.196257 0
M  V30 51 H -3.209915 -5.260023 -1.544559 0
M  V30 52 H -2.447753 -6.225759 -3.544912 0
M  V30 53 H -0.767436 -5.465972 -3.284031 0
M  V30 54 H -1.080359 -2.391600 -2.138313 0
M  V30 55 H -2.666490 -2.586222 -1.176684 0
M  V30 56 H -3.094913 -5.895607 0.731510 0
M  V30 END ATOM
M  V30 BEGIN BOND
M  V30 1 2 1 2
M  V30 2 1 2 3
M  V30 3 1 3 4
M  V30 4 2 4 5
M  V30 5 1 5 6
M  V30 6 2 6 7
M  V30 7 1 7 8
M  V30 8 1 8 9
M  V30 9 2 9 10
M  V30 10 1 10 11
M  V30 11 2 11 12
M  V30 12 1 12 13
M  V30 13 1 13 14
M  V30 14 1 14 15
M  V30 15 1 15 16
M  V30 16 1 16 17
M  V30 17 1 17 18
M  V30 18 1 12 19
M  V30 19 2 19 20
M  V30 20 1 7 21
M  V30 21 2 21 22
M  V30 22 1 22 23
M  V30 23 1 23 24
M  V30 24 1 24 25
M  V30 25 1 25 26
M  V30 26 1 26 27
M  V30 27 1 27 28
M  V30 28 1 23 29
M  V30 29 1 29 30
M  V30 30 2 30 31
M  V30 31 1 31 1
M  V30 32 2 29 3
M  V30 33 1 22 4
M  V30 34 1 28 24
M  V30 35 1 20 9
M  V30 36 1 18 13
M  V30 37 1 1 32
M  V30 38 1 2 33
M  V30 39 1 5 34
M  V30 40 1 8 35
M  V30 41 1 10 36
M  V30 42 1 11 37
M  V30 43 1 14 38
M  V30 44 1 14 39
M  V30 45 1 15 40
M  V30 46 1 15 41
M  V30 47 1 16 42
M  V30 48 1 17 43
M  V30 49 1 17 44
M  V30 50 1 18 45
M  V30 51 1 18 46
M  V30 52 1 19 47
M  V30 53 1 21 48
M  V30 54 1 24 49
M  V30 55 1 25 50
M  V30 56 1 25 51
M  V30 57 1 26 52
M  V30 58 1 26 53
M  V30 59 1 28 54
M  V30 60 1 28 55
M  V30 61 1 30 56
M  V30 END BOND
M  V30 END CTAB
M  END
>  <Dataset>  (406) 
ChEMBL_Kinases

>  <Ligand_Instance>  (406) 
nan

>  <PDB_ID>  (406) 
nan

>  <Standardized_SMILES>  (406) 
c1cc2c3cnc(Nc4ccc(N5CCNCC5)cn4)cc3n(C3CCSC3)c2cn1

>  <Name>  (406) 
nan

>  <Pocket>  (406) 
nan

>  <ATP_Site>  (406) 
nan

>  <Peripheral>  (406) 
nan

>  <Num_H_Atoms_ProtBoundConf>  (406) 
nan

>  <Num_Resolved_Atoms>  (406) 
nan

>  <Num_Not_Resolved_Atoms>  (406) 
nan

$$$$
CHEMBL3703128
     RDKit          3D

  0  0  0  0  0  0  0  0  0  0999 V3000
M  V30 BEGIN CTAB
M  V30 COUNTS 56 61 0 0 0
M  V30 BEGIN ATOM
M  V30 1 N -2.988032 -5.201669 -2.786102 0
M  V30 2 C -1.824150 -4.570213 -3.374099 0
M  V30 3 C -1.143619 -3.546208 -2.582116 0
M  V30 4 C -0.670331 -2.330456 -3.035477 0
M  V30 5 C -0.042869 -1.449091 -2.179454 0
M  V30 6 C 0.141128 -1.736898 -0.838518 0
M  V30 7 C 0.821401 -0.700819 -0.066838 0
M  V30 8 N 2.062216 -0.227687 -0.280978 0
M  V30 9 C 2.375237 0.733823 0.626497 0
M  V30 10 C 3.518604 1.488368 0.793172 0
M  V30 11 C 3.578048 2.419352 1.820152 0
M  V30 12 C 2.464391 2.548535 2.644570 0
M  V30 13 C 2.336652 3.470219 3.776150 0
M  V30 14 C 1.185956 4.069120 4.232144 0
M  V30 15 C 1.197032 4.918271 5.309207 0
M  V30 16 N 2.363883 5.187378 5.955702 0
M  V30 17 C 3.519680 4.619053 5.539804 0
M  V30 18 C 3.514445 3.756601 4.447296 0
M  V30 19 C 1.338547 1.756011 2.423828 0
M  V30 20 N 1.276577 0.843488 1.419518 0
M  V30 21 C 0.334135 -0.021779 1.004772 0
M  V30 22 C -0.969304 -0.159843 1.643259 0
M  V30 23 C -0.822535 -0.536079 2.983178 0
M  V30 24 C -1.935298 -0.731218 3.802422 0
M  V30 25 C -3.187606 -0.543819 3.258396 0
M  V30 26 C -3.333193 -0.173085 1.938365 0
M  V30 27 C -2.237560 0.018953 1.132163 0
M  V30 28 C -0.329356 -2.950525 -0.377862 0
M  V30 29 C -0.956852 -3.828227 -1.241427 0
M  V30 30 C -0.896317 -5.611895 -4.014420 0
M  V30 31 C -1.938356 -5.663474 -5.122218 0
M  V30 32 C -2.166381 -4.178566 -4.799233 0
M  V30 33 H -2.798997 -5.673998 -1.874655 0
M  V30 34 H -3.791736 -4.548531 -2.780197 0
M  V30 35 H -0.817820 -2.114676 -4.080331 0
M  V30 36 H 0.287660 -0.516538 -2.663792 0
M  V30 37 H 4.387009 1.407003 0.172632 0
M  V30 38 H 4.396888 3.064204 2.058838 0
M  V30 39 H 0.292154 3.821740 3.684623 0
M  V30 40 H 0.237677 5.360426 5.616749 0
M  V30 41 H 4.426113 4.870028 6.095007 0
M  V30 42 H 4.488456 3.334012 4.167961 0
M  V30 43 H 0.448856 1.825987 3.044394 0
M  V30 44 H 0.116203 -0.709706 3.511211 0
M  V30 45 H -1.860811 -1.021965 4.842215 0
M  V30 46 H -4.045713 -0.695806 3.896229 0
M  V30 47 H -4.292483 -0.019751 1.486098 0
M  V30 48 H -2.213246 0.304146 0.101286 0
M  V30 49 H -0.156317 -3.116911 0.675184 0
M  V30 50 H -1.294651 -4.753874 -0.802427 0
M  V30 51 H 0.028589 -5.152608 -4.406950 0
M  V30 52 H -0.775069 -6.545030 -3.431456 0
M  V30 53 H -1.570117 -5.875002 -6.127967 0
M  V30 54 H -2.847069 -6.257983 -4.834403 0
M  V30 55 H -3.215314 -3.846826 -4.930790 0
M  V30 56 H -1.392930 -3.611822 -5.348471 0
M  V30 END ATOM
M  V30 BEGIN BOND
M  V30 1 1 1 2
M  V30 2 1 2 3
M  V30 3 2 3 4
M  V30 4 1 4 5
M  V30 5 2 5 6
M  V30 6 1 6 7
M  V30 7 1 7 8
M  V30 8 2 8 9
M  V30 9 1 9 10
M  V30 10 2 10 11
M  V30 11 1 11 12
M  V30 12 1 12 13
M  V30 13 2 13 14
M  V30 14 1 14 15
M  V30 15 2 15 16
M  V30 16 1 16 17
M  V30 17 2 17 18
M  V30 18 2 12 19
M  V30 19 1 19 20
M  V30 20 1 20 21
M  V30 21 1 21 22
M  V30 22 2 22 23
M  V30 23 1 23 24
M  V30 24 2 24 25
M  V30 25 1 25 26
M  V30 26 2 26 27
M  V30 27 1 6 28
M  V30 28 2 28 29
M  V30 29 1 2 30
M  V30 30 1 30 31
M  V30 31 1 31 32
M  V30 32 1 32 2
M  V30 33 1 29 3
M  V30 34 2 21 7
M  V30 35 1 27 22
M  V30 36 1 20 9
M  V30 37 1 18 13
M  V30 38 1 1 33
M  V30 39 1 1 34
M  V30 40 1 4 35
M  V30 41 1 5 36
M  V30 42 1 10 37
M  V30 43 1 11 38
M  V30 44 1 14 39
M  V30 45 1 15 40
M  V30 46 1 17 41
M  V30 47 1 18 42
M  V30 48 1 19 43
M  V30 49 1 23 44
M  V30 50 1 24 45
M  V30 51 1 25 46
M  V30 52 1 26 47
M  V30 53 1 27 48
M  V30 54 1 28 49
M  V30 55 1 29 50
M  V30 56 1 30 51
M  V30 57 1 30 52
M  V30 58 1 31 53
M  V30 59 1 31 54
M  V30 60 1 32 55
M  V30 61 1 32 56
M  V30 END BOND
M  V30 END CTAB
M  END
>  <Dataset>  (407) 
ChEMBL_Kinases

>  <Ligand_Instance>  (407) 
nan

>  <PDB_ID>  (407) 
nan

>  <Standardized_SMILES>  (407) 
NC1(c2ccc(-c3nc4ccc(-c5ccncc5)cn4c3-c3ccccc3)cc2)CCC1

>  <Name>  (407) 
nan

>  <Pocket>  (407) 
nan

>  <ATP_Site>  (407) 
nan

>  <Peripheral>  (407) 
nan

>  <Num_H_Atoms_ProtBoundConf>  (407) 
nan

>  <Num_Resolved_Atoms>  (407) 
nan

>  <Num_Not_Resolved_Atoms>  (407) 
nan

$$$$
CHEMBL3703129
     RDKit          3D

  0  0  0  0  0  0  0  0  0  0999 V3000
M  V30 BEGIN CTAB
M  V30 COUNTS 56 61 0 0 0
M  V30 BEGIN ATOM
M  V30 1 N -2.548182 -5.070070 -3.241064 0
M  V30 2 C -1.481606 -4.228330 -3.781457 0
M  V30 3 C -0.911610 -3.238956 -2.872840 0
M  V30 4 C -0.524781 -1.975824 -3.268226 0
M  V30 5 C 0.014193 -1.057974 -2.381970 0
M  V30 6 C 0.182332 -1.388551 -1.051786 0
M  V30 7 C 0.743699 -0.494383 -0.033839 0
M  V30 8 N 2.018543 -0.035472 -0.154473 0
M  V30 9 C 2.314045 0.762152 0.888696 0
M  V30 10 C 3.468859 1.457645 1.214974 0
M  V30 11 C 3.471274 2.204317 2.372692 0
M  V30 12 C 2.350937 2.251503 3.176734 0
M  V30 13 C 2.287320 3.024335 4.421769 0
M  V30 14 C 1.507335 2.632130 5.514619 0
M  V30 15 C 1.504267 3.422706 6.658492 0
M  V30 16 C 2.270928 4.582737 6.698271 0
M  V30 17 N 3.020295 4.946294 5.629023 0
M  V30 18 C 3.033813 4.184284 4.504372 0
M  V30 19 C 1.238277 1.530875 2.783984 0
M  V30 20 N 1.212031 0.794977 1.658648 0
M  V30 21 C 0.229837 0.029144 1.112851 0
M  V30 22 C -1.097533 -0.221828 1.588923 0
M  V30 23 C -1.267400 -0.850755 2.828393 0
M  V30 24 C -2.538563 -1.094704 3.296700 0
M  V30 25 C -3.675588 -0.736775 2.579216 0
M  V30 26 C -3.461462 -0.119232 1.362749 0
M  V30 27 C -2.216428 0.155073 0.834299 0
M  V30 28 C -0.201933 -2.663655 -0.623660 0
M  V30 29 C -0.741576 -3.564052 -1.542853 0
M  V30 30 C -0.473995 -5.147769 -4.477002 0
M  V30 31 C -1.462415 -5.155989 -5.650738 0
M  V30 32 C -1.886334 -3.767635 -5.148414 0
M  V30 33 H -3.348940 -4.426599 -3.015720 0
M  V30 34 H -2.237671 -5.538114 -2.371395 0
M  V30 35 H -0.629390 -1.664856 -4.277205 0
M  V30 36 H 0.322797 -0.063282 -2.672402 0
M  V30 37 H 4.317212 1.384394 0.547115 0
M  V30 38 H 4.351781 2.760542 2.661187 0
M  V30 39 H 0.926837 1.709662 5.421005 0
M  V30 40 H 0.893706 3.109087 7.504500 0
M  V30 41 H 2.270131 5.199392 7.589467 0
M  V30 42 H 3.663525 4.569840 3.720921 0
M  V30 43 H 0.359238 1.558916 3.398561 0
M  V30 44 H -0.371620 -1.131375 3.393232 0
M  V30 45 H -2.642787 -1.582879 4.259110 0
M  V30 46 H -4.682274 -0.918280 2.927808 0
M  V30 47 H -4.342426 0.163175 0.798134 0
M  V30 48 H -2.113993 0.649461 -0.139476 0
M  V30 49 H -0.070363 -2.929119 0.428743 0
M  V30 50 H -1.003370 -4.511168 -1.114558 0
M  V30 51 H -0.368012 -6.109345 -3.956923 0
M  V30 52 H 0.450098 -4.612587 -4.736187 0
M  V30 53 H -2.281812 -5.866877 -5.535661 0
M  V30 54 H -0.972207 -5.117038 -6.643933 0
M  V30 55 H -2.959229 -3.587536 -5.305734 0
M  V30 56 H -1.286306 -3.017496 -5.654832 0
M  V30 END ATOM
M  V30 BEGIN BOND
M  V30 1 1 1 2
M  V30 2 1 2 3
M  V30 3 2 3 4
M  V30 4 1 4 5
M  V30 5 2 5 6
M  V30 6 1 6 7
M  V30 7 1 7 8
M  V30 8 2 8 9
M  V30 9 1 9 10
M  V30 10 2 10 11
M  V30 11 1 11 12
M  V30 12 1 12 13
M  V30 13 2 13 14
M  V30 14 1 14 15
M  V30 15 2 15 16
M  V30 16 1 16 17
M  V30 17 2 17 18
M  V30 18 2 12 19
M  V30 19 1 19 20
M  V30 20 1 20 21
M  V30 21 1 21 22
M  V30 22 2 22 23
M  V30 23 1 23 24
M  V30 24 2 24 25
M  V30 25 1 25 26
M  V30 26 2 26 27
M  V30 27 1 6 28
M  V30 28 2 28 29
M  V30 29 1 2 30
M  V30 30 1 30 31
M  V30 31 1 31 32
M  V30 32 1 32 2
M  V30 33 1 29 3
M  V30 34 2 21 7
M  V30 35 1 27 22
M  V30 36 1 20 9
M  V30 37 1 18 13
M  V30 38 1 1 33
M  V30 39 1 1 34
M  V30 40 1 4 35
M  V30 41 1 5 36
M  V30 42 1 10 37
M  V30 43 1 11 38
M  V30 44 1 14 39
M  V30 45 1 15 40
M  V30 46 1 16 41
M  V30 47 1 18 42
M  V30 48 1 19 43
M  V30 49 1 23 44
M  V30 50 1 24 45
M  V30 51 1 25 46
M  V30 52 1 26 47
M  V30 53 1 27 48
M  V30 54 1 28 49
M  V30 55 1 29 50
M  V30 56 1 30 51
M  V30 57 1 30 52
M  V30 58 1 31 53
M  V30 59 1 31 54
M  V30 60 1 32 55
M  V30 61 1 32 56
M  V30 END BOND
M  V30 END CTAB
M  END
>  <Dataset>  (408) 
ChEMBL_Kinases

>  <Ligand_Instance>  (408) 
nan

>  <PDB_ID>  (408) 
nan

>  <Standardized_SMILES>  (408) 
NC1(c2ccc(-c3nc4ccc(-c5cccnc5)cn4c3-c3ccccc3)cc2)CCC1

>  <Name>  (408) 
nan

>  <Pocket>  (408) 
nan

>  <ATP_Site>  (408) 
nan

>  <Peripheral>  (408) 
nan

>  <Num_H_Atoms_ProtBoundConf>  (408) 
nan

>  <Num_Resolved_Atoms>  (408) 
nan

>  <Num_Not_Resolved_Atoms>  (408) 
nan

$$$$
CHEMBL3703130
     RDKit          3D

  0  0  0  0  0  0  0  0  0  0999 V3000
M  V30 BEGIN CTAB
M  V30 COUNTS 56 61 0 0 0
M  V30 BEGIN ATOM
M  V30 1 N 2.577204 -4.097246 -4.168878 0
M  V30 2 C 1.338719 -3.424790 -4.404908 0
M  V30 3 C 0.910501 -2.557005 -3.285775 0
M  V30 4 C 1.932932 -1.733405 -2.813737 0
M  V30 5 C 1.738246 -0.855053 -1.781615 0
M  V30 6 C 0.488700 -0.777618 -1.183557 0
M  V30 7 C 0.214060 0.137723 -0.076895 0
M  V30 8 N 0.342616 1.481684 -0.179689 0
M  V30 9 C 0.026599 2.061567 0.987007 0
M  V30 10 C -0.006293 3.389273 1.405149 0
M  V30 11 C -0.388754 3.632497 2.706978 0
M  V30 12 C -0.736311 2.650473 3.608173 0
M  V30 13 C -1.144128 2.888080 4.986229 0
M  V30 14 C -1.224096 4.149158 5.537580 0
M  V30 15 C -1.603617 4.428450 6.833681 0
M  V30 16 C -1.935419 3.365597 7.663669 0
M  V30 17 C -1.849359 2.113323 7.094596 0
M  V30 18 N -1.472713 1.849172 5.811434 0
M  V30 19 C -0.690742 1.348742 3.155335 0
M  V30 20 N -0.315022 1.098872 1.873966 0
M  V30 21 C -0.200853 -0.074357 1.225871 0
M  V30 22 C -0.454051 -1.428751 1.730932 0
M  V30 23 C 0.447646 -2.466704 1.848105 0
M  V30 24 C 0.008977 -3.673019 2.351685 0
M  V30 25 C -1.294520 -3.852879 2.732789 0
M  V30 26 C -2.219081 -2.822919 2.623969 0
M  V30 27 C -1.768829 -1.603900 2.113305 0
M  V30 28 C -0.541970 -1.592995 -1.643321 0
M  V30 29 C -0.303713 -2.464004 -2.685487 0
M  V30 30 C 0.301901 -4.359324 -4.970439 0
M  V30 31 C 0.895381 -4.062476 -6.352015 0
M  V30 32 C 1.352105 -2.745188 -5.758884 0
M  V30 33 H 3.387584 -3.584957 -4.578975 0
M  V30 34 H 2.565718 -5.112751 -4.340073 0
M  V30 35 H 2.945163 -1.716034 -3.211278 0
M  V30 36 H 2.520581 -0.199082 -1.392177 0
M  V30 37 H 0.254354 4.206128 0.747935 0
M  V30 38 H -0.416536 4.660550 3.038525 0
M  V30 39 H -0.984265 5.014906 4.959238 0
M  V30 40 H -1.657078 5.428683 7.238452 0
M  V30 41 H -2.246868 3.455663 8.694663 0
M  V30 42 H -2.072918 1.187849 7.605745 0
M  V30 43 H -0.950343 0.533653 3.809761 0
M  V30 44 H 1.452270 -2.207856 1.515036 0
M  V30 45 H 0.786355 -4.450472 2.414105 0
M  V30 46 H -1.596764 -4.823601 3.125555 0
M  V30 47 H -3.215583 -3.054101 2.946285 0
M  V30 48 H -2.574547 -0.867788 2.071570 0
M  V30 49 H -1.539036 -1.564003 -1.201930 0
M  V30 50 H -1.055249 -3.123348 -3.090783 0
M  V30 51 H -0.747203 -4.093755 -4.857077 0
M  V30 52 H 0.499232 -5.416819 -4.640738 0
M  V30 53 H 0.136682 -3.987716 -7.156872 0
M  V30 54 H 1.762829 -4.724847 -6.567514 0
M  V30 55 H 2.333100 -2.442905 -6.137078 0
M  V30 56 H 0.609907 -1.926239 -5.854784 0
M  V30 END ATOM
M  V30 BEGIN BOND
M  V30 1 1 1 2
M  V30 2 1 2 3
M  V30 3 2 3 4
M  V30 4 1 4 5
M  V30 5 2 5 6
M  V30 6 1 6 7
M  V30 7 1 7 8
M  V30 8 2 8 9
M  V30 9 1 9 10
M  V30 10 2 10 11
M  V30 11 1 11 12
M  V30 12 1 12 13
M  V30 13 2 13 14
M  V30 14 1 14 15
M  V30 15 2 15 16
M  V30 16 1 16 17
M  V30 17 2 17 18
M  V30 18 2 12 19
M  V30 19 1 19 20
M  V30 20 1 20 21
M  V30 21 1 21 22
M  V30 22 2 22 23
M  V30 23 1 23 24
M  V30 24 2 24 25
M  V30 25 1 25 26
M  V30 26 2 26 27
M  V30 27 1 6 28
M  V30 28 2 28 29
M  V30 29 1 2 30
M  V30 30 1 30 31
M  V30 31 1 31 32
M  V30 32 1 32 2
M  V30 33 1 29 3
M  V30 34 2 21 7
M  V30 35 1 27 22
M  V30 36 1 20 9
M  V30 37 1 18 13
M  V30 38 1 1 33
M  V30 39 1 1 34
M  V30 40 1 4 35
M  V30 41 1 5 36
M  V30 42 1 10 37
M  V30 43 1 11 38
M  V30 44 1 14 39
M  V30 45 1 15 40
M  V30 46 1 16 41
M  V30 47 1 17 42
M  V30 48 1 19 43
M  V30 49 1 23 44
M  V30 50 1 24 45
M  V30 51 1 25 46
M  V30 52 1 26 47
M  V30 53 1 27 48
M  V30 54 1 28 49
M  V30 55 1 29 50
M  V30 56 1 30 51
M  V30 57 1 30 52
M  V30 58 1 31 53
M  V30 59 1 31 54
M  V30 60 1 32 55
M  V30 61 1 32 56
M  V30 END BOND
M  V30 END CTAB
M  END
>  <Dataset>  (409) 
ChEMBL_Kinases

>  <Ligand_Instance>  (409) 
nan

>  <PDB_ID>  (409) 
nan

>  <Standardized_SMILES>  (409) 
NC1(c2ccc(-c3nc4ccc(-c5ccccn5)cn4c3-c3ccccc3)cc2)CCC1

>  <Name>  (409) 
nan

>  <Pocket>  (409) 
nan

>  <ATP_Site>  (409) 
nan

>  <Peripheral>  (409) 
nan

>  <Num_H_Atoms_ProtBoundConf>  (409) 
nan

>  <Num_Resolved_Atoms>  (409) 
nan

>  <Num_Not_Resolved_Atoms>  (409) 
nan

$$$$
CHEMBL3703123
     RDKit          3D

  0  0  0  0  0  0  0  0  0  0999 V3000
M  V30 BEGIN CTAB
M  V30 COUNTS 54 59 0 0 0
M  V30 BEGIN ATOM
M  V30 1 N -2.104825 -5.412934 -2.679142 0
M  V30 2 C -1.546126 -5.591307 -1.326780 0
M  V30 3 C -1.010652 -4.363150 -0.773500 0
M  V30 4 C -0.337501 -3.601134 -1.718973 0
M  V30 5 C 0.258739 -2.385782 -1.425144 0
M  V30 6 C 0.207679 -1.866850 -0.146048 0
M  V30 7 C 0.792821 -0.612039 0.272293 0
M  V30 8 N 2.131717 -0.481422 0.146075 0
M  V30 9 C 2.511839 0.738388 0.577450 0
M  V30 10 C 3.721715 1.391510 0.674704 0
M  V30 11 C 3.824828 2.677291 1.168856 0
M  V30 12 C 2.634774 3.287693 1.568033 0
M  V30 13 C 2.559194 4.640262 2.111852 0
M  V30 14 C 3.706016 5.425668 2.268931 0
M  V30 15 C 3.365365 6.653610 2.799033 0
M  V30 16 N 2.027665 6.589922 2.952196 0
M  V30 17 N 1.561328 5.421474 2.553200 0
M  V30 18 C 1.407516 2.620573 1.467549 0
M  V30 19 N 1.382144 1.360931 0.973406 0
M  V30 20 C 0.313998 0.559808 0.798740 0
M  V30 21 C -1.085105 0.746964 1.058287 0
M  V30 22 C -1.542413 0.990893 2.344036 0
M  V30 23 C -2.900401 1.171240 2.587303 0
M  V30 24 C -3.809810 1.111534 1.564153 0
M  V30 25 C -3.382227 0.871959 0.286506 0
M  V30 26 C -2.018835 0.688240 0.024792 0
M  V30 27 C -0.457915 -2.603463 0.824130 0
M  V30 28 C -1.036625 -3.807827 0.486900 0
M  V30 29 C -0.705067 -6.831345 -1.332270 0
M  V30 30 C -1.871136 -7.650983 -0.775428 0
M  V30 31 C -2.480320 -6.298376 -0.387272 0
M  V30 32 H -1.281780 -5.531909 -3.320445 0
M  V30 33 H -2.355518 -4.402251 -2.753010 0
M  V30 34 H -0.202008 -3.854892 -2.760316 0
M  V30 35 H 0.790411 -1.765723 -2.132922 0
M  V30 36 H 4.619934 0.885531 0.355670 0
M  V30 37 H 4.736163 3.232976 1.267231 0
M  V30 38 H 4.741623 5.183567 2.035229 0
M  V30 39 H 3.964191 7.514936 3.059223 0
M  V30 40 H 1.401138 7.341370 3.332270 0
M  V30 41 H 0.481828 3.098060 1.778935 0
M  V30 42 H -0.831988 1.036693 3.137918 0
M  V30 43 H -3.276706 1.363033 3.586848 0
M  V30 44 H -4.866646 1.254282 1.768637 0
M  V30 45 H -4.113081 0.827252 -0.513930 0
M  V30 46 H -1.696655 0.499894 -0.989646 0
M  V30 47 H -0.556434 -2.297456 1.836344 0
M  V30 48 H -1.561697 -4.405877 1.214993 0
M  V30 49 H 0.155549 -6.886228 -0.665961 0
M  V30 50 H -0.435951 -7.225609 -2.331830 0
M  V30 51 H -1.590215 -8.303616 0.051274 0
M  V30 52 H -2.476522 -8.162889 -1.547413 0
M  V30 53 H -2.319493 -6.172177 0.693917 0
M  V30 54 H -3.553564 -6.193767 -0.638185 0
M  V30 END ATOM
M  V30 BEGIN BOND
M  V30 1 1 1 2
M  V30 2 1 2 3
M  V30 3 2 3 4
M  V30 4 1 4 5
M  V30 5 2 5 6
M  V30 6 1 6 7
M  V30 7 1 7 8
M  V30 8 2 8 9
M  V30 9 1 9 10
M  V30 10 2 10 11
M  V30 11 1 11 12
M  V30 12 1 12 13
M  V30 13 1 13 14
M  V30 14 2 14 15
M  V30 15 1 15 16
M  V30 16 1 16 17
M  V30 17 2 12 18
M  V30 18 1 18 19
M  V30 19 1 19 20
M  V30 20 1 20 21
M  V30 21 2 21 22
M  V30 22 1 22 23
M  V30 23 2 23 24
M  V30 24 1 24 25
M  V30 25 2 25 26
M  V30 26 1 6 27
M  V30 27 2 27 28
M  V30 28 1 2 29
M  V30 29 1 29 30
M  V30 30 1 30 31
M  V30 31 1 31 2
M  V30 32 1 28 3
M  V30 33 2 20 7
M  V30 34 1 26 21
M  V30 35 1 19 9
M  V30 36 2 17 13
M  V30 37 1 1 32
M  V30 38 1 1 33
M  V30 39 1 4 34
M  V30 40 1 5 35
M  V30 41 1 10 36
M  V30 42 1 11 37
M  V30 43 1 14 38
M  V30 44 1 15 39
M  V30 45 1 16 40
M  V30 46 1 18 41
M  V30 47 1 22 42
M  V30 48 1 23 43
M  V30 49 1 24 44
M  V30 50 1 25 45
M  V30 51 1 26 46
M  V30 52 1 27 47
M  V30 53 1 28 48
M  V30 54 1 29 49
M  V30 55 1 29 50
M  V30 56 1 30 51
M  V30 57 1 30 52
M  V30 58 1 31 53
M  V30 59 1 31 54
M  V30 END BOND
M  V30 END CTAB
M  END
>  <Dataset>  (410) 
ChEMBL_Kinases

>  <Ligand_Instance>  (410) 
nan

>  <PDB_ID>  (410) 
nan

>  <Standardized_SMILES>  (410) 
NC1(c2ccc(-c3nc4ccc(-c5cc[nH]n5)cn4c3-c3ccccc3)cc2)CCC1

>  <Name>  (410) 
nan

>  <Pocket>  (410) 
nan

>  <ATP_Site>  (410) 
nan

>  <Peripheral>  (410) 
nan

>  <Num_H_Atoms_ProtBoundConf>  (410) 
nan

>  <Num_Resolved_Atoms>  (410) 
nan

>  <Num_Not_Resolved_Atoms>  (410) 
nan

$$$$
CHEMBL3698659
     RDKit          3D

  0  0  0  0  0  0  0  0  0  0999 V3000
M  V30 BEGIN CTAB
M  V30 COUNTS 61 67 0 0 0
M  V30 BEGIN ATOM
M  V30 1 C 0.501650 -4.432061 6.092533 0
M  V30 2 C 1.274999 -3.576161 5.349666 0
M  V30 3 C 0.961373 -3.393499 4.004719 0
M  V30 4 C 1.593660 -2.589578 3.080478 0
M  V30 5 C 2.672966 -1.730724 3.100010 0
M  V30 6 N 3.028770 -1.081671 1.979633 0
M  V30 7 C 2.331045 -1.263993 0.819932 0
M  V30 8 N 2.725143 -0.556475 -0.362972 0
M  V30 9 C 2.076872 0.701800 -0.606576 0
M  V30 10 C 2.371030 1.483576 -1.706477 0
M  V30 11 C 1.739767 2.687509 -1.934867 0
M  V30 12 C 0.781082 3.161750 -1.065046 0
M  V30 13 N 0.039616 4.371611 -1.148090 0
M  V30 14 C -0.994163 4.829017 -0.234294 0
M  V30 15 C -2.022221 5.675974 -0.941704 0
M  V30 16 N -2.185706 5.317229 -2.323196 0
M  V30 17 C -0.993391 5.275733 -3.100003 0
M  V30 18 C 0.205523 5.365340 -2.185231 0
M  V30 19 C 0.496015 2.364507 0.036539 0
M  V30 20 N 1.137917 1.198585 0.216444 0
M  V30 21 N 1.288856 -2.107512 0.844550 0
M  V30 22 C 0.872618 -2.791233 1.922513 0
M  V30 23 N -0.146719 -3.655525 2.075761 0
M  V30 24 C -1.145090 -4.163034 1.181175 0
M  V30 25 C -1.330317 -5.666906 1.320018 0
M  V30 26 C -1.229497 -6.127006 -0.118451 0
M  V30 27 C -2.430131 -5.582336 -0.847196 0
M  V30 28 C -2.174784 -4.099557 -1.021428 0
M  V30 29 C -0.875409 -3.912225 -0.261833 0
M  V30 30 C -0.151407 -5.197824 -0.636856 0
M  V30 31 C -0.086366 -4.023838 3.366096 0
M  V30 32 C -0.789301 -4.856752 4.211293 0
M  V30 33 N -0.541002 -5.075012 5.504748 0
M  V30 34 H 0.714328 -4.599068 7.139524 0
M  V30 35 H 2.105350 -3.064878 5.818145 0
M  V30 36 H 3.233085 -1.582719 4.028764 0
M  V30 37 H 3.432757 -0.855747 -1.067732 0
M  V30 38 H 3.110095 1.163650 -2.418594 0
M  V30 39 H 1.938602 3.328854 -2.780687 0
M  V30 40 H -0.490629 5.474097 0.515121 0
M  V30 41 H -1.493333 4.025312 0.318044 0
M  V30 42 H -2.995200 5.523398 -0.431968 0
M  V30 43 H -1.784828 6.763653 -0.803744 0
M  V30 44 H -2.869551 5.952543 -2.757750 0
M  V30 45 H -0.995132 6.164155 -3.789477 0
M  V30 46 H -0.887214 4.354055 -3.713018 0
M  V30 47 H 1.159774 5.236891 -2.739473 0
M  V30 48 H 0.244494 6.402241 -1.788410 0
M  V30 49 H -0.209091 2.534630 0.836854 0
M  V30 50 H -2.105497 -3.624575 1.423547 0
M  V30 51 H -0.532453 -6.171942 1.859894 0
M  V30 52 H -2.365809 -5.923175 1.633564 0
M  V30 53 H -1.027221 -7.179169 -0.252273 0
M  V30 54 H -2.659345 -6.111112 -1.780898 0
M  V30 55 H -3.355845 -5.635976 -0.204868 0
M  V30 56 H -2.023450 -3.836545 -2.109235 0
M  V30 57 H -2.985756 -3.455766 -0.657145 0
M  V30 58 H -0.339810 -3.017000 -0.535180 0
M  V30 59 H 0.766244 -5.364455 -0.037560 0
M  V30 60 H 0.022813 -5.299030 -1.724085 0
M  V30 61 H -1.638596 -5.412650 3.842184 0
M  V30 END ATOM
M  V30 BEGIN BOND
M  V30 1 1 1 2
M  V30 2 2 2 3
M  V30 3 1 3 4
M  V30 4 2 4 5
M  V30 5 1 5 6
M  V30 6 2 6 7
M  V30 7 1 7 8
M  V30 8 1 8 9
M  V30 9 2 9 10
M  V30 10 1 10 11
M  V30 11 2 11 12
M  V30 12 1 12 13
M  V30 13 1 13 14
M  V30 14 1 14 15
M  V30 15 1 15 16
M  V30 16 1 16 17
M  V30 17 1 17 18
M  V30 18 1 12 19
M  V30 19 2 19 20
M  V30 20 1 7 21
M  V30 21 2 21 22
M  V30 22 1 22 23
M  V30 23 1 23 24
M  V30 24 1 24 25
M  V30 25 1 25 26
M  V30 26 1 26 27
M  V30 27 1 27 28
M  V30 28 1 28 29
M  V30 29 1 29 30
M  V30 30 1 23 31
M  V30 31 2 31 32
M  V30 32 1 32 33
M  V30 33 2 33 1
M  V30 34 1 31 3
M  V30 35 1 22 4
M  V30 36 1 29 24
M  V30 37 1 20 9
M  V30 38 1 30 26
M  V30 39 1 18 13
M  V30 40 1 1 34
M  V30 41 1 2 35
M  V30 42 1 5 36
M  V30 43 1 8 37
M  V30 44 1 10 38
M  V30 45 1 11 39
M  V30 46 1 14 40
M  V30 47 1 14 41
M  V30 48 1 15 42
M  V30 49 1 15 43
M  V30 50 1 16 44
M  V30 51 1 17 45
M  V30 52 1 17 46
M  V30 53 1 18 47
M  V30 54 1 18 48
M  V30 55 1 19 49
M  V30 56 1 24 50
M  V30 57 1 25 51
M  V30 58 1 25 52
M  V30 59 1 26 53
M  V30 60 1 27 54
M  V30 61 1 27 55
M  V30 62 1 28 56
M  V30 63 1 28 57
M  V30 64 1 29 58
M  V30 65 1 30 59
M  V30 66 1 30 60
M  V30 67 1 32 61
M  V30 END BOND
M  V30 END CTAB
M  END
>  <Dataset>  (411) 
ChEMBL_Kinases

>  <Ligand_Instance>  (411) 
nan

>  <PDB_ID>  (411) 
nan

>  <Standardized_SMILES>  (411) 
c1cc2c3cnc(Nc4ccc(N5CCNCC5)cn4)nc3n(C3CC4CCC3C4)c2cn1

>  <Name>  (411) 
nan

>  <Pocket>  (411) 
nan

>  <ATP_Site>  (411) 
nan

>  <Peripheral>  (411) 
nan

>  <Num_H_Atoms_ProtBoundConf>  (411) 
nan

>  <Num_Resolved_Atoms>  (411) 
nan

>  <Num_Not_Resolved_Atoms>  (411) 
nan

$$$$
CHEMBL2381600
     RDKit          3D

  0  0  0  0  0  0  0  0  0  0999 V3000
M  V30 BEGIN CTAB
M  V30 COUNTS 51 54 0 0 0
M  V30 BEGIN ATOM
M  V30 1 C -0.952092 -4.975256 0.902940 0
M  V30 2 N 0.368791 -5.140426 0.324315 0
M  V30 3 C 1.144375 -3.956948 0.718336 0 CFG=1
M  V30 4 C 1.194812 -3.919332 2.207613 0
M  V30 5 C 2.424997 -3.182799 2.662714 0
M  V30 6 C 2.713111 -2.064898 1.694254 0 CFG=2
M  V30 7 N 1.508451 -1.275576 1.551915 0
M  V30 8 C 1.514397 -0.118252 0.720385 0
M  V30 9 N 2.614896 0.280682 0.060813 0
M  V30 10 C 2.541557 1.381433 -0.703332 0
M  V30 11 C 1.420095 2.153199 -0.875829 0
M  V30 12 C 1.440948 3.334116 -1.729415 0
M  V30 13 N 2.622270 3.703925 -2.395624 0
M  V30 14 O 0.457852 4.071504 -1.924178 0
M  V30 15 N 0.316105 1.762361 -0.220875 0
M  V30 16 C -0.923905 2.281734 -0.172219 0
M  V30 17 C -1.664931 1.470021 0.661189 0
M  V30 18 C -3.083174 1.713070 0.968394 0
M  V30 19 C -3.776795 2.800257 0.424565 0
M  V30 20 C -5.092686 2.959753 0.756898 0
M  V30 21 C -5.769112 2.109493 1.595943 0
M  V30 22 Cl -7.456092 2.328486 2.011603 0
M  V30 23 C -5.048331 1.038295 2.119093 0
M  V30 24 C -3.703808 0.814847 1.822879 0
M  V30 25 N -0.851837 0.493965 1.084821 0
M  V30 26 C 0.372191 0.661912 0.548913 0
M  V30 27 C 3.174746 -2.680181 0.388446 0
M  V30 28 C 2.523663 -3.992109 0.090354 0
M  V30 29 H -1.134402 -3.931831 1.217666 0
M  V30 30 H -1.025756 -5.600247 1.820329 0
M  V30 31 H -1.710861 -5.239098 0.140585 0
M  V30 32 H 0.820320 -5.972517 0.739219 0
M  V30 33 H 0.599858 -3.105347 0.265183 0
M  V30 34 H 1.158803 -4.946581 2.647290 0
M  V30 35 H 0.303468 -3.382781 2.597199 0
M  V30 36 H 2.254545 -2.727541 3.666439 0
M  V30 37 H 3.291080 -3.869406 2.776490 0
M  V30 38 H 3.491442 -1.366856 2.093566 0
M  V30 39 H 0.604070 -1.487595 2.026640 0
M  V30 40 H 3.456439 1.688580 -1.234095 0
M  V30 41 H 2.951174 3.461154 -3.344418 0
M  V30 42 H 3.294854 4.316634 -1.887031 0
M  V30 43 H -1.300313 3.165797 -0.678144 0
M  V30 44 H -3.269067 3.482903 -0.237082 0
M  V30 45 H -5.658163 3.798944 0.347328 0
M  V30 46 H -5.508363 0.308982 2.798000 0
M  V30 47 H -3.157567 -0.015879 2.232917 0
M  V30 48 H 4.284807 -2.832799 0.469447 0
M  V30 49 H 2.972582 -1.984536 -0.445961 0
M  V30 50 H 2.385381 -4.076979 -1.004594 0
M  V30 51 H 3.112880 -4.862984 0.422776 0
M  V30 END ATOM
M  V30 BEGIN BOND
M  V30 1 1 1 2
M  V30 2 1 2 3
M  V30 3 1 3 4
M  V30 4 1 4 5
M  V30 5 1 5 6
M  V30 6 1 6 7
M  V30 7 1 7 8
M  V30 8 2 8 9
M  V30 9 1 9 10
M  V30 10 2 10 11
M  V30 11 1 11 12
M  V30 12 1 12 13
M  V30 13 2 12 14
M  V30 14 1 11 15
M  V30 15 1 15 16
M  V30 16 2 16 17
M  V30 17 1 17 18
M  V30 18 2 18 19
M  V30 19 1 19 20
M  V30 20 2 20 21
M  V30 21 1 21 22
M  V30 22 1 21 23
M  V30 23 2 23 24
M  V30 24 1 17 25
M  V30 25 2 25 26
M  V30 26 1 6 27
M  V30 27 1 27 28
M  V30 28 1 28 3
M  V30 29 1 26 8
M  V30 30 1 26 15
M  V30 31 1 24 18
M  V30 32 1 1 29
M  V30 33 1 1 30
M  V30 34 1 1 31
M  V30 35 1 2 32
M  V30 36 1 3 33 CFG=3
M  V30 37 1 4 34
M  V30 38 1 4 35
M  V30 39 1 5 36
M  V30 40 1 5 37
M  V30 41 1 6 38 CFG=1
M  V30 42 1 7 39
M  V30 43 1 10 40
M  V30 44 1 13 41
M  V30 45 1 13 42
M  V30 46 1 16 43
M  V30 47 1 19 44
M  V30 48 1 20 45
M  V30 49 1 23 46
M  V30 50 1 24 47
M  V30 51 1 27 48
M  V30 52 1 27 49
M  V30 53 1 28 50
M  V30 54 1 28 51
M  V30 END BOND
M  V30 END CTAB
M  END
>  <Dataset>  (412) 
ChEMBL_Kinases

>  <Ligand_Instance>  (412) 
nan

>  <PDB_ID>  (412) 
nan

>  <Standardized_SMILES>  (412) 
CN[C@H]1CC[C@H](Nc2ncc(C(N)=O)n3cc(-c4ccc(Cl)cc4)nc23)CC1

>  <Name>  (412) 
nan

>  <Pocket>  (412) 
nan

>  <ATP_Site>  (412) 
nan

>  <Peripheral>  (412) 
nan

>  <Num_H_Atoms_ProtBoundConf>  (412) 
nan

>  <Num_Resolved_Atoms>  (412) 
nan

>  <Num_Not_Resolved_Atoms>  (412) 
nan

$$$$
CHEMBL2381601
     RDKit          3D

  0  0  0  0  0  0  0  0  0  0999 V3000
M  V30 BEGIN CTAB
M  V30 COUNTS 48 51 0 0 0
M  V30 BEGIN ATOM
M  V30 1 N -1.860891 -4.427554 3.762032 0
M  V30 2 C -0.515117 -4.036840 3.531479 0
M  V30 3 O -0.243861 -4.858103 4.428702 0
M  V30 4 C -0.007002 -3.065317 2.579961 0
M  V30 5 C 1.345324 -2.878213 2.574627 0
M  V30 6 N 1.815121 -1.963188 1.675296 0
M  V30 7 C 0.961603 -1.312040 0.866304 0
M  V30 8 N 1.446707 -0.357713 -0.071866 0
M  V30 9 C 2.888513 -0.103020 -0.135414 0 CFG=1
M  V30 10 C 3.166655 0.934075 -1.184012 0
M  V30 11 C 2.884583 2.320068 -0.678127 0
M  V30 12 C 3.734941 2.680851 0.511571 0 CFG=2
M  V30 13 N 4.739960 3.623437 0.067226 0
M  V30 14 C 4.447745 1.426075 1.000797 0
M  V30 15 C 3.420461 0.347467 1.194722 0
M  V30 16 C -0.392608 -1.566163 0.942059 0
M  V30 17 N -1.410513 -1.038597 0.239342 0
M  V30 18 C -2.590563 -1.559368 0.620769 0
M  V30 19 C -3.901091 -1.222231 0.074871 0
M  V30 20 C -3.957586 -0.280406 -0.932086 0
M  V30 21 C -5.165495 0.081543 -1.490150 0
M  V30 22 C -6.336891 -0.509727 -1.032230 0
M  V30 23 Cl -7.933182 -0.122668 -1.672346 0
M  V30 24 C -6.263535 -1.459730 -0.014016 0
M  V30 25 C -5.040683 -1.832512 0.557644 0
M  V30 26 C -2.253681 -2.454425 1.614852 0
M  V30 27 N -0.925979 -2.463162 1.813553 0
M  V30 28 H -2.750827 -4.266891 4.279517 0
M  V30 29 H -2.618552 -5.120438 3.480306 0
M  V30 30 H 1.993129 -3.434405 3.254084 0
M  V30 31 H 0.781988 0.146464 -0.698448 0
M  V30 32 H 3.399723 -1.050354 -0.452418 0
M  V30 33 H 4.211515 0.914684 -1.557779 0
M  V30 34 H 2.503011 0.766126 -2.074377 0
M  V30 35 H 1.808332 2.360156 -0.368688 0
M  V30 36 H 3.002394 3.074783 -1.456256 0
M  V30 37 H 3.125237 3.086952 1.361594 0
M  V30 38 H 5.624145 3.407251 0.565408 0
M  V30 39 H 4.431962 4.570703 0.379446 0
M  V30 40 H 5.159701 1.097305 0.226008 0
M  V30 41 H 4.986616 1.671631 1.940978 0
M  V30 42 H 3.954850 -0.487350 1.722973 0
M  V30 43 H 2.572584 0.716187 1.818822 0
M  V30 44 H -3.087688 0.226620 -1.344611 0
M  V30 45 H -5.287344 0.820268 -2.291788 0
M  V30 46 H -7.174749 -1.925141 0.348932 0
M  V30 47 H -5.005209 -2.576108 1.351586 0
M  V30 48 H -2.939732 -3.068194 2.163876 0
M  V30 END ATOM
M  V30 BEGIN BOND
M  V30 1 1 1 2
M  V30 2 2 2 3
M  V30 3 1 2 4
M  V30 4 2 4 5
M  V30 5 1 5 6
M  V30 6 2 6 7
M  V30 7 1 7 8
M  V30 8 1 8 9
M  V30 9 1 9 10
M  V30 10 1 10 11
M  V30 11 1 11 12
M  V30 12 1 12 13
M  V30 13 1 12 14
M  V30 14 1 14 15
M  V30 15 1 7 16
M  V30 16 2 16 17
M  V30 17 1 17 18
M  V30 18 1 18 19
M  V30 19 2 19 20
M  V30 20 1 20 21
M  V30 21 2 21 22
M  V30 22 1 22 23
M  V30 23 1 22 24
M  V30 24 2 24 25
M  V30 25 2 18 26
M  V30 26 1 26 27
M  V30 27 1 27 4
M  V30 28 1 15 9
M  V30 29 1 27 16
M  V30 30 1 25 19
M  V30 31 1 1 28
M  V30 32 1 1 29
M  V30 33 1 5 30
M  V30 34 1 8 31
M  V30 35 1 9 32 CFG=3
M  V30 36 1 10 33
M  V30 37 1 10 34
M  V30 38 1 11 35
M  V30 39 1 11 36
M  V30 40 1 12 37 CFG=1
M  V30 41 1 13 38
M  V30 42 1 13 39
M  V30 43 1 14 40
M  V30 44 1 14 41
M  V30 45 1 15 42
M  V30 46 1 15 43
M  V30 47 1 20 44
M  V30 48 1 21 45
M  V30 49 1 24 46
M  V30 50 1 25 47
M  V30 51 1 26 48
M  V30 END BOND
M  V30 END CTAB
M  END
>  <Dataset>  (413) 
ChEMBL_Kinases

>  <Ligand_Instance>  (413) 
nan

>  <PDB_ID>  (413) 
nan

>  <Standardized_SMILES>  (413) 
NC(=O)c1cnc(N[C@H]2CC[C@H](N)CC2)c2nc(-c3ccc(Cl)cc3)cn12

>  <Name>  (413) 
nan

>  <Pocket>  (413) 
nan

>  <ATP_Site>  (413) 
nan

>  <Peripheral>  (413) 
nan

>  <Num_H_Atoms_ProtBoundConf>  (413) 
nan

>  <Num_Resolved_Atoms>  (413) 
nan

>  <Num_Not_Resolved_Atoms>  (413) 
nan

$$$$
CHEMBL2381602
     RDKit          3D

  0  0  0  0  0  0  0  0  0  0999 V3000
M  V30 BEGIN CTAB
M  V30 COUNTS 48 51 0 0 0
M  V30 BEGIN ATOM
M  V30 1 N 4.818819 -3.317424 1.282819 0
M  V30 2 C 4.885826 -2.241534 0.379580 0
M  V30 3 O 6.022924 -2.136826 -0.126401 0
M  V30 4 C 3.817136 -1.326928 0.028131 0
M  V30 5 C 4.134261 -0.348672 -0.881535 0
M  V30 6 N 3.183343 0.502640 -1.226704 0
M  V30 7 C 1.903322 0.484798 -0.746303 0
M  V30 8 N 0.917045 1.420545 -1.137774 0
M  V30 9 C -0.427253 1.754713 -0.937313 0 CFG=1
M  V30 10 C -1.374009 0.671120 -1.414301 0
M  V30 11 C -2.743458 1.258892 -1.727770 0
M  V30 12 C -3.049420 2.345094 -0.717638 0 CFG=1
M  V30 13 N -4.462312 2.433536 -0.462644 0
M  V30 14 C -2.336767 1.957818 0.573839 0
M  V30 15 C -0.844255 2.158219 0.450001 0
M  V30 16 C 1.671206 -0.530416 0.162643 0
M  V30 17 N 0.598964 -0.915794 0.869493 0
M  V30 18 C 0.816723 -1.963633 1.642963 0
M  V30 19 C -0.173977 -2.602638 2.526162 0
M  V30 20 C -1.452013 -2.082673 2.570733 0
M  V30 21 C -2.340328 -2.733147 3.425296 0
M  V30 22 C -1.934645 -3.818335 4.159945 0
M  V30 23 Cl -3.051631 -4.648407 5.244062 0
M  V30 24 C -0.650243 -4.317139 4.095772 0
M  V30 25 C 0.238726 -3.690035 3.260092 0
M  V30 26 C 2.121496 -2.306977 1.444308 0
M  V30 27 N 2.586166 -1.419331 0.551345 0
M  V30 28 H 5.569251 -3.606714 1.934747 0
M  V30 29 H 5.546816 -3.626103 1.939658 0
M  V30 30 H 5.086199 -0.177344 -1.367180 0
M  V30 31 H 1.372857 2.105785 -1.827991 0
M  V30 32 H -0.665762 2.674147 -1.567835 0
M  V30 33 H -0.958446 0.241817 -2.340906 0
M  V30 34 H -1.481849 -0.071983 -0.623433 0
M  V30 35 H -3.496742 0.459551 -1.545875 0
M  V30 36 H -2.843550 1.557681 -2.768336 0
M  V30 37 H -2.717185 3.344046 -1.074641 0
M  V30 38 H -4.678600 3.370307 -0.044049 0
M  V30 39 H -4.858884 1.641922 0.053072 0
M  V30 40 H -2.579951 0.904225 0.783102 0
M  V30 41 H -2.780028 2.537877 1.420181 0
M  V30 42 H -0.658373 3.254977 0.611711 0
M  V30 43 H -0.329042 1.647705 1.263638 0
M  V30 44 H -1.780681 -1.224043 1.992447 0
M  V30 45 H -3.349577 -2.398446 3.522609 0
M  V30 46 H -0.331871 -5.177347 4.679218 0
M  V30 47 H 1.239678 -4.075852 3.207722 0
M  V30 48 H 2.564118 -3.136887 1.958065 0
M  V30 END ATOM
M  V30 BEGIN BOND
M  V30 1 1 1 2
M  V30 2 2 2 3
M  V30 3 1 2 4
M  V30 4 2 4 5
M  V30 5 1 5 6
M  V30 6 2 6 7
M  V30 7 1 7 8
M  V30 8 1 8 9
M  V30 9 1 9 10
M  V30 10 1 10 11
M  V30 11 1 11 12
M  V30 12 1 12 13
M  V30 13 1 12 14
M  V30 14 1 14 15
M  V30 15 1 7 16
M  V30 16 2 16 17
M  V30 17 1 17 18
M  V30 18 1 18 19
M  V30 19 2 19 20
M  V30 20 1 20 21
M  V30 21 2 21 22
M  V30 22 1 22 23
M  V30 23 1 22 24
M  V30 24 2 24 25
M  V30 25 2 18 26
M  V30 26 1 26 27
M  V30 27 1 27 4
M  V30 28 1 15 9
M  V30 29 1 27 16
M  V30 30 1 25 19
M  V30 31 1 1 28
M  V30 32 1 1 29
M  V30 33 1 5 30
M  V30 34 1 8 31
M  V30 35 1 9 32 CFG=3
M  V30 36 1 10 33
M  V30 37 1 10 34
M  V30 38 1 11 35
M  V30 39 1 11 36
M  V30 40 1 12 37 CFG=3
M  V30 41 1 13 38
M  V30 42 1 13 39
M  V30 43 1 14 40
M  V30 44 1 14 41
M  V30 45 1 15 42
M  V30 46 1 15 43
M  V30 47 1 20 44
M  V30 48 1 21 45
M  V30 49 1 24 46
M  V30 50 1 25 47
M  V30 51 1 26 48
M  V30 END BOND
M  V30 END CTAB
M  END
>  <Dataset>  (414) 
ChEMBL_Kinases

>  <Ligand_Instance>  (414) 
nan

>  <PDB_ID>  (414) 
nan

>  <Standardized_SMILES>  (414) 
NC(=O)c1cnc(N[C@H]2CC[C@@H](N)CC2)c2nc(-c3ccc(Cl)cc3)cn12

>  <Name>  (414) 
nan

>  <Pocket>  (414) 
nan

>  <ATP_Site>  (414) 
nan

>  <Peripheral>  (414) 
nan

>  <Num_H_Atoms_ProtBoundConf>  (414) 
nan

>  <Num_Resolved_Atoms>  (414) 
nan

>  <Num_Not_Resolved_Atoms>  (414) 
nan

$$$$
CHEMBL2381603
     RDKit          3D

  0  0  0  0  0  0  0  0  0  0999 V3000
M  V30 BEGIN CTAB
M  V30 COUNTS 48 51 0 0 0
M  V30 BEGIN ATOM
M  V30 1 N 1.178119 -5.618496 1.967511 0
M  V30 2 C 1.648787 -4.403126 1.412447 0
M  V30 3 O 2.782922 -4.931364 1.327279 0
M  V30 4 C 1.243084 -3.061057 1.025761 0
M  V30 5 C 2.271820 -2.306014 0.514255 0
M  V30 6 N 1.938233 -1.054054 0.144697 0
M  V30 7 C 0.678017 -0.615471 0.283180 0
M  V30 8 N 0.362403 0.710907 -0.114831 0
M  V30 9 C 1.413508 1.550238 -0.656345 0 CFG=1
M  V30 10 C 0.868451 2.913272 -1.008020 0
M  V30 11 C 1.917101 3.705678 -1.752999 0
M  V30 12 C 3.210818 3.784437 -0.977201 0 CFG=2
M  V30 13 N 4.360970 3.316660 -1.707973 0
M  V30 14 C 3.112699 3.092463 0.360323 0
M  V30 15 C 2.510779 1.739209 0.345633 0
M  V30 16 C -0.326365 -1.406391 0.801533 0
M  V30 17 N -1.652478 -1.237251 1.050791 0
M  V30 18 C -2.179634 -2.358409 1.574722 0
M  V30 19 C -3.572149 -2.559709 1.969696 0
M  V30 20 C -4.448854 -1.505873 1.794566 0
M  V30 21 C -5.779835 -1.697245 2.170761 0
M  V30 22 C -6.216309 -2.908371 2.705729 0
M  V30 23 Cl -7.896923 -3.122338 3.170112 0
M  V30 24 C -5.292706 -3.933113 2.859744 0
M  V30 25 Cl -5.882044 -5.432639 3.533162 0
M  V30 26 C -3.960204 -3.775006 2.495028 0
M  V30 27 C -1.140103 -3.280798 1.661666 0
M  V30 28 N -0.033148 -2.681915 1.189163 0
M  V30 29 H 0.461109 -5.965070 2.616949 0
M  V30 30 H 0.432159 -5.888355 2.630634 0
M  V30 31 H 3.276671 -2.632631 0.395435 0
M  V30 32 H -0.598478 1.094545 -0.028245 0
M  V30 33 H 1.739315 1.044293 -1.590984 0
M  V30 34 H 0.679484 3.418865 -0.028129 0
M  V30 35 H -0.087422 2.901473 -1.533904 0
M  V30 36 H 2.137003 3.195677 -2.712617 0
M  V30 37 H 1.492091 4.698032 -2.003532 0
M  V30 38 H 3.376842 4.861020 -0.759080 0
M  V30 39 H 4.525399 2.292811 -1.654375 0
M  V30 40 H 5.218254 3.883684 -1.524149 0
M  V30 41 H 4.165551 2.995829 0.741771 0
M  V30 42 H 2.627971 3.773316 1.118445 0
M  V30 43 H 3.292608 0.943048 0.248688 0
M  V30 44 H 2.044856 1.544718 1.357937 0
M  V30 45 H -4.184162 -0.536395 1.385831 0
M  V30 46 H -6.491321 -0.867369 2.037656 0
M  V30 47 H -3.250564 -4.574012 2.618214 0
M  V30 48 H -1.230299 -4.274917 2.037788 0
M  V30 END ATOM
M  V30 BEGIN BOND
M  V30 1 1 1 2
M  V30 2 2 2 3
M  V30 3 1 2 4
M  V30 4 2 4 5
M  V30 5 1 5 6
M  V30 6 2 6 7
M  V30 7 1 7 8
M  V30 8 1 8 9
M  V30 9 1 9 10
M  V30 10 1 10 11
M  V30 11 1 11 12
M  V30 12 1 12 13
M  V30 13 1 12 14
M  V30 14 1 14 15
M  V30 15 1 7 16
M  V30 16 2 16 17
M  V30 17 1 17 18
M  V30 18 1 18 19
M  V30 19 2 19 20
M  V30 20 1 20 21
M  V30 21 2 21 22
M  V30 22 1 22 23
M  V30 23 1 22 24
M  V30 24 1 24 25
M  V30 25 2 24 26
M  V30 26 2 18 27
M  V30 27 1 27 28
M  V30 28 1 28 4
M  V30 29 1 15 9
M  V30 30 1 28 16
M  V30 31 1 26 19
M  V30 32 1 1 29
M  V30 33 1 1 30
M  V30 34 1 5 31
M  V30 35 1 8 32
M  V30 36 1 9 33 CFG=3
M  V30 37 1 10 34
M  V30 38 1 10 35
M  V30 39 1 11 36
M  V30 40 1 11 37
M  V30 41 1 12 38 CFG=1
M  V30 42 1 13 39
M  V30 43 1 13 40
M  V30 44 1 14 41
M  V30 45 1 14 42
M  V30 46 1 15 43
M  V30 47 1 15 44
M  V30 48 1 20 45
M  V30 49 1 21 46
M  V30 50 1 26 47
M  V30 51 1 27 48
M  V30 END BOND
M  V30 END CTAB
M  END
>  <Dataset>  (415) 
ChEMBL_Kinases

>  <Ligand_Instance>  (415) 
nan

>  <PDB_ID>  (415) 
nan

>  <Standardized_SMILES>  (415) 
NC(=O)c1cnc(N[C@H]2CC[C@H](N)CC2)c2nc(-c3ccc(Cl)c(Cl)c3)cn12

>  <Name>  (415) 
nan

>  <Pocket>  (415) 
nan

>  <ATP_Site>  (415) 
nan

>  <Peripheral>  (415) 
nan

>  <Num_H_Atoms_ProtBoundConf>  (415) 
nan

>  <Num_Resolved_Atoms>  (415) 
nan

>  <Num_Not_Resolved_Atoms>  (415) 
nan

$$$$
CHEMBL3698658
     RDKit          3D

  0  0  0  0  0  0  0  0  0  0999 V3000
M  V30 BEGIN CTAB
M  V30 COUNTS 61 66 0 0 0
M  V30 BEGIN ATOM
M  V30 1 C 4.973146 -4.116289 3.556332 0
M  V30 2 C 4.372284 -5.223006 2.965067 0
M  V30 3 C 3.484761 -4.933147 1.963537 0
M  V30 4 C 3.157243 -3.670266 1.516939 0
M  V30 5 C 3.761847 -2.587810 2.113952 0
M  V30 6 C 4.662530 -2.834632 3.127202 0
M  V30 7 C 3.268697 -1.462608 1.493618 0
M  V30 8 C 3.526183 -0.104975 1.688027 0
M  V30 9 N 2.849849 0.724582 0.884524 0
M  V30 10 C 1.976474 0.319388 -0.054462 0
M  V30 11 N 1.262912 1.207414 -0.906542 0
M  V30 12 C 0.026165 1.711384 -0.417148 0
M  V30 13 C -0.475196 1.379437 0.819325 0
M  V30 14 C -1.662074 1.828449 1.357518 0
M  V30 15 C -2.425643 2.683234 0.609076 0
M  V30 16 N -3.654309 3.201091 1.079609 0
M  V30 17 C -4.201760 3.013790 2.395963 0
M  V30 18 C -5.441245 2.139483 2.267849 0
M  V30 19 N -6.447499 2.745137 1.434788 0
M  V30 20 C -5.943683 3.306276 0.215407 0
M  V30 21 C -4.608092 4.001770 0.373079 0
M  V30 22 C -1.940098 3.026940 -0.631489 0
M  V30 23 N -0.764321 2.553036 -1.108461 0
M  V30 24 N 1.729610 -1.007327 -0.239110 0
M  V30 25 C 2.377959 -1.903313 0.537687 0
M  V30 26 N 2.298061 -3.251103 0.538666 0
M  V30 27 C 1.479548 -4.118851 -0.310564 0
M  V30 28 C 2.315200 -4.601371 -1.470195 0
M  V30 29 C 1.439716 -4.835021 -2.682019 0
M  V30 30 C 0.967663 -3.445456 -3.065649 0
M  V30 31 C -0.057882 -3.048625 -2.033645 0
M  V30 32 C 0.170930 -3.555703 -0.667289 0
M  V30 33 H 5.687615 -4.199844 4.352929 0
M  V30 34 H 4.617066 -6.218684 3.303424 0
M  V30 35 H 3.004612 -5.784874 1.488597 0
M  V30 36 H 5.122780 -1.954211 3.577902 0
M  V30 37 H 4.227453 0.202966 2.442963 0
M  V30 38 H 1.546577 1.539735 -1.867954 0
M  V30 39 H 0.135711 0.693886 1.420468 0
M  V30 40 H -1.931694 1.489679 2.330058 0
M  V30 41 H -3.525126 2.466261 3.072082 0
M  V30 42 H -4.496378 3.982971 2.893784 0
M  V30 43 H -5.123988 1.130186 1.939314 0
M  V30 44 H -5.863477 2.069703 3.297863 0
M  V30 45 H -7.116139 1.960376 1.175914 0
M  V30 46 H -5.901930 2.515431 -0.566199 0
M  V30 47 H -6.685780 4.043951 -0.158729 0
M  V30 48 H -4.251810 4.225710 -0.649313 0
M  V30 49 H -4.774376 5.002488 0.856792 0
M  V30 50 H -2.437095 3.689151 -1.322705 0
M  V30 51 H 1.310394 -5.041921 0.303738 0
M  V30 52 H 3.091518 -3.858136 -1.744532 0
M  V30 53 H 2.853824 -5.536383 -1.266827 0
M  V30 54 H 0.557900 -5.422325 -2.319088 0
M  V30 55 H 1.983056 -5.348833 -3.479458 0
M  V30 56 H 1.845448 -2.741616 -2.983177 0
M  V30 57 H 0.526038 -3.402902 -4.083560 0
M  V30 58 H -1.052432 -3.379383 -2.460412 0
M  V30 59 H -0.151791 -1.924055 -2.093724 0
M  V30 60 H -0.660968 -4.282606 -0.438411 0
M  V30 61 H -0.043800 -2.719245 0.062098 0
M  V30 END ATOM
M  V30 BEGIN BOND
M  V30 1 2 1 2
M  V30 2 1 2 3
M  V30 3 2 3 4
M  V30 4 1 4 5
M  V30 5 2 5 6
M  V30 6 1 5 7
M  V30 7 2 7 8
M  V30 8 1 8 9
M  V30 9 2 9 10
M  V30 10 1 10 11
M  V30 11 1 11 12
M  V30 12 2 12 13
M  V30 13 1 13 14
M  V30 14 2 14 15
M  V30 15 1 15 16
M  V30 16 1 16 17
M  V30 17 1 17 18
M  V30 18 1 18 19
M  V30 19 1 19 20
M  V30 20 1 20 21
M  V30 21 1 15 22
M  V30 22 2 22 23
M  V30 23 1 10 24
M  V30 24 2 24 25
M  V30 25 1 25 26
M  V30 26 1 26 27
M  V30 27 1 27 28
M  V30 28 1 28 29
M  V30 29 1 29 30
M  V30 30 1 30 31
M  V30 31 1 31 32
M  V30 32 1 6 1
M  V30 33 1 25 7
M  V30 34 1 32 27
M  V30 35 1 26 4
M  V30 36 1 23 12
M  V30 37 1 21 16
M  V30 38 1 1 33
M  V30 39 1 2 34
M  V30 40 1 3 35
M  V30 41 1 6 36
M  V30 42 1 8 37
M  V30 43 1 11 38
M  V30 44 1 13 39
M  V30 45 1 14 40
M  V30 46 1 17 41
M  V30 47 1 17 42
M  V30 48 1 18 43
M  V30 49 1 18 44
M  V30 50 1 19 45
M  V30 51 1 20 46
M  V30 52 1 20 47
M  V30 53 1 21 48
M  V30 54 1 21 49
M  V30 55 1 22 50
M  V30 56 1 27 51
M  V30 57 1 28 52
M  V30 58 1 28 53
M  V30 59 1 29 54
M  V30 60 1 29 55
M  V30 61 1 30 56
M  V30 62 1 30 57
M  V30 63 1 31 58
M  V30 64 1 31 59
M  V30 65 1 32 60
M  V30 66 1 32 61
M  V30 END BOND
M  V30 END CTAB
M  END
>  <Dataset>  (416) 
ChEMBL_Kinases

>  <Ligand_Instance>  (416) 
nan

>  <PDB_ID>  (416) 
nan

>  <Standardized_SMILES>  (416) 
c1ccc2c(c1)c1cnc(Nc3ccc(N4CCNCC4)cn3)nc1n2C1CCCCC1

>  <Name>  (416) 
nan

>  <Pocket>  (416) 
nan

>  <ATP_Site>  (416) 
nan

>  <Peripheral>  (416) 
nan

>  <Num_H_Atoms_ProtBoundConf>  (416) 
nan

>  <Num_Resolved_Atoms>  (416) 
nan

>  <Num_Not_Resolved_Atoms>  (416) 
nan

$$$$
CHEMBL2381604
     RDKit          3D

  0  0  0  0  0  0  0  0  0  0999 V3000
M  V30 BEGIN CTAB
M  V30 COUNTS 51 55 0 0 0
M  V30 BEGIN ATOM
M  V30 1 N 2.363724 -0.218575 5.825136 0
M  V30 2 C 1.424146 -0.663909 4.852422 0
M  V30 3 O 0.412085 -1.272149 5.287117 0
M  V30 4 C 1.707883 -0.382359 3.449990 0
M  V30 5 C 2.841650 0.293404 3.027356 0
M  V30 6 N 3.068263 0.533518 1.731657 0
M  V30 7 C 2.216046 0.136565 0.769321 0
M  V30 8 N 2.447460 0.386822 -0.611785 0
M  V30 9 C 3.648389 1.097334 -0.996949 0 CFG=1
M  V30 10 C 3.686874 1.250751 -2.521112 0
M  V30 11 C 2.433744 1.966258 -2.951040 0
M  V30 12 C 2.287061 3.192653 -2.079381 0
M  V30 13 N 3.520977 3.467910 -1.358113 0
M  V30 14 C 3.708798 2.444101 -0.334203 0
M  V30 15 C 1.093720 -0.534266 1.209382 0
M  V30 16 N 0.090280 -1.034354 0.452681 0
M  V30 17 C -0.829981 -1.620486 1.229119 0
M  V30 18 C -2.058350 -2.275184 0.792965 0
M  V30 19 C -2.297686 -2.290790 -0.582926 0
M  V30 20 C -3.467072 -2.915373 -0.985317 0
M  V30 21 C -4.371811 -3.502959 -0.093752 0
M  V30 22 C -5.522018 -4.111981 -0.551798 0
M  V30 23 C -6.393387 -4.684032 0.376570 0
M  V30 24 C -6.128769 -4.652418 1.732151 0
M  V30 25 C -4.955821 -4.021708 2.088134 0
M  V30 26 C -4.039164 -3.431328 1.243008 0
M  V30 27 C -2.898584 -2.830814 1.735581 0
M  V30 28 C -0.341522 -1.456115 2.509389 0
M  V30 29 N 0.818238 -0.802482 2.511554 0
M  V30 30 H 2.260347 0.469203 6.606902 0
M  V30 31 H 2.174767 0.471836 6.570415 0
M  V30 32 H 3.560665 0.634644 3.766237 0
M  V30 33 H 1.744562 0.049517 -1.291722 0
M  V30 34 H 4.504550 0.472361 -0.658108 0
M  V30 35 H 4.543384 1.923005 -2.754089 0
M  V30 36 H 3.789224 0.239927 -2.946335 0
M  V30 37 H 1.539714 1.315427 -2.879504 0
M  V30 38 H 2.534582 2.273521 -4.026943 0
M  V30 39 H 1.426727 3.074154 -1.362130 0
M  V30 40 H 2.070948 4.086004 -2.716360 0
M  V30 41 H 3.391931 4.422842 -0.941607 0
M  V30 42 H 4.705653 2.637417 0.111241 0
M  V30 43 H 2.963135 2.560027 0.488050 0
M  V30 44 H -1.608319 -1.842964 -1.263478 0
M  V30 45 H -3.684657 -2.945126 -2.056919 0
M  V30 46 H -5.762805 -4.156792 -1.600520 0
M  V30 47 H -7.322017 -5.182858 0.088567 0
M  V30 48 H -6.776227 -5.082835 2.483293 0
M  V30 49 H -4.747051 -3.997472 3.166494 0
M  V30 50 H -2.674889 -2.795952 2.787882 0
M  V30 51 H -0.851693 -1.820625 3.396139 0
M  V30 END ATOM
M  V30 BEGIN BOND
M  V30 1 1 1 2
M  V30 2 2 2 3
M  V30 3 1 2 4
M  V30 4 2 4 5
M  V30 5 1 5 6
M  V30 6 2 6 7
M  V30 7 1 7 8
M  V30 8 1 8 9
M  V30 9 1 9 10
M  V30 10 1 10 11
M  V30 11 1 11 12
M  V30 12 1 12 13
M  V30 13 1 13 14
M  V30 14 1 7 15
M  V30 15 2 15 16
M  V30 16 1 16 17
M  V30 17 1 17 18
M  V30 18 2 18 19
M  V30 19 1 19 20
M  V30 20 2 20 21
M  V30 21 1 21 22
M  V30 22 2 22 23
M  V30 23 1 23 24
M  V30 24 2 24 25
M  V30 25 1 25 26
M  V30 26 2 26 27
M  V30 27 2 17 28
M  V30 28 1 28 29
M  V30 29 1 29 4
M  V30 30 1 14 9
M  V30 31 1 29 15
M  V30 32 1 27 18
M  V30 33 1 26 21
M  V30 34 1 1 30
M  V30 35 1 1 31
M  V30 36 1 5 32
M  V30 37 1 8 33
M  V30 38 1 9 34 CFG=1
M  V30 39 1 10 35
M  V30 40 1 10 36
M  V30 41 1 11 37
M  V30 42 1 11 38
M  V30 43 1 12 39
M  V30 44 1 12 40
M  V30 45 1 13 41
M  V30 46 1 14 42
M  V30 47 1 14 43
M  V30 48 1 19 44
M  V30 49 1 20 45
M  V30 50 1 22 46
M  V30 51 1 23 47
M  V30 52 1 24 48
M  V30 53 1 25 49
M  V30 54 1 27 50
M  V30 55 1 28 51
M  V30 END BOND
M  V30 END CTAB
M  END
>  <Dataset>  (417) 
ChEMBL_Kinases

>  <Ligand_Instance>  (417) 
nan

>  <PDB_ID>  (417) 
nan

>  <Standardized_SMILES>  (417) 
NC(=O)c1cnc(N[C@H]2CCCNC2)c2nc(-c3ccc4ccccc4c3)cn12

>  <Name>  (417) 
nan

>  <Pocket>  (417) 
nan

>  <ATP_Site>  (417) 
nan

>  <Peripheral>  (417) 
nan

>  <Num_H_Atoms_ProtBoundConf>  (417) 
nan

>  <Num_Resolved_Atoms>  (417) 
nan

>  <Num_Not_Resolved_Atoms>  (417) 
nan

$$$$
CHEMBL2381605
     RDKit          3D

  0  0  0  0  0  0  0  0  0  0999 V3000
M  V30 BEGIN CTAB
M  V30 COUNTS 45 48 0 0 0
M  V30 BEGIN ATOM
M  V30 1 N 1.051854 -5.014938 4.381407 0
M  V30 2 C 0.306162 -4.319723 3.390132 0
M  V30 3 O -0.651267 -5.010948 2.962578 0
M  V30 4 C 0.696164 -2.972523 2.995637 0
M  V30 5 C 1.783136 -2.372236 3.579534 0
M  V30 6 N 2.181570 -1.151449 3.259407 0
M  V30 7 C 1.537644 -0.420426 2.333416 0
M  V30 8 N 1.921022 0.908607 1.956378 0
M  V30 9 C 1.378977 1.833827 0.982550 0 CFG=1
M  V30 10 C 2.177846 3.118330 1.081126 0
M  V30 11 C 3.574695 2.816932 0.592734 0
M  V30 12 C 3.486279 2.694248 -0.915488 0
M  V30 13 N 2.152367 2.359392 -1.307766 0
M  V30 14 C 1.513914 1.367221 -0.444431 0
M  V30 15 C 0.434457 -1.036195 1.744493 0
M  V30 16 N -0.451848 -0.664033 0.813518 0
M  V30 17 C -1.367622 -1.612623 0.560759 0
M  V30 18 C -2.471303 -1.535168 -0.393322 0
M  V30 19 C -3.316054 -2.619865 -0.514921 0
M  V30 20 C -4.372666 -2.592290 -1.403528 0
M  V30 21 C -4.517525 -1.434772 -2.139191 0
M  V30 22 F -5.576625 -1.439787 -3.012516 0
M  V30 23 C -3.682743 -0.340882 -2.030727 0
M  V30 24 C -2.632257 -0.385022 -1.138374 0
M  V30 25 C -1.049293 -2.669267 1.386236 0
M  V30 26 N 0.034958 -2.276466 2.074169 0
M  V30 27 H 1.789487 -5.667414 4.035097 0
M  V30 28 H 1.020866 -5.014757 5.421720 0
M  V30 29 H 2.397937 -2.854650 4.348508 0
M  V30 30 H 2.761083 1.223951 2.535821 0
M  V30 31 H 0.290942 2.028941 1.190759 0
M  V30 32 H 2.191160 3.365597 2.176197 0
M  V30 33 H 1.707005 3.945359 0.536744 0
M  V30 34 H 3.852089 1.813810 0.965266 0
M  V30 35 H 4.307975 3.586287 0.908076 0
M  V30 36 H 3.722565 3.700281 -1.334915 0
M  V30 37 H 4.229114 1.949608 -1.297687 0
M  V30 38 H 1.559536 3.214482 -1.395285 0
M  V30 39 H 0.484312 1.257624 -0.905921 0
M  V30 40 H 2.013394 0.408050 -0.577673 0
M  V30 41 H -3.193879 -3.538648 0.074961 0
M  V30 42 H -5.028624 -3.447796 -1.490914 0
M  V30 43 H -3.855922 0.552742 -2.649410 0
M  V30 44 H -1.946965 0.443574 -1.012410 0
M  V30 45 H -1.615083 -3.569989 1.397402 0
M  V30 END ATOM
M  V30 BEGIN BOND
M  V30 1 1 1 2
M  V30 2 2 2 3
M  V30 3 1 2 4
M  V30 4 2 4 5
M  V30 5 1 5 6
M  V30 6 2 6 7
M  V30 7 1 7 8
M  V30 8 1 8 9
M  V30 9 1 9 10
M  V30 10 1 10 11
M  V30 11 1 11 12
M  V30 12 1 12 13
M  V30 13 1 13 14
M  V30 14 1 7 15
M  V30 15 2 15 16
M  V30 16 1 16 17
M  V30 17 1 17 18
M  V30 18 2 18 19
M  V30 19 1 19 20
M  V30 20 2 20 21
M  V30 21 1 21 22
M  V30 22 1 21 23
M  V30 23 2 23 24
M  V30 24 2 17 25
M  V30 25 1 25 26
M  V30 26 1 26 4
M  V30 27 1 14 9
M  V30 28 1 26 15
M  V30 29 1 24 18
M  V30 30 1 1 27
M  V30 31 1 1 28
M  V30 32 1 5 29
M  V30 33 1 8 30
M  V30 34 1 9 31 CFG=1
M  V30 35 1 10 32
M  V30 36 1 10 33
M  V30 37 1 11 34
M  V30 38 1 11 35
M  V30 39 1 12 36
M  V30 40 1 12 37
M  V30 41 1 13 38
M  V30 42 1 14 39
M  V30 43 1 14 40
M  V30 44 1 19 41
M  V30 45 1 20 42
M  V30 46 1 23 43
M  V30 47 1 24 44
M  V30 48 1 25 45
M  V30 END BOND
M  V30 END CTAB
M  END
>  <Dataset>  (418) 
ChEMBL_Kinases

>  <Ligand_Instance>  (418) 
nan

>  <PDB_ID>  (418) 
nan

>  <Standardized_SMILES>  (418) 
NC(=O)c1cnc(N[C@H]2CCCNC2)c2nc(-c3ccc(F)cc3)cn12

>  <Name>  (418) 
nan

>  <Pocket>  (418) 
nan

>  <ATP_Site>  (418) 
nan

>  <Peripheral>  (418) 
nan

>  <Num_H_Atoms_ProtBoundConf>  (418) 
nan

>  <Num_Resolved_Atoms>  (418) 
nan

>  <Num_Not_Resolved_Atoms>  (418) 
nan

$$$$
CHEMBL2386749
     RDKit          3D

  0  0  0  0  0  0  0  0  0  0999 V3000
M  V30 BEGIN CTAB
M  V30 COUNTS 40 43 0 0 0
M  V30 BEGIN ATOM
M  V30 1 C 0.760116 -4.178230 4.153434 0
M  V30 2 O 1.704086 -3.410264 3.395489 0
M  V30 3 C 1.789220 -3.538785 2.025543 0
M  V30 4 N 1.586354 -4.679676 1.475674 0
M  V30 5 C 2.102524 -2.466679 1.061217 0
M  V30 6 N 2.739677 -2.217050 0.102019 0
M  V30 7 C 2.806649 -1.093978 -0.569644 0
M  V30 8 C 3.568663 -0.789846 -1.700484 0
M  V30 9 C 3.487706 0.456048 -2.230458 0
M  V30 10 C 2.713024 1.498317 -1.768243 0
M  V30 11 N 2.587218 2.733019 -2.242752 0
M  V30 12 C 1.797704 3.671111 -1.714239 0
M  V30 13 N 1.077202 3.369421 -0.639853 0
M  V30 14 C 1.083299 2.153562 -0.023996 0
M  V30 15 N 0.301116 1.827261 1.112692 0
M  V30 16 C -0.950716 1.138490 1.277577 0
M  V30 17 C -1.423880 0.996577 2.567448 0
M  V30 18 C -2.603241 0.305818 2.732560 0
M  V30 19 C -3.345045 -0.252948 1.709401 0
M  V30 20 O -4.531765 -0.949666 1.865390 0
M  V30 21 C -2.849209 -0.095125 0.425387 0
M  V30 22 N -3.467292 -0.605951 -0.757683 0 CHG=1 VAL=4
M  V30 23 O -3.312115 -0.065332 -1.848823 0
M  V30 24 O -4.239771 -1.724091 -0.631487 0 CHG=-1 VAL=1
M  V30 25 C -1.672063 0.591474 0.233464 0
M  V30 26 C 1.949337 1.237098 -0.656463 0
M  V30 27 C 2.027293 -0.054163 -0.097181 0
M  V30 28 S 1.262110 -0.822560 1.300340 0
M  V30 29 H 0.769726 -3.914476 5.225233 0
M  V30 30 H -0.253332 -3.841529 3.780752 0
M  V30 31 H 0.868597 -5.254050 4.007543 0
M  V30 32 H 1.357427 -5.505645 2.061991 0
M  V30 33 H 4.233019 -1.496723 -2.192636 0
M  V30 34 H 4.080679 0.715891 -3.123831 0
M  V30 35 H 1.782462 4.636336 -2.186128 0
M  V30 36 H 0.818459 2.201818 1.910436 0
M  V30 37 H -0.941155 1.383795 3.432964 0
M  V30 38 H -2.994784 0.183054 3.741603 0
M  V30 39 H -5.274591 -0.766072 1.213767 0
M  V30 40 H -1.191231 0.775301 -0.722196 0
M  V30 END ATOM
M  V30 BEGIN BOND
M  V30 1 1 1 2
M  V30 2 1 2 3
M  V30 3 2 3 4 CFG=2
M  V30 4 1 3 5
M  V30 5 2 5 6
M  V30 6 1 6 7
M  V30 7 2 7 8
M  V30 8 1 8 9
M  V30 9 2 9 10
M  V30 10 1 10 11
M  V30 11 2 11 12
M  V30 12 1 12 13
M  V30 13 2 13 14
M  V30 14 1 14 15
M  V30 15 1 15 16
M  V30 16 2 16 17
M  V30 17 1 17 18
M  V30 18 2 18 19
M  V30 19 1 19 20
M  V30 20 1 19 21
M  V30 21 1 21 22
M  V30 22 2 22 23
M  V30 23 1 22 24
M  V30 24 2 21 25
M  V30 25 1 14 26
M  V30 26 2 26 27
M  V30 27 1 27 28
M  V30 28 1 28 5
M  V30 29 1 27 7
M  V30 30 1 26 10
M  V30 31 1 25 16
M  V30 32 1 1 29
M  V30 33 1 1 30
M  V30 34 1 1 31
M  V30 35 1 4 32
M  V30 36 1 8 33
M  V30 37 1 9 34
M  V30 38 1 12 35
M  V30 39 1 15 36
M  V30 40 1 17 37
M  V30 41 1 18 38
M  V30 42 1 20 39
M  V30 43 1 25 40
M  V30 END BOND
M  V30 END CTAB
M  END
>  <Dataset>  (419) 
ChEMBL_Kinases

>  <Ligand_Instance>  (419) 
nan

>  <PDB_ID>  (419) 
nan

>  <Standardized_SMILES>  (419) 
COC(=N)c1nc2ccc3ncnc(Nc4ccc(O)c([N+](=O)[O-])c4)c3c2s1

>  <Name>  (419) 
nan

>  <Pocket>  (419) 
nan

>  <ATP_Site>  (419) 
nan

>  <Peripheral>  (419) 
nan

>  <Num_H_Atoms_ProtBoundConf>  (419) 
nan

>  <Num_Resolved_Atoms>  (419) 
nan

>  <Num_Not_Resolved_Atoms>  (419) 
nan

$$$$
CHEMBL4464251
     RDKit          3D

  0  0  0  0  0  0  0  0  0  0999 V3000
M  V30 BEGIN CTAB
M  V30 COUNTS 35 37 0 0 0
M  V30 BEGIN ATOM
M  V30 1 C -0.299779 -3.034463 3.942074 0
M  V30 2 C 0.581285 -2.899651 2.695761 0
M  V30 3 C 0.290877 -4.200131 1.929489 0
M  V30 4 N 0.336693 -1.777003 1.901449 0
M  V30 5 C 0.088296 -0.636796 1.094687 0
M  V30 6 N 0.714712 -0.272964 -0.031556 0
M  V30 7 C 0.480850 0.792727 -0.784503 0
M  V30 8 C 1.254258 1.052344 -1.989869 0
M  V30 9 C 2.249154 0.171067 -2.352525 0
M  V30 10 C 2.901716 0.547718 -3.523296 0
M  V30 11 N 2.604506 1.658052 -4.242708 0
M  V30 12 C 1.616428 2.483794 -3.834186 0
M  V30 13 C 0.905163 2.194711 -2.676795 0
M  V30 14 N -0.502432 1.561410 -0.325042 0
M  V30 15 C -1.228100 1.346413 0.777978 0
M  V30 16 C -2.196721 2.288439 1.049664 0
M  V30 17 N -2.931931 2.062779 2.174395 0
M  V30 18 C -2.708169 0.986804 2.949800 0
M  V30 19 C -1.720563 0.089894 2.610739 0
M  V30 20 C -0.916298 0.214968 1.499248 0
M  V30 21 H -0.210236 -2.187141 4.622983 0
M  V30 22 H 0.029735 -3.974114 4.428610 0
M  V30 23 H -1.341819 -3.207103 3.581645 0
M  V30 24 H 1.638491 -3.017300 3.083656 0
M  V30 25 H -0.701973 -4.609464 2.150289 0
M  V30 26 H 0.286325 -3.987478 0.829563 0
M  V30 27 H 1.039592 -4.983426 2.134114 0
M  V30 28 H 1.136153 -2.165538 1.305725 0
M  V30 29 H 2.512320 -0.709929 -1.815260 0
M  V30 30 H 3.715084 -0.057588 -3.932365 0
M  V30 31 H 1.380645 3.363872 -4.404123 0
M  V30 32 H 0.096418 2.845736 -2.318209 0
M  V30 33 H -2.352601 3.138618 0.411268 0
M  V30 34 H -3.291312 0.798090 3.851454 0
M  V30 35 H -1.562601 -0.748802 3.235139 0
M  V30 END ATOM
M  V30 BEGIN BOND
M  V30 1 1 1 2
M  V30 2 1 2 3
M  V30 3 1 2 4
M  V30 4 1 4 5
M  V30 5 2 5 6
M  V30 6 1 6 7
M  V30 7 1 7 8
M  V30 8 2 8 9
M  V30 9 1 9 10
M  V30 10 2 10 11
M  V30 11 1 11 12
M  V30 12 2 12 13
M  V30 13 2 7 14
M  V30 14 1 14 15
M  V30 15 2 15 16
M  V30 16 1 16 17
M  V30 17 2 17 18
M  V30 18 1 18 19
M  V30 19 2 19 20
M  V30 20 1 20 5
M  V30 21 1 13 8
M  V30 22 1 20 15
M  V30 23 1 1 21
M  V30 24 1 1 22
M  V30 25 1 1 23
M  V30 26 1 2 24
M  V30 27 1 3 25
M  V30 28 1 3 26
M  V30 29 1 3 27
M  V30 30 1 4 28
M  V30 31 1 9 29
M  V30 32 1 10 30
M  V30 33 1 12 31
M  V30 34 1 13 32
M  V30 35 1 16 33
M  V30 36 1 18 34
M  V30 37 1 19 35
M  V30 END BOND
M  V30 END CTAB
M  END
>  <Dataset>  (420) 
ChEMBL_Kinases

>  <Ligand_Instance>  (420) 
nan

>  <PDB_ID>  (420) 
nan

>  <Standardized_SMILES>  (420) 
CC(C)Nc1nc(-c2ccncc2)nc2cnccc12

>  <Name>  (420) 
nan

>  <Pocket>  (420) 
nan

>  <ATP_Site>  (420) 
nan

>  <Peripheral>  (420) 
nan

>  <Num_H_Atoms_ProtBoundConf>  (420) 
nan

>  <Num_Resolved_Atoms>  (420) 
nan

>  <Num_Not_Resolved_Atoms>  (420) 
nan

$$$$
CHEMBL4464030
     RDKit          3D

  0  0  0  0  0  0  0  0  0  0999 V3000
M  V30 BEGIN CTAB
M  V30 COUNTS 63 67 0 0 0
M  V30 BEGIN ATOM
M  V30 1 C 0.361218 3.568632 1.585929 0
M  V30 2 C 1.050396 2.254082 1.311875 0
M  V30 3 C 2.184204 2.135360 2.299018 0
M  V30 4 C 3.380738 1.461541 2.041192 0
M  V30 5 N 4.217970 1.510780 3.091589 0
M  V30 6 C 5.539979 0.917657 3.163972 0
M  V30 7 C 3.544346 2.216796 4.008880 0
M  V30 8 N 2.341468 2.587126 3.542223 0
M  V30 9 N 0.205245 1.119327 1.505486 0
M  V30 10 C -0.040961 0.262918 0.495881 0
M  V30 11 N 0.503015 0.428632 -0.816893 0
M  V30 12 C 0.262156 1.022368 -2.115211 0
M  V30 13 C 1.391817 0.760341 -3.086183 0
M  V30 14 C -0.024993 2.484092 -2.093478 0
M  V30 15 C -0.975994 0.315901 -2.660320 0
M  V30 16 N -0.824427 -0.825292 0.617938 0
M  V30 17 C -1.402915 -1.091526 1.801682 0
M  V30 18 C -2.202565 -2.204515 1.923652 0
M  V30 19 C -2.485018 -3.143900 0.850004 0
M  V30 20 C -3.285031 -4.259101 0.983217 0
M  V30 21 C -3.347734 -4.937134 -0.216189 0
M  V30 22 C -2.575280 -4.229662 -1.101159 0
M  V30 23 N -2.088767 -3.184031 -0.429615 0
M  V30 24 C -2.628542 -4.944606 -2.403366 0 CFG=1
M  V30 25 C -1.225784 -5.447313 -2.770521 0
M  V30 26 N -3.473179 -6.081584 -2.180859 0
M  V30 27 C -3.940595 -6.115605 -0.838024 0
M  V30 28 O -4.691917 -6.959436 -0.295268 0
M  V30 29 C -2.747548 -2.388901 3.176560 0
M  V30 30 C -2.523058 -1.538594 4.237664 0
M  V30 31 C -1.714299 -0.434768 4.069727 0
M  V30 32 C -1.156037 -0.219038 2.841357 0
M  V30 33 C -0.351440 0.894667 2.708539 0
M  V30 34 O -0.159073 1.655828 3.683648 0
M  V30 35 H -0.624414 3.630127 1.120878 0
M  V30 36 H 0.320653 3.803857 2.672129 0
M  V30 37 H 0.999935 4.359722 1.133124 0
M  V30 38 H 1.525042 2.310605 0.334481 0
M  V30 39 H 3.647304 0.944695 1.116886 0
M  V30 40 H 5.790949 0.578084 4.185231 0
M  V30 41 H 5.614184 0.015709 2.527670 0
M  V30 42 H 6.298826 1.625061 2.771661 0
M  V30 43 H 3.913132 2.461351 4.999365 0
M  V30 44 H 1.394379 -0.101481 -0.708441 0
M  V30 45 H 2.151922 1.582493 -3.017265 0
M  V30 46 H 1.838884 -0.247696 -2.990732 0
M  V30 47 H 0.939602 0.844141 -4.095906 0
M  V30 48 H 0.873282 3.087116 -2.413449 0
M  V30 49 H -0.826723 2.755433 -2.841889 0
M  V30 50 H -0.365273 2.902855 -1.148197 0
M  V30 51 H -1.730353 0.218121 -1.852492 0
M  V30 52 H -0.637628 -0.672069 -3.043219 0
M  V30 53 H -1.457784 0.931829 -3.445328 0
M  V30 54 H -3.796975 -4.573249 1.887084 0
M  V30 55 H -1.467783 -2.495289 -0.896818 0
M  V30 56 H -2.987511 -4.241453 -3.165565 0
M  V30 57 H -0.705742 -4.732502 -3.440619 0
M  V30 58 H -0.585511 -5.561184 -1.864395 0
M  V30 59 H -1.279217 -6.420257 -3.288342 0
M  V30 60 H -3.698927 -6.778643 -2.926875 0
M  V30 61 H -3.397381 -3.242329 3.379608 0
M  V30 62 H -2.976789 -1.732424 5.198419 0
M  V30 63 H -1.542941 0.223765 4.900340 0
M  V30 END ATOM
M  V30 BEGIN BOND
M  V30 1 1 1 2
M  V30 2 1 2 3
M  V30 3 2 3 4
M  V30 4 1 4 5
M  V30 5 1 5 6
M  V30 6 1 5 7
M  V30 7 2 7 8
M  V30 8 1 2 9
M  V30 9 1 9 10
M  V30 10 1 10 11
M  V30 11 1 11 12
M  V30 12 1 12 13
M  V30 13 1 12 14
M  V30 14 1 12 15
M  V30 15 2 10 16
M  V30 16 1 16 17
M  V30 17 2 17 18
M  V30 18 1 18 19
M  V30 19 2 19 20
M  V30 20 1 20 21
M  V30 21 2 21 22
M  V30 22 1 22 23
M  V30 23 1 22 24
M  V30 24 1 24 25
M  V30 25 1 24 26
M  V30 26 1 26 27
M  V30 27 2 27 28
M  V30 28 1 18 29
M  V30 29 2 29 30
M  V30 30 1 30 31
M  V30 31 2 31 32
M  V30 32 1 32 33
M  V30 33 2 33 34
M  V30 34 1 8 3
M  V30 35 1 33 9
M  V30 36 1 32 17
M  V30 37 1 23 19
M  V30 38 1 27 21
M  V30 39 1 1 35
M  V30 40 1 1 36
M  V30 41 1 1 37
M  V30 42 1 2 38
M  V30 43 1 4 39
M  V30 44 1 6 40
M  V30 45 1 6 41
M  V30 46 1 6 42
M  V30 47 1 7 43
M  V30 48 1 11 44
M  V30 49 1 13 45
M  V30 50 1 13 46
M  V30 51 1 13 47
M  V30 52 1 14 48
M  V30 53 1 14 49
M  V30 54 1 14 50
M  V30 55 1 15 51
M  V30 56 1 15 52
M  V30 57 1 15 53
M  V30 58 1 20 54
M  V30 59 1 23 55
M  V30 60 1 24 56 CFG=3
M  V30 61 1 25 57
M  V30 62 1 25 58
M  V30 63 1 25 59
M  V30 64 1 26 60
M  V30 65 1 29 61
M  V30 66 1 30 62
M  V30 67 1 31 63
M  V30 END BOND
M  V30 END CTAB
M  END
>  <Dataset>  (421) 
ChEMBL_Kinases

>  <Ligand_Instance>  (421) 
nan

>  <PDB_ID>  (421) 
nan

>  <Standardized_SMILES>  (421) 
CC(c1cn(C)cn1)n1c(NC(C)(C)C)nc2c(-c3cc4c([nH]3)[C@@H](C)NC4=O)cccc2c1=O

>  <Name>  (421) 
nan

>  <Pocket>  (421) 
nan

>  <ATP_Site>  (421) 
nan

>  <Peripheral>  (421) 
nan

>  <Num_H_Atoms_ProtBoundConf>  (421) 
nan

>  <Num_Resolved_Atoms>  (421) 
nan

>  <Num_Not_Resolved_Atoms>  (421) 
nan

$$$$
CHEMBL4463669
     RDKit          3D

  0  0  0  0  0  0  0  0  0  0999 V3000
M  V30 BEGIN CTAB
M  V30 COUNTS 52 55 0 0 0
M  V30 BEGIN ATOM
M  V30 1 C 3.867398 0.302163 0.121711 0
M  V30 2 C 4.309942 -0.107624 1.473396 0
M  V30 3 C 5.253625 -1.067005 1.776768 0
M  V30 4 N 5.335191 -1.121110 3.116198 0
M  V30 5 N 4.514652 -0.267842 3.691506 0
M  V30 6 C 4.457699 -0.182789 5.131559 0
M  V30 7 C 3.879541 0.360130 2.693509 0
M  V30 8 N 2.915751 1.365268 2.950326 0
M  V30 9 C 2.142604 2.193741 2.095884 0
M  V30 10 N 2.166790 3.524510 1.884127 0
M  V30 11 C 1.312632 4.060555 0.983354 0
M  V30 12 C 0.421151 3.284529 0.277378 0
M  V30 13 C 0.389887 1.924059 0.486178 0
M  V30 14 C -0.498530 0.958923 -0.205436 0
M  V30 15 C -0.330366 -0.365354 0.169615 0
M  V30 16 C -1.129942 -1.316636 -0.442774 0
M  V30 17 N -2.057413 -0.972102 -1.386435 0
M  V30 18 C -2.761120 -2.119569 -1.858319 0 CFG=2
M  V30 19 C -4.025678 -1.897079 -2.579520 0
M  V30 20 O -5.022645 -1.238168 -1.868892 0
M  V30 21 C -2.953562 -3.134338 -0.760757 0
M  V30 22 C -2.267090 -4.319538 -0.621640 0
M  V30 23 C -2.549200 -5.125018 0.465568 0
M  V30 24 C -3.485510 -4.817915 1.434301 0
M  V30 25 Cl -3.741440 -5.931733 2.763645 0
M  V30 26 C -4.182810 -3.611601 1.289215 0
M  V30 27 F -5.078814 -3.369017 2.261820 0
M  V30 28 C -3.904154 -2.800260 0.202391 0
M  V30 29 C -2.183211 0.324319 -1.716394 0
M  V30 30 O -3.045966 0.535347 -2.575973 0
M  V30 31 C -1.422490 1.334357 -1.150326 0
M  V30 32 N 1.268032 1.475231 1.395936 0
M  V30 33 H 3.745409 1.383710 -0.017849 0
M  V30 34 H 4.591136 -0.124415 -0.616454 0
M  V30 35 H 2.907248 -0.236007 -0.077612 0
M  V30 36 H 5.789042 -1.633965 1.055315 0
M  V30 37 H 4.275286 -1.158121 5.630653 0
M  V30 38 H 5.404707 0.243742 5.534933 0
M  V30 39 H 3.627718 0.469548 5.478812 0
M  V30 40 H 2.602803 1.668986 3.882301 0
M  V30 41 H 1.336132 5.124340 0.821329 0
M  V30 42 H -0.289248 3.675122 -0.459878 0
M  V30 43 H 0.409809 -0.675060 0.929427 0
M  V30 44 H -0.932736 -2.340818 -0.090003 0
M  V30 45 H -2.078253 -2.645172 -2.594092 0
M  V30 46 H -4.460571 -2.921911 -2.786678 0
M  V30 47 H -3.896858 -1.481794 -3.599271 0
M  V30 48 H -5.717883 -0.965727 -2.519875 0
M  V30 49 H -1.541685 -4.539949 -1.387113 0
M  V30 50 H -1.939195 -6.042353 0.470739 0
M  V30 51 H -4.522102 -1.925465 0.257285 0
M  V30 52 H -1.541374 2.350332 -1.426201 0
M  V30 END ATOM
M  V30 BEGIN BOND
M  V30 1 1 1 2
M  V30 2 1 2 3
M  V30 3 2 3 4
M  V30 4 1 4 5
M  V30 5 1 5 6
M  V30 6 1 5 7
M  V30 7 1 7 8
M  V30 8 1 8 9
M  V30 9 2 9 10
M  V30 10 1 10 11
M  V30 11 2 11 12
M  V30 12 1 12 13
M  V30 13 1 13 14
M  V30 14 1 14 15
M  V30 15 2 15 16
M  V30 16 1 16 17
M  V30 17 1 17 18
M  V30 18 1 18 19
M  V30 19 1 19 20
M  V30 20 1 18 21
M  V30 21 2 21 22
M  V30 22 1 22 23
M  V30 23 2 23 24
M  V30 24 1 24 25
M  V30 25 1 24 26
M  V30 26 1 26 27
M  V30 27 2 26 28
M  V30 28 1 17 29
M  V30 29 2 29 30
M  V30 30 1 29 31
M  V30 31 2 13 32
M  V30 32 2 7 2
M  V30 33 1 32 9
M  V30 34 2 31 14
M  V30 35 1 28 21
M  V30 36 1 1 33
M  V30 37 1 1 34
M  V30 38 1 1 35
M  V30 39 1 3 36
M  V30 40 1 6 37
M  V30 41 1 6 38
M  V30 42 1 6 39
M  V30 43 1 8 40
M  V30 44 1 11 41
M  V30 45 1 12 42
M  V30 46 1 15 43
M  V30 47 1 16 44
M  V30 48 1 18 45 CFG=3
M  V30 49 1 19 46
M  V30 50 1 19 47
M  V30 51 1 20 48
M  V30 52 1 22 49
M  V30 53 1 23 50
M  V30 54 1 28 51
M  V30 55 1 31 52
M  V30 END BOND
M  V30 END CTAB
M  END
>  <Dataset>  (422) 
ChEMBL_Kinases

>  <Ligand_Instance>  (422) 
nan

>  <PDB_ID>  (422) 
nan

>  <Standardized_SMILES>  (422) 
Cc1cnn(C)c1Nc1nccc(-c2ccn([C@H](CO)c3ccc(Cl)c(F)c3)c(=O)c2)n1

>  <Name>  (422) 
nan

>  <Pocket>  (422) 
nan

>  <ATP_Site>  (422) 
nan

>  <Peripheral>  (422) 
nan

>  <Num_H_Atoms_ProtBoundConf>  (422) 
nan

>  <Num_Resolved_Atoms>  (422) 
nan

>  <Num_Not_Resolved_Atoms>  (422) 
nan

$$$$
CHEMBL4463301
     RDKit          3D

  0  0  0  0  0  0  0  0  0  0999 V3000
M  V30 BEGIN CTAB
M  V30 COUNTS 47 50 0 0 0
M  V30 BEGIN ATOM
M  V30 1 O 1.422062 -3.103543 2.223018 0
M  V30 2 C 0.826294 -2.319471 1.458018 0
M  V30 3 N 1.662914 -1.375407 0.795819 0
M  V30 4 C 3.104628 -1.437930 1.088446 0
M  V30 5 C 3.754230 -0.345002 0.277800 0
M  V30 6 C 4.465683 -0.571649 -0.903740 0
M  V30 7 C 5.016314 0.504122 -1.571843 0
M  V30 8 C 4.866279 1.774908 -1.081872 0
M  V30 9 C 4.163215 2.029052 0.091800 0
M  V30 10 C 3.598601 0.952101 0.782102 0
M  V30 11 O 2.853563 0.953632 1.973841 0
M  V30 12 C 2.849816 2.103223 2.838879 0
M  V30 13 C 2.196734 3.232476 2.107232 0
M  V30 14 C 3.136573 4.057215 1.263477 0
M  V30 15 O 4.056046 3.325863 0.518983 0
M  V30 16 C -0.616236 -2.348259 1.241834 0
M  V30 17 C -1.316006 -1.491552 0.418669 0
M  V30 18 C -2.681522 -1.549961 0.234643 0
M  V30 19 C -3.398364 -2.522413 0.912137 0
M  V30 20 C -4.839758 -2.509474 0.656228 0
M  V30 21 C -5.712136 -2.917068 1.658637 0
M  V30 22 C -7.075537 -2.883183 1.358967 0
M  V30 23 N -7.532557 -2.483065 0.177347 0
M  V30 24 C -6.712327 -2.085512 -0.805198 0
M  V30 25 C -5.349287 -2.100942 -0.557318 0
M  V30 26 C -2.757506 -3.412492 1.752848 0
M  V30 27 C -1.370038 -3.302779 1.898488 0
M  V30 28 H 1.264305 -0.672463 0.133026 0
M  V30 29 H 3.226996 -1.271513 2.156183 0
M  V30 30 H 3.486566 -2.386368 0.690262 0
M  V30 31 H 4.546613 -1.596208 -1.235275 0
M  V30 32 H 5.568737 0.337438 -2.487972 0
M  V30 33 H 5.279313 2.653692 -1.568597 0
M  V30 34 H 3.906104 2.410508 3.075965 0
M  V30 35 H 2.381465 1.849867 3.793754 0
M  V30 36 H 1.351577 2.891924 1.462477 0
M  V30 37 H 1.770053 3.959452 2.858930 0
M  V30 38 H 2.500883 4.666959 0.581289 0
M  V30 39 H 3.719057 4.750189 1.908850 0
M  V30 40 H -0.755604 -0.732995 -0.109469 0
M  V30 41 H -3.141424 -0.827282 -0.437876 0
M  V30 42 H -5.378942 -3.248297 2.630300 0
M  V30 43 H -7.743345 -3.202622 2.146316 0
M  V30 44 H -7.085887 -1.764948 -1.753497 0
M  V30 45 H -4.694446 -1.781554 -1.349448 0
M  V30 46 H -3.357049 -4.147516 2.255204 0
M  V30 47 H -0.866565 -4.005422 2.561934 0
M  V30 END ATOM
M  V30 BEGIN BOND
M  V30 1 2 1 2
M  V30 2 1 2 3
M  V30 3 1 3 4
M  V30 4 1 4 5
M  V30 5 2 5 6
M  V30 6 1 6 7
M  V30 7 2 7 8
M  V30 8 1 8 9
M  V30 9 2 9 10
M  V30 10 1 10 11
M  V30 11 1 11 12
M  V30 12 1 12 13
M  V30 13 1 13 14
M  V30 14 1 14 15
M  V30 15 1 2 16
M  V30 16 2 16 17
M  V30 17 1 17 18
M  V30 18 2 18 19
M  V30 19 1 19 20
M  V30 20 2 20 21
M  V30 21 1 21 22
M  V30 22 2 22 23
M  V30 23 1 23 24
M  V30 24 2 24 25
M  V30 25 1 19 26
M  V30 26 2 26 27
M  V30 27 1 10 5
M  V30 28 1 27 16
M  V30 29 1 15 9
M  V30 30 1 25 20
M  V30 31 1 3 28
M  V30 32 1 4 29
M  V30 33 1 4 30
M  V30 34 1 6 31
M  V30 35 1 7 32
M  V30 36 1 8 33
M  V30 37 1 12 34
M  V30 38 1 12 35
M  V30 39 1 13 36
M  V30 40 1 13 37
M  V30 41 1 14 38
M  V30 42 1 14 39
M  V30 43 1 17 40
M  V30 44 1 18 41
M  V30 45 1 21 42
M  V30 46 1 22 43
M  V30 47 1 24 44
M  V30 48 1 25 45
M  V30 49 1 26 46
M  V30 50 1 27 47
M  V30 END BOND
M  V30 END CTAB
M  END
>  <Dataset>  (423) 
ChEMBL_Kinases

>  <Ligand_Instance>  (423) 
nan

>  <PDB_ID>  (423) 
nan

>  <Standardized_SMILES>  (423) 
O=C(NCc1cccc2c1OCCCO2)c1ccc(-c2ccncc2)cc1

>  <Name>  (423) 
nan

>  <Pocket>  (423) 
nan

>  <ATP_Site>  (423) 
nan

>  <Peripheral>  (423) 
nan

>  <Num_H_Atoms_ProtBoundConf>  (423) 
nan

>  <Num_Resolved_Atoms>  (423) 
nan

>  <Num_Not_Resolved_Atoms>  (423) 
nan

$$$$
CHEMBL2385543
     RDKit          3D

  0  0  0  0  0  0  0  0  0  0999 V3000
M  V30 BEGIN CTAB
M  V30 COUNTS 70 76 0 0 0
M  V30 BEGIN ATOM
M  V30 1 O 1.753105 0.298238 2.762930 0
M  V30 2 C 0.871433 0.461645 1.878100 0
M  V30 3 C 0.718109 1.817759 1.362871 0
M  V30 4 O 1.664195 2.715640 1.371697 0
M  V30 5 C 1.217231 3.846855 0.835741 0
M  V30 6 C 2.051053 5.037257 0.706922 0
M  V30 7 C 3.355012 4.967231 1.148527 0
M  V30 8 C 4.222366 6.059565 1.065745 0
M  V30 9 C 3.709597 7.215046 0.519246 0
M  V30 10 Cl 4.773002 8.595001 0.404433 0
M  V30 11 C 2.394141 7.280646 0.075445 0
M  V30 12 C 1.546135 6.201667 0.160070 0
M  V30 13 C -0.093745 3.607918 0.479391 0
M  V30 14 C -0.451362 2.291527 0.809792 0
M  V30 15 C -1.761080 1.690688 0.577426 0
M  V30 16 C -1.777473 0.261211 0.265068 0
M  V30 17 C -2.826401 -0.075272 -0.603511 0
M  V30 18 C -3.067429 -1.353412 -1.046205 0
M  V30 19 N -4.141308 -1.636065 -1.914217 0
M  V30 20 C -5.172906 -0.708278 -2.324523 0
M  V30 21 C -5.292823 -0.784566 -3.830417 0
M  V30 22 N -4.128043 -1.429625 -4.434883 0
M  V30 23 C -4.114635 -2.844890 -4.068291 0
M  V30 24 C -4.428498 -2.891780 -2.568041 0
M  V30 25 C -2.216244 -2.326991 -0.593507 0
M  V30 26 C -1.150008 -2.090275 0.268635 0
M  V30 27 C -0.973612 -0.783835 0.667552 0
M  V30 28 N 0.173750 -0.761008 1.545185 0
M  V30 29 C 0.696193 -1.960833 2.158385 0
M  V30 30 C 1.745624 -2.639396 1.375588 0
M  V30 31 C 2.279211 -2.142282 0.204699 0
M  V30 32 C 3.246571 -2.807651 -0.504181 0
M  V30 33 C 3.682330 -4.015481 -0.004272 0
M  V30 34 C 3.149571 -4.511193 1.165025 0
M  V30 35 C 2.161221 -3.827797 1.886888 0
M  V30 36 C 1.784225 -4.555562 3.085489 0
M  V30 37 C 1.406844 -5.893738 2.893602 0
M  V30 38 C 1.020968 -6.761505 3.923109 0
M  V30 39 C 1.012798 -6.267539 5.204433 0
M  V30 40 N 1.371334 -4.990141 5.403210 0
M  V30 41 C 1.738520 -4.169090 4.409878 0
M  V30 42 H 3.788637 4.058260 1.587498 0
M  V30 43 H 5.239241 5.958477 1.424356 0
M  V30 44 H 2.062300 8.237707 -0.347117 0
M  V30 45 H 0.526452 6.262728 -0.186304 0
M  V30 46 H -0.732460 4.360217 0.008305 0
M  V30 47 H -2.498285 1.925851 1.392718 0
M  V30 48 H -2.193411 2.229660 -0.317849 0
M  V30 49 H -3.428456 0.773166 -0.892242 0
M  V30 50 H -6.157780 -1.062869 -1.925783 0
M  V30 51 H -5.036297 0.322237 -1.973794 0
M  V30 52 H -5.421306 0.211708 -4.300657 0
M  V30 53 H -6.188836 -1.389685 -4.143509 0
M  V30 54 H -3.298242 -0.991714 -4.006555 0
M  V30 55 H -4.888247 -3.412191 -4.627138 0
M  V30 56 H -3.104189 -3.224857 -4.282452 0
M  V30 57 H -3.791507 -3.678916 -2.153153 0
M  V30 58 H -5.496918 -3.205132 -2.426694 0
M  V30 59 H -2.309955 -3.374503 -0.877576 0
M  V30 60 H -0.512028 -2.864941 0.605806 0
M  V30 61 H 1.214596 -1.601138 3.075785 0
M  V30 62 H -0.074126 -2.632477 2.582472 0
M  V30 63 H 1.860455 -1.174428 -0.103324 0
M  V30 64 H 3.639475 -2.384866 -1.417545 0
M  V30 65 H 4.442233 -4.513827 -0.583234 0
M  V30 66 H 3.592789 -5.481112 1.441127 0
M  V30 67 H 1.389816 -6.350194 1.917972 0
M  V30 68 H 0.738314 -7.775600 3.746216 0
M  V30 69 H 0.736398 -6.827324 6.086321 0
M  V30 70 H 2.034138 -3.148247 4.591821 0
M  V30 END ATOM
M  V30 BEGIN BOND
M  V30 1 2 1 2
M  V30 2 1 2 3
M  V30 3 1 3 4
M  V30 4 1 4 5
M  V30 5 1 5 6
M  V30 6 2 6 7
M  V30 7 1 7 8
M  V30 8 2 8 9
M  V30 9 1 9 10
M  V30 10 1 9 11
M  V30 11 2 11 12
M  V30 12 2 5 13
M  V30 13 1 13 14
M  V30 14 1 14 15
M  V30 15 1 15 16
M  V30 16 2 16 17
M  V30 17 1 17 18
M  V30 18 1 18 19
M  V30 19 1 19 20
M  V30 20 1 20 21
M  V30 21 1 21 22
M  V30 22 1 22 23
M  V30 23 1 23 24
M  V30 24 2 18 25
M  V30 25 1 25 26
M  V30 26 2 26 27
M  V30 27 1 27 28
M  V30 28 1 28 29
M  V30 29 1 29 30
M  V30 30 2 30 31
M  V30 31 1 31 32
M  V30 32 2 32 33
M  V30 33 1 33 34
M  V30 34 2 34 35
M  V30 35 1 35 36
M  V30 36 2 36 37
M  V30 37 1 37 38
M  V30 38 2 38 39
M  V30 39 1 39 40
M  V30 40 2 40 41
M  V30 41 1 28 2
M  V30 42 1 35 30
M  V30 43 1 41 36
M  V30 44 2 14 3
M  V30 45 1 27 16
M  V30 46 1 12 6
M  V30 47 1 24 19
M  V30 48 1 7 42
M  V30 49 1 8 43
M  V30 50 1 11 44
M  V30 51 1 12 45
M  V30 52 1 13 46
M  V30 53 1 15 47
M  V30 54 1 15 48
M  V30 55 1 17 49
M  V30 56 1 20 50
M  V30 57 1 20 51
M  V30 58 1 21 52
M  V30 59 1 21 53
M  V30 60 1 22 54
M  V30 61 1 23 55
M  V30 62 1 23 56
M  V30 63 1 24 57
M  V30 64 1 24 58
M  V30 65 1 25 59
M  V30 66 1 26 60
M  V30 67 1 29 61
M  V30 68 1 29 62
M  V30 69 1 31 63
M  V30 70 1 32 64
M  V30 71 1 33 65
M  V30 72 1 34 66
M  V30 73 1 37 67
M  V30 74 1 38 68
M  V30 75 1 39 69
M  V30 76 1 41 70
M  V30 END BOND
M  V30 END CTAB
M  END
>  <Dataset>  (424) 
ChEMBL_Kinases

>  <Ligand_Instance>  (424) 
nan

>  <PDB_ID>  (424) 
nan

>  <Standardized_SMILES>  (424) 
O=C1c2oc(-c3ccc(Cl)cc3)cc2Cc2cc(N3CCNCC3)ccc2N1Cc1ccccc1-c1cccnc1

>  <Name>  (424) 
nan

>  <Pocket>  (424) 
nan

>  <ATP_Site>  (424) 
nan

>  <Peripheral>  (424) 
nan

>  <Num_H_Atoms_ProtBoundConf>  (424) 
nan

>  <Num_Resolved_Atoms>  (424) 
nan

>  <Num_Not_Resolved_Atoms>  (424) 
nan

$$$$
CHEMBL4463004
     RDKit          3D

  0  0  0  0  0  0  0  0  0  0999 V3000
M  V30 BEGIN CTAB
M  V30 COUNTS 61 66 0 0 0
M  V30 BEGIN ATOM
M  V30 1 C 3.004638 1.249010 1.360656 0
M  V30 2 C 1.675300 1.064691 2.073397 0 CFG=2
M  V30 3 C 2.012411 0.952566 3.513275 0
M  V30 4 C 3.240177 0.738202 4.154523 0
M  V30 5 N 2.988023 0.729305 5.483052 0
M  V30 6 C 4.095812 0.523944 6.388726 0
M  V30 7 C 1.667215 0.927883 5.678691 0
M  V30 8 N 1.067854 1.064836 4.474213 0
M  V30 9 N 0.983880 -0.107088 1.646016 0
M  V30 10 C 0.180690 -0.201788 0.528885 0
M  V30 11 N 0.041540 1.026614 -0.213286 0
M  V30 12 C -0.033112 2.291052 -0.870314 0
M  V30 13 C -0.652626 2.374585 -2.275788 0
M  V30 14 C 0.867294 3.433812 -0.559346 0
M  V30 15 C -0.547866 3.462339 -0.011185 0
M  V30 16 N -0.439122 -1.335327 0.167211 0
M  V30 17 C -0.337922 -2.473514 0.851659 0
M  V30 18 C -1.020223 -3.570625 0.391702 0
M  V30 19 C -1.850403 -3.595716 -0.800890 0
M  V30 20 C -2.546612 -4.712824 -1.210572 0
M  V30 21 C -3.245288 -4.420845 -2.362936 0
M  V30 22 C -2.976234 -3.103133 -2.670403 0
M  V30 23 N -2.131843 -2.667241 -1.691401 0
M  V30 24 C -3.701778 -2.722729 -3.904682 0 CFG=1
M  V30 25 C -2.780326 -2.243869 -4.984534 0
M  V30 26 N -4.405040 -3.942449 -4.254804 0
M  V30 27 C -4.153096 -5.009619 -3.341682 0
M  V30 28 O -4.601510 -6.176840 -3.368113 0
M  V30 29 C -0.858589 -4.709447 1.175543 0
M  V30 30 C -0.077150 -4.714600 2.310761 0
M  V30 31 C 0.554185 -3.532692 2.656634 0
M  V30 32 C 0.461240 -2.337696 1.944828 0
M  V30 33 C 1.121750 -1.224860 2.374287 0
M  V30 34 O 1.783427 -1.377207 3.404577 0
M  V30 35 H 3.552890 2.120816 1.715058 0
M  V30 36 H 2.807217 1.232469 0.266720 0
M  V30 37 H 3.610891 0.348404 1.588204 0
M  V30 38 H 0.997113 1.919276 1.880294 0
M  V30 39 H 4.180991 0.610733 3.603336 0
M  V30 40 H 4.734888 1.421466 6.473084 0
M  V30 41 H 3.686530 0.218338 7.376262 0
M  V30 42 H 4.764331 -0.287137 6.002982 0
M  V30 43 H 1.231884 0.958695 6.687819 0
M  V30 44 H -0.577415 0.687108 -0.977598 0
M  V30 45 H -1.092738 3.370113 -2.417579 0
M  V30 46 H -1.472535 1.631599 -2.383723 0
M  V30 47 H 0.111709 2.111892 -3.043945 0
M  V30 48 H 1.622593 3.453732 0.217338 0
M  V30 49 H 1.115683 4.133730 -1.411827 0
M  V30 50 H -0.728697 3.307453 1.055669 0
M  V30 51 H -1.196270 4.223160 -0.456983 0
M  V30 52 H -2.564783 -5.695556 -0.722052 0
M  V30 53 H -1.786050 -1.687337 -1.709295 0
M  V30 54 H -4.479443 -1.963337 -3.677362 0
M  V30 55 H -1.735801 -2.593615 -4.858125 0
M  V30 56 H -2.839637 -1.166046 -5.182586 0
M  V30 57 H -3.143379 -2.745344 -5.932377 0
M  V30 58 H -5.047033 -4.063280 -5.093882 0
M  V30 59 H -1.351412 -5.653226 0.917425 0
M  V30 60 H 0.023455 -5.603170 2.885575 0
M  V30 61 H 1.160508 -3.610283 3.574297 0
M  V30 END ATOM
M  V30 BEGIN BOND
M  V30 1 1 1 2
M  V30 2 1 2 3
M  V30 3 2 3 4
M  V30 4 1 4 5
M  V30 5 1 5 6
M  V30 6 1 5 7
M  V30 7 2 7 8
M  V30 8 1 2 9
M  V30 9 1 9 10
M  V30 10 1 10 11
M  V30 11 1 11 12
M  V30 12 1 12 13
M  V30 13 1 12 14
M  V30 14 1 14 15
M  V30 15 2 10 16
M  V30 16 1 16 17
M  V30 17 2 17 18
M  V30 18 1 18 19
M  V30 19 2 19 20
M  V30 20 1 20 21
M  V30 21 2 21 22
M  V30 22 1 22 23
M  V30 23 1 22 24
M  V30 24 1 24 25
M  V30 25 1 24 26
M  V30 26 1 26 27
M  V30 27 2 27 28
M  V30 28 1 18 29
M  V30 29 2 29 30
M  V30 30 1 30 31
M  V30 31 2 31 32
M  V30 32 1 32 33
M  V30 33 2 33 34
M  V30 34 1 8 3
M  V30 35 1 33 9
M  V30 36 1 15 12
M  V30 37 1 32 17
M  V30 38 1 23 19
M  V30 39 1 27 21
M  V30 40 1 1 35
M  V30 41 1 1 36
M  V30 42 1 1 37
M  V30 43 1 2 38 CFG=1
M  V30 44 1 4 39
M  V30 45 1 6 40
M  V30 46 1 6 41
M  V30 47 1 6 42
M  V30 48 1 7 43
M  V30 49 1 11 44
M  V30 50 1 13 45
M  V30 51 1 13 46
M  V30 52 1 13 47
M  V30 53 1 14 48
M  V30 54 1 14 49
M  V30 55 1 15 50
M  V30 56 1 15 51
M  V30 57 1 20 52
M  V30 58 1 23 53
M  V30 59 1 24 54 CFG=1
M  V30 60 1 25 55
M  V30 61 1 25 56
M  V30 62 1 25 57
M  V30 63 1 26 58
M  V30 64 1 29 59
M  V30 65 1 30 60
M  V30 66 1 31 61
M  V30 END BOND
M  V30 END CTAB
M  END
>  <Dataset>  (425) 
ChEMBL_Kinases

>  <Ligand_Instance>  (425) 
nan

>  <PDB_ID>  (425) 
nan

>  <Standardized_SMILES>  (425) 
C[C@H](c1cn(C)cn1)n1c(NC2(C)CC2)nc2c(-c3cc4c([nH]3)[C@@H](C)NC4=O)cccc2c1=O

>  <Name>  (425) 
nan

>  <Pocket>  (425) 
nan

>  <ATP_Site>  (425) 
nan

>  <Peripheral>  (425) 
nan

>  <Num_H_Atoms_ProtBoundConf>  (425) 
nan

>  <Num_Resolved_Atoms>  (425) 
nan

>  <Num_Not_Resolved_Atoms>  (425) 
nan

$$$$
CHEMBL4462666
     RDKit          3D

  0  0  0  0  0  0  0  0  0  0999 V3000
M  V30 BEGIN CTAB
M  V30 COUNTS 29 30 0 0 0
M  V30 BEGIN ATOM
M  V30 1 C -4.335189 -2.903189 3.770678 0
M  V30 2 O -3.245350 -2.022369 4.047909 0
M  V30 3 C -2.322190 -1.700893 3.064375 0
M  V30 4 C -1.337194 -0.833128 3.521024 0
M  V30 5 C -0.350640 -0.438183 2.617442 0
M  V30 6 C -0.310945 -0.873361 1.286186 0
M  V30 7 C 0.763703 -0.403126 0.421534 0
M  V30 8 C 0.614120 -0.218409 -0.940369 0
M  V30 9 C 1.645347 0.227895 -1.745065 0
M  V30 10 C 2.875277 0.502908 -1.179307 0
M  V30 11 C 4.068040 0.987117 -1.914596 0
M  V30 12 N 3.937825 1.200324 -3.339662 0
M  V30 13 O 5.165613 1.203659 -1.297631 0
M  V30 14 C 2.999748 0.310214 0.184645 0
M  V30 15 C 1.998192 -0.133506 1.026935 0
M  V30 16 C -1.329185 -1.730438 0.928954 0
M  V30 17 N -2.290238 -2.124343 1.783002 0
M  V30 18 H -4.035996 -3.772853 3.171312 0
M  V30 19 H -4.763720 -3.312080 4.708688 0
M  V30 20 H -5.147091 -2.377982 3.202032 0
M  V30 21 H -1.259656 -0.426429 4.529005 0
M  V30 22 H 0.426948 0.238456 2.952494 0
M  V30 23 H -0.332283 -0.426951 -1.393052 0
M  V30 24 H 1.564197 0.382920 -2.810156 0
M  V30 25 H 3.640144 2.199226 -3.120512 0
M  V30 26 H 4.238937 0.201752 -3.479961 0
M  V30 27 H 3.964686 0.522635 0.648392 0
M  V30 28 H 2.207937 -0.249483 2.087434 0
M  V30 29 H -1.328139 -2.082785 -0.083037 0
M  V30 END ATOM
M  V30 BEGIN BOND
M  V30 1 1 1 2
M  V30 2 1 2 3
M  V30 3 2 3 4
M  V30 4 1 4 5
M  V30 5 2 5 6
M  V30 6 1 6 7
M  V30 7 2 7 8
M  V30 8 1 8 9
M  V30 9 2 9 10
M  V30 10 1 10 11
M  V30 11 1 11 12
M  V30 12 2 11 13
M  V30 13 1 10 14
M  V30 14 2 14 15
M  V30 15 1 6 16
M  V30 16 2 16 17
M  V30 17 1 17 3
M  V30 18 1 15 7
M  V30 19 1 1 18
M  V30 20 1 1 19
M  V30 21 1 1 20
M  V30 22 1 4 21
M  V30 23 1 5 22
M  V30 24 1 8 23
M  V30 25 1 9 24
M  V30 26 1 12 25
M  V30 27 1 12 26
M  V30 28 1 14 27
M  V30 29 1 15 28
M  V30 30 1 16 29
M  V30 END BOND
M  V30 END CTAB
M  END
>  <Dataset>  (426) 
ChEMBL_Kinases

>  <Ligand_Instance>  (426) 
nan

>  <PDB_ID>  (426) 
nan

>  <Standardized_SMILES>  (426) 
COc1ccc(-c2ccc(C(N)=O)cc2)cn1

>  <Name>  (426) 
nan

>  <Pocket>  (426) 
nan

>  <ATP_Site>  (426) 
nan

>  <Peripheral>  (426) 
nan

>  <Num_H_Atoms_ProtBoundConf>  (426) 
nan

>  <Num_Resolved_Atoms>  (426) 
nan

>  <Num_Not_Resolved_Atoms>  (426) 
nan

$$$$
CHEMBL4462636
     RDKit          3D

  0  0  0  0  0  0  0  0  0  0999 V3000
M  V30 BEGIN CTAB
M  V30 COUNTS 69 72 0 0 0
M  V30 BEGIN ATOM
M  V30 1 C 1.298124 -4.330675 4.657474 0
M  V30 2 C 0.227647 -3.337226 4.413482 0
M  V30 3 C -0.665069 -2.950689 5.385029 0
M  V30 4 C -1.674449 -2.010076 5.145861 0
M  V30 5 C -1.762250 -1.454217 3.865958 0
M  V30 6 C -2.822729 -0.477892 3.648977 0
M  V30 7 O -3.573836 -0.205701 4.621069 0
M  V30 8 N -3.007461 0.148300 2.386541 0
M  V30 9 C -3.951279 1.116742 1.927267 0 CFG=1
M  V30 10 C -3.298744 2.428303 1.531055 0
M  V30 11 C -2.289726 2.257471 0.414714 0
M  V30 12 C -1.705659 3.626909 0.104643 0
M  V30 13 C -2.793159 4.584945 -0.330935 0
M  V30 14 C -2.212530 5.732853 -1.124884 0
M  V30 15 C -1.775948 5.226664 -2.471401 0
M  V30 16 C -1.392704 3.770782 -2.380549 0
M  V30 17 C -0.703465 3.515630 -1.037250 0
M  V30 18 C -4.837162 0.613192 0.845370 0
M  V30 19 N -4.654950 -0.743059 0.396931 0
M  V30 20 O -5.731590 1.370113 0.334614 0
M  V30 21 C -0.863982 -1.848242 2.901750 0
M  V30 22 C 0.140048 -2.789476 3.154290 0
M  V30 23 N 1.009659 -3.109047 2.054939 0
M  V30 24 C 2.180755 -2.382659 1.844046 0
M  V30 25 O 2.547540 -1.413307 2.593133 0
M  V30 26 C 3.047408 -2.739931 0.704039 0
M  V30 27 C 4.226840 -2.259708 0.213270 0
M  V30 28 C 4.746579 -2.854739 -0.890035 0
M  V30 29 C 4.127159 -3.873529 -1.475190 0
M  V30 30 C 4.312984 -4.745742 -2.593117 0
M  V30 31 C 3.373559 -5.744949 -2.873500 0
M  V30 32 C 3.506406 -6.615644 -3.943368 0
M  V30 33 C 4.593334 -6.512139 -4.773024 0
M  V30 34 C 5.551522 -5.553729 -4.553623 0
M  V30 35 C 5.357038 -4.735056 -3.487318 0
M  V30 36 Cl 6.606389 -3.532409 -3.253446 0
M  V30 37 S 2.685462 -4.074418 -0.450716 0
M  V30 38 H 0.874506 -5.086116 5.379484 0
M  V30 39 H 1.549994 -4.915660 3.751891 0
M  V30 40 H 2.182722 -3.924946 5.174051 0
M  V30 41 H -0.586128 -3.387461 6.368528 0
M  V30 42 H -2.345027 -1.754448 5.968720 0
M  V30 43 H -2.400289 -0.059871 1.564481 0
M  V30 44 H -4.635594 1.370640 2.781594 0
M  V30 45 H -4.065923 3.125764 1.124195 0
M  V30 46 H -2.847601 2.946600 2.382689 0
M  V30 47 H -2.811860 1.939569 -0.523386 0
M  V30 48 H -1.519839 1.512252 0.616003 0
M  V30 49 H -1.167202 4.060584 0.957339 0
M  V30 50 H -3.397826 4.958904 0.523644 0
M  V30 51 H -3.478561 4.037204 -1.002735 0
M  V30 52 H -1.394960 6.243961 -0.564128 0
M  V30 53 H -3.080714 6.430503 -1.316581 0
M  V30 54 H -2.583366 5.327135 -3.218803 0
M  V30 55 H -0.909451 5.788146 -2.880079 0
M  V30 56 H -2.227729 3.092274 -2.570206 0
M  V30 57 H -0.611131 3.559062 -3.144424 0
M  V30 58 H 0.095277 4.282012 -0.964607 0
M  V30 59 H -0.231949 2.518371 -1.072014 0
M  V30 60 H -5.454954 -1.418431 0.387623 0
M  V30 61 H -5.535072 -1.339181 0.430489 0
M  V30 62 H -0.933519 -1.417273 1.912644 0
M  V30 63 H 0.691722 -3.901238 1.459439 0
M  V30 64 H 4.604297 -1.431816 0.797975 0
M  V30 65 H 5.678324 -2.463684 -1.265014 0
M  V30 66 H 2.482165 -5.914755 -2.286379 0
M  V30 67 H 2.774541 -7.382925 -4.149428 0
M  V30 68 H 4.675751 -7.201812 -5.600237 0
M  V30 69 H 6.396475 -5.496786 -5.224536 0
M  V30 END ATOM
M  V30 BEGIN BOND
M  V30 1 1 1 2
M  V30 2 2 2 3
M  V30 3 1 3 4
M  V30 4 2 4 5
M  V30 5 1 5 6
M  V30 6 2 6 7
M  V30 7 1 6 8
M  V30 8 1 8 9
M  V30 9 1 9 10
M  V30 10 1 10 11
M  V30 11 1 11 12
M  V30 12 1 12 13
M  V30 13 1 13 14
M  V30 14 1 14 15
M  V30 15 1 15 16
M  V30 16 1 16 17
M  V30 17 1 9 18
M  V30 18 1 18 19
M  V30 19 2 18 20
M  V30 20 1 5 21
M  V30 21 2 21 22
M  V30 22 1 22 23
M  V30 23 1 23 24
M  V30 24 2 24 25
M  V30 25 1 24 26
M  V30 26 2 26 27
M  V30 27 1 27 28
M  V30 28 2 28 29
M  V30 29 1 29 30
M  V30 30 2 30 31
M  V30 31 1 31 32
M  V30 32 2 32 33
M  V30 33 1 33 34
M  V30 34 2 34 35
M  V30 35 1 35 36
M  V30 36 1 29 37
M  V30 37 1 22 2
M  V30 38 1 37 26
M  V30 39 1 17 12
M  V30 40 1 35 30
M  V30 41 1 1 38
M  V30 42 1 1 39
M  V30 43 1 1 40
M  V30 44 1 3 41
M  V30 45 1 4 42
M  V30 46 1 8 43
M  V30 47 1 9 44 CFG=1
M  V30 48 1 10 45
M  V30 49 1 10 46
M  V30 50 1 11 47
M  V30 51 1 11 48
M  V30 52 1 12 49
M  V30 53 1 13 50
M  V30 54 1 13 51
M  V30 55 1 14 52
M  V30 56 1 14 53
M  V30 57 1 15 54
M  V30 58 1 15 55
M  V30 59 1 16 56
M  V30 60 1 16 57
M  V30 61 1 17 58
M  V30 62 1 17 59
M  V30 63 1 19 60
M  V30 64 1 19 61
M  V30 65 1 21 62
M  V30 66 1 23 63
M  V30 67 1 27 64
M  V30 68 1 28 65
M  V30 69 1 31 66
M  V30 70 1 32 67
M  V30 71 1 33 68
M  V30 72 1 34 69
M  V30 END BOND
M  V30 END CTAB
M  END
>  <Dataset>  (427) 
ChEMBL_Kinases

>  <Ligand_Instance>  (427) 
nan

>  <PDB_ID>  (427) 
nan

>  <Standardized_SMILES>  (427) 
Cc1ccc(C(=O)N[C@@H](CCC2CCCCC2)C(N)=O)cc1NC(=O)c1ccc(-c2ccccc2Cl)s1

>  <Name>  (427) 
nan

>  <Pocket>  (427) 
nan

>  <ATP_Site>  (427) 
nan

>  <Peripheral>  (427) 
nan

>  <Num_H_Atoms_ProtBoundConf>  (427) 
nan

>  <Num_Resolved_Atoms>  (427) 
nan

>  <Num_Not_Resolved_Atoms>  (427) 
nan

$$$$
CHEMBL3698657
     RDKit          3D

  0  0  0  0  0  0  0  0  0  0999 V3000
M  V30 BEGIN CTAB
M  V30 COUNTS 62 67 0 0 0
M  V30 BEGIN ATOM
M  V30 1 C 4.720369 -5.697816 1.578271 0
M  V30 2 C 3.853465 -6.476724 0.805317 0
M  V30 3 C 2.880671 -5.806265 0.057967 0
M  V30 4 C 2.801256 -4.441792 0.098694 0
M  V30 5 C 3.674293 -3.716234 0.872851 0
M  V30 6 C 4.639738 -4.314746 1.619728 0
M  V30 7 C 3.369592 -2.380640 0.726435 0
M  V30 8 C 3.870831 -1.188650 1.234696 0
M  V30 9 N 3.290362 -0.033216 0.849715 0
M  V30 10 C 2.242844 -0.018878 -0.011989 0
M  V30 11 N 1.768281 1.295754 -0.285855 0
M  V30 12 C 0.592061 1.696453 0.372548 0
M  V30 13 C 0.106880 2.983661 0.257186 0
M  V30 14 C -1.048201 3.460747 0.852276 0
M  V30 15 C -1.784574 2.587282 1.626939 0
M  V30 16 N -2.982200 3.001446 2.264714 0
M  V30 17 C -3.810213 2.096605 3.015953 0
M  V30 18 C -4.761551 2.738483 3.961673 0
M  V30 19 N -5.567765 3.789667 3.443078 0
M  V30 20 C -5.027345 4.296016 2.219523 0
M  V30 21 C -3.501984 4.338207 2.241728 0
M  V30 22 C -1.333240 1.293689 1.767306 0
M  V30 23 C -0.169530 0.831701 1.162083 0
M  V30 24 N 1.754651 -1.171662 -0.506491 0
M  V30 25 C 2.289854 -2.357134 -0.160696 0
M  V30 26 N 1.950692 -3.618433 -0.536888 0
M  V30 27 C 0.839080 -3.904457 -1.461421 0
M  V30 28 C 1.101072 -3.410925 -2.813916 0
M  V30 29 C 0.030788 -2.639058 -3.499293 0
M  V30 30 C -0.969663 -1.987766 -2.606717 0
M  V30 31 C -1.521643 -3.021500 -1.651498 0
M  V30 32 C -0.391258 -3.423876 -0.770145 0
M  V30 33 H 5.452144 -6.232973 2.138803 0
M  V30 34 H 3.942651 -7.569270 0.793219 0
M  V30 35 H 2.187576 -6.368615 -0.554222 0
M  V30 36 H 5.319710 -3.735206 2.222947 0
M  V30 37 H 4.711203 -1.219364 1.923732 0
M  V30 38 H 2.232709 1.947701 -0.924420 0
M  V30 39 H 0.666505 3.689362 -0.344402 0
M  V30 40 H -1.341127 4.488628 0.700342 0
M  V30 41 H -4.313522 1.432122 2.275551 0
M  V30 42 H -3.114627 1.463641 3.637357 0
M  V30 43 H -4.234515 3.065844 4.900465 0
M  V30 44 H -5.439773 1.913319 4.332946 0
M  V30 45 H -6.520227 3.423972 3.220246 0
M  V30 46 H -5.301127 3.581967 1.399225 0
M  V30 47 H -5.394334 5.320830 1.986692 0
M  V30 48 H -3.145476 4.953700 3.094774 0
M  V30 49 H -3.238809 4.909901 1.310495 0
M  V30 50 H -1.840447 0.541663 2.352033 0
M  V30 51 H 0.215767 -0.166551 1.246418 0
M  V30 52 H 0.782515 -5.034927 -1.447455 0
M  V30 53 H 1.344075 -4.280477 -3.491383 0
M  V30 54 H 2.029442 -2.800185 -2.808946 0
M  V30 55 H -0.550570 -3.292775 -4.202030 0
M  V30 56 H 0.457929 -1.843401 -4.148449 0
M  V30 57 H -0.590571 -1.121832 -2.038738 0
M  V30 58 H -1.821623 -1.648650 -3.249856 0
M  V30 59 H -2.019015 -3.835969 -2.183388 0
M  V30 60 H -2.246834 -2.450848 -0.999273 0
M  V30 61 H -0.794725 -4.195122 -0.050325 0
M  V30 62 H -0.143696 -2.558664 -0.132422 0
M  V30 END ATOM
M  V30 BEGIN BOND
M  V30 1 2 1 2
M  V30 2 1 2 3
M  V30 3 2 3 4
M  V30 4 1 4 5
M  V30 5 2 5 6
M  V30 6 1 5 7
M  V30 7 2 7 8
M  V30 8 1 8 9
M  V30 9 2 9 10
M  V30 10 1 10 11
M  V30 11 1 11 12
M  V30 12 2 12 13
M  V30 13 1 13 14
M  V30 14 2 14 15
M  V30 15 1 15 16
M  V30 16 1 16 17
M  V30 17 1 17 18
M  V30 18 1 18 19
M  V30 19 1 19 20
M  V30 20 1 20 21
M  V30 21 1 15 22
M  V30 22 2 22 23
M  V30 23 1 10 24
M  V30 24 2 24 25
M  V30 25 1 25 26
M  V30 26 1 26 27
M  V30 27 1 27 28
M  V30 28 1 28 29
M  V30 29 1 29 30
M  V30 30 1 30 31
M  V30 31 1 31 32
M  V30 32 1 6 1
M  V30 33 1 25 7
M  V30 34 1 32 27
M  V30 35 1 26 4
M  V30 36 1 23 12
M  V30 37 1 21 16
M  V30 38 1 1 33
M  V30 39 1 2 34
M  V30 40 1 3 35
M  V30 41 1 6 36
M  V30 42 1 8 37
M  V30 43 1 11 38
M  V30 44 1 13 39
M  V30 45 1 14 40
M  V30 46 1 17 41
M  V30 47 1 17 42
M  V30 48 1 18 43
M  V30 49 1 18 44
M  V30 50 1 19 45
M  V30 51 1 20 46
M  V30 52 1 20 47
M  V30 53 1 21 48
M  V30 54 1 21 49
M  V30 55 1 22 50
M  V30 56 1 23 51
M  V30 57 1 27 52
M  V30 58 1 28 53
M  V30 59 1 28 54
M  V30 60 1 29 55
M  V30 61 1 29 56
M  V30 62 1 30 57
M  V30 63 1 30 58
M  V30 64 1 31 59
M  V30 65 1 31 60
M  V30 66 1 32 61
M  V30 67 1 32 62
M  V30 END BOND
M  V30 END CTAB
M  END
>  <Dataset>  (428) 
ChEMBL_Kinases

>  <Ligand_Instance>  (428) 
nan

>  <PDB_ID>  (428) 
nan

>  <Standardized_SMILES>  (428) 
c1ccc2c(c1)c1cnc(Nc3ccc(N4CCNCC4)cc3)nc1n2C1CCCCC1

>  <Name>  (428) 
nan

>  <Pocket>  (428) 
nan

>  <ATP_Site>  (428) 
nan

>  <Peripheral>  (428) 
nan

>  <Num_H_Atoms_ProtBoundConf>  (428) 
nan

>  <Num_Resolved_Atoms>  (428) 
nan

>  <Num_Not_Resolved_Atoms>  (428) 
nan

$$$$
CHEMBL2381611
     RDKit          3D

  0  0  0  0  0  0  0  0  0  0999 V3000
M  V30 BEGIN CTAB
M  V30 COUNTS 45 48 0 0 0
M  V30 BEGIN ATOM
M  V30 1 N 1.143913 -4.944885 4.505129 0
M  V30 2 C 0.360506 -4.253744 3.541606 0
M  V30 3 O -0.625215 -4.932359 3.222703 0
M  V30 4 C 0.771476 -2.938475 3.078833 0
M  V30 5 N 1.889644 -2.374144 3.559095 0
M  V30 6 C 2.321418 -1.183835 3.183305 0
M  V30 7 C 1.621876 -0.433336 2.245776 0
M  V30 8 N 2.029793 0.870795 1.806283 0
M  V30 9 C 1.438634 1.773341 0.816921 0 CFG=1
M  V30 10 C 2.237478 3.056291 0.860836 0
M  V30 11 C 3.596683 2.753062 0.288389 0
M  V30 12 C 3.516012 2.320704 -1.155357 0
M  V30 13 N 2.214293 1.899606 -1.546907 0
M  V30 14 C 1.442083 1.234789 -0.558334 0
M  V30 15 C 0.468569 -1.037619 1.763529 0
M  V30 16 N -0.461938 -0.681575 0.894369 0
M  V30 17 C -1.426512 -1.601530 0.734158 0
M  V30 18 C -2.587553 -1.511099 -0.147088 0
M  V30 19 C -3.467360 -2.574012 -0.164620 0
M  V30 20 C -4.554258 -2.487379 -0.990659 0
M  V30 21 C -4.769031 -1.370285 -1.786003 0
M  V30 22 Cl -6.184107 -1.284606 -2.845861 0
M  V30 23 C -3.873220 -0.312703 -1.753978 0
M  V30 24 C -2.774826 -0.402363 -0.917990 0
M  V30 25 C -1.075818 -2.632925 1.577487 0
M  V30 26 N 0.066483 -2.247345 2.171973 0
M  V30 27 H 1.978706 -5.540316 4.272962 0
M  V30 28 H 1.180933 -5.090190 5.556030 0
M  V30 29 H 3.218950 -0.773436 3.593476 0
M  V30 30 H 2.906597 1.175938 2.324980 0
M  V30 31 H 0.376157 1.986674 1.128315 0
M  V30 32 H 2.365278 3.334910 1.931357 0
M  V30 33 H 1.762797 3.864166 0.274710 0
M  V30 34 H 4.070813 1.975399 0.910841 0
M  V30 35 H 4.269782 3.650666 0.397664 0
M  V30 36 H 3.799534 3.200429 -1.769387 0
M  V30 37 H 4.249446 1.517630 -1.365915 0
M  V30 38 H 1.697002 2.559450 -2.156340 0
M  V30 39 H 1.772058 0.155563 -0.525206 0
M  V30 40 H 0.384749 1.195705 -0.937846 0
M  V30 41 H -3.336268 -3.467114 0.442241 0
M  V30 42 H -5.318761 -3.274335 -1.084427 0
M  V30 43 H -4.088558 0.535861 -2.395411 0
M  V30 44 H -2.112373 0.447057 -0.933003 0
M  V30 45 H -1.667033 -3.531428 1.671511 0
M  V30 END ATOM
M  V30 BEGIN BOND
M  V30 1 1 1 2
M  V30 2 2 2 3
M  V30 3 1 2 4
M  V30 4 2 4 5
M  V30 5 1 5 6
M  V30 6 2 6 7
M  V30 7 1 7 8
M  V30 8 1 8 9
M  V30 9 1 9 10
M  V30 10 1 10 11
M  V30 11 1 11 12
M  V30 12 1 12 13
M  V30 13 1 13 14
M  V30 14 1 7 15
M  V30 15 2 15 16
M  V30 16 1 16 17
M  V30 17 1 17 18
M  V30 18 2 18 19
M  V30 19 1 19 20
M  V30 20 2 20 21
M  V30 21 1 21 22
M  V30 22 1 21 23
M  V30 23 2 23 24
M  V30 24 2 17 25
M  V30 25 1 25 26
M  V30 26 1 26 4
M  V30 27 1 14 9
M  V30 28 1 26 15
M  V30 29 1 24 18
M  V30 30 1 1 27
M  V30 31 1 1 28
M  V30 32 1 6 29
M  V30 33 1 8 30
M  V30 34 1 9 31 CFG=1
M  V30 35 1 10 32
M  V30 36 1 10 33
M  V30 37 1 11 34
M  V30 38 1 11 35
M  V30 39 1 12 36
M  V30 40 1 12 37
M  V30 41 1 13 38
M  V30 42 1 14 39
M  V30 43 1 14 40
M  V30 44 1 19 41
M  V30 45 1 20 42
M  V30 46 1 23 43
M  V30 47 1 24 44
M  V30 48 1 25 45
M  V30 END BOND
M  V30 END CTAB
M  END
>  <Dataset>  (429) 
ChEMBL_Kinases

>  <Ligand_Instance>  (429) 
nan

>  <PDB_ID>  (429) 
nan

>  <Standardized_SMILES>  (429) 
NC(=O)c1ncc(N[C@H]2CCCNC2)c2nc(-c3ccc(Cl)cc3)cn12

>  <Name>  (429) 
nan

>  <Pocket>  (429) 
nan

>  <ATP_Site>  (429) 
nan

>  <Peripheral>  (429) 
nan

>  <Num_H_Atoms_ProtBoundConf>  (429) 
nan

>  <Num_Resolved_Atoms>  (429) 
nan

>  <Num_Not_Resolved_Atoms>  (429) 
nan

$$$$
CHEMBL2204104
     RDKit          3D

  0  0  0  0  0  0  0  0  0  0999 V3000
M  V30 BEGIN CTAB
M  V30 COUNTS 41 44 0 0 0
M  V30 BEGIN ATOM
M  V30 1 O 1.050060 -3.666145 1.016886 0
M  V30 2 C 0.907004 -2.486971 0.624344 0
M  V30 3 C 2.050965 -1.799050 0.285608 0
M  V30 4 C 3.306831 -2.407291 0.382419 0
M  V30 5 C 4.433669 -1.692084 0.035838 0
M  V30 6 C 4.313600 -0.398748 -0.398010 0
M  V30 7 Cl 5.743054 0.513647 -0.839434 0
M  V30 8 C 3.075147 0.233194 -0.504531 0
M  V30 9 C 1.957974 -0.496201 -0.153929 0
M  V30 10 N 0.719868 0.027072 -0.223120 0
M  V30 11 C 0.635789 1.376071 -0.679325 0
M  V30 12 C 0.491016 1.597636 -2.049372 0
M  V30 13 C 0.405979 2.889028 -2.531049 0
M  V30 14 C 0.462753 3.983786 -1.665037 0
M  V30 15 C 0.606642 3.733852 -0.311616 0
M  V30 16 C 0.694824 2.447033 0.202433 0
M  V30 17 C -0.369656 -0.690657 0.120998 0
M  V30 18 O -1.441855 -0.082132 0.007674 0
M  V30 19 N -0.331441 -1.965507 0.555806 0
M  V30 20 C -1.534906 -2.692202 0.913185 0
M  V30 21 C -1.840046 -2.499895 2.337661 0
M  V30 22 C -2.632257 -1.476480 2.807354 0
M  V30 23 C -2.952313 -1.246721 4.128556 0
M  V30 24 C -2.440435 -2.110824 5.074361 0
M  V30 25 C -1.639014 -3.157120 4.666857 0
M  V30 26 C -1.339641 -3.353081 3.314316 0
M  V30 27 H 3.372115 -3.447713 0.734221 0
M  V30 28 H 5.414974 -2.133105 0.099714 0
M  V30 29 H 2.955526 1.263691 -0.848081 0
M  V30 30 H 0.439813 0.802336 -2.776993 0
M  V30 31 H 0.292044 3.140301 -3.587901 0
M  V30 32 H 0.401280 5.024635 -1.983464 0
M  V30 33 H 0.655096 4.555354 0.396080 0
M  V30 34 H 0.806703 2.286437 1.264115 0
M  V30 35 H -2.380545 -2.215222 0.342570 0
M  V30 36 H -1.490102 -3.753765 0.611605 0
M  V30 37 H -3.068125 -0.759708 2.119141 0
M  V30 38 H -3.580983 -0.424672 4.440312 0
M  V30 39 H -2.646878 -1.995652 6.130060 0
M  V30 40 H -1.241521 -3.832857 5.430331 0
M  V30 41 H -0.710175 -4.186319 3.064501 0
M  V30 END ATOM
M  V30 BEGIN BOND
M  V30 1 2 1 2
M  V30 2 1 2 3
M  V30 3 2 3 4
M  V30 4 1 4 5
M  V30 5 2 5 6
M  V30 6 1 6 7
M  V30 7 1 6 8
M  V30 8 2 8 9
M  V30 9 1 9 10
M  V30 10 1 10 11
M  V30 11 2 11 12
M  V30 12 1 12 13
M  V30 13 2 13 14
M  V30 14 1 14 15
M  V30 15 2 15 16
M  V30 16 1 10 17
M  V30 17 2 17 18
M  V30 18 1 17 19
M  V30 19 1 19 20
M  V30 20 1 20 21
M  V30 21 2 21 22
M  V30 22 1 22 23
M  V30 23 2 23 24
M  V30 24 1 24 25
M  V30 25 2 25 26
M  V30 26 1 19 2
M  V30 27 1 26 21
M  V30 28 1 9 3
M  V30 29 1 16 11
M  V30 30 1 4 27
M  V30 31 1 5 28
M  V30 32 1 8 29
M  V30 33 1 12 30
M  V30 34 1 13 31
M  V30 35 1 14 32
M  V30 36 1 15 33
M  V30 37 1 16 34
M  V30 38 1 20 35
M  V30 39 1 20 36
M  V30 40 1 22 37
M  V30 41 1 23 38
M  V30 42 1 24 39
M  V30 43 1 25 40
M  V30 44 1 26 41
M  V30 END BOND
M  V30 END CTAB
M  END
>  <Dataset>  (430) 
ChEMBL_Kinases

>  <Ligand_Instance>  (430) 
nan

>  <PDB_ID>  (430) 
nan

>  <Standardized_SMILES>  (430) 
O=c1c2ccc(Cl)cc2n(-c2ccccc2)c(=O)n1Cc1ccccc1

>  <Name>  (430) 
nan

>  <Pocket>  (430) 
nan

>  <ATP_Site>  (430) 
nan

>  <Peripheral>  (430) 
nan

>  <Num_H_Atoms_ProtBoundConf>  (430) 
nan

>  <Num_Resolved_Atoms>  (430) 
nan

>  <Num_Not_Resolved_Atoms>  (430) 
nan

$$$$
CHEMBL4466150
     RDKit          3D

  0  0  0  0  0  0  0  0  0  0999 V3000
M  V30 BEGIN CTAB
M  V30 COUNTS 63 68 0 0 0
M  V30 BEGIN ATOM
M  V30 1 O 1.549040 -1.622626 6.431345 0
M  V30 2 C 1.289509 -1.244178 5.269536 0
M  V30 3 C 1.972345 -2.319843 4.503359 0
M  V30 4 C 2.651994 -3.308194 5.434937 0
M  V30 5 F 3.599853 -2.685353 6.217703 0
M  V30 6 F 1.716376 -3.980759 6.205286 0
M  V30 7 F 3.297377 -4.275999 4.689636 0
M  V30 8 N 0.620031 -0.220273 4.579840 0
M  V30 9 C 0.576292 -0.170916 3.127965 0
M  V30 10 C 0.792833 1.268333 2.694140 0
M  V30 11 N -0.184434 2.155571 3.211827 0
M  V30 12 C -1.076813 2.774175 2.296882 0
M  V30 13 C -0.474307 3.600945 1.251368 0
M  V30 14 C -0.200701 4.940599 1.504282 0
M  V30 15 C 0.373444 5.744244 0.514023 0
M  V30 16 N 0.667160 5.236561 -0.687130 0
M  V30 17 C 0.437040 3.943654 -1.025988 0
M  V30 18 N 0.764769 3.396535 -2.312624 0
M  V30 19 C 0.428597 2.003945 -2.489741 0
M  V30 20 N -0.769635 1.777455 -3.092125 0
M  V30 21 C -0.984297 0.459656 -3.190462 0
M  V30 22 C -1.970110 -0.385448 -3.673834 0
M  V30 23 C -1.839810 -1.755883 -3.590213 0
M  V30 24 C -0.700729 -2.279108 -3.011452 0
M  V30 25 C -0.532220 -3.732423 -2.886322 0
M  V30 26 N -1.424330 -4.652275 -3.298480 0
M  V30 27 C -0.977285 -5.899035 -3.039362 0
M  V30 28 C -1.759581 -7.129032 -3.385047 0
M  V30 29 C -3.279021 -6.935454 -3.239441 0
M  V30 30 C -2.586830 -7.036484 -4.599838 0
M  V30 31 N 0.224386 -5.695765 -2.453018 0
M  V30 32 O 0.458565 -4.424631 -2.376597 0
M  V30 33 C 0.337731 -1.489757 -2.502027 0
M  V30 34 C 0.140008 -0.129247 -2.619405 0
M  V30 35 N 0.994362 0.827880 -2.196190 0
M  V30 36 C -0.129118 3.196261 -0.017272 0
M  V30 37 C -0.903272 1.628618 4.350150 0
M  V30 38 C -0.058672 0.835153 5.284468 0
M  V30 39 H 1.182965 -2.853664 3.901693 0
M  V30 40 H 2.721749 -1.933802 3.798576 0
M  V30 41 H -0.393671 -0.559342 2.832009 0
M  V30 42 H 1.396569 -0.787825 2.728898 0
M  V30 43 H 1.805291 1.625892 3.010482 0
M  V30 44 H 0.777108 1.279370 1.593245 0
M  V30 45 H -1.731802 1.969247 1.856207 0
M  V30 46 H -1.800261 3.382039 2.918007 0
M  V30 47 H -0.435001 5.368065 2.480078 0
M  V30 48 H 0.554317 6.775016 0.784552 0
M  V30 49 H 1.205377 4.059525 -2.970875 0
M  V30 50 H -2.824101 0.101692 -4.110462 0
M  V30 51 H -2.619408 -2.404848 -3.973736 0
M  V30 52 H -1.310944 -8.081051 -3.052678 0
M  V30 53 H -3.650069 -5.900042 -3.027760 0
M  V30 54 H -3.892445 -7.792109 -2.894376 0
M  V30 55 H -2.555441 -6.160474 -5.256084 0
M  V30 56 H -2.866230 -7.977541 -5.145635 0
M  V30 57 H 1.212868 -1.919597 -2.058039 0
M  V30 58 H 1.919363 0.873937 -1.731450 0
M  V30 59 H -0.334046 2.148076 -0.277189 0
M  V30 60 H -1.376079 2.469908 4.933582 0
M  V30 61 H -1.744620 0.986331 4.018095 0
M  V30 62 H -0.691582 0.472033 6.097374 0
M  V30 63 H 0.754083 1.509697 5.685597 0
M  V30 END ATOM
M  V30 BEGIN BOND
M  V30 1 2 1 2
M  V30 2 1 2 3
M  V30 3 1 3 4
M  V30 4 1 4 5
M  V30 5 1 4 6
M  V30 6 1 4 7
M  V30 7 1 2 8
M  V30 8 1 8 9
M  V30 9 1 9 10
M  V30 10 1 10 11
M  V30 11 1 11 12
M  V30 12 1 12 13
M  V30 13 2 13 14
M  V30 14 1 14 15
M  V30 15 2 15 16
M  V30 16 1 16 17
M  V30 17 1 17 18
M  V30 18 1 18 19
M  V30 19 2 19 20
M  V30 20 1 20 21
M  V30 21 2 21 22
M  V30 22 1 22 23
M  V30 23 2 23 24
M  V30 24 1 24 25
M  V30 25 2 25 26
M  V30 26 1 26 27
M  V30 27 1 27 28
M  V30 28 1 28 29
M  V30 29 1 29 30
M  V30 30 2 27 31
M  V30 31 1 31 32
M  V30 32 1 24 33
M  V30 33 2 33 34
M  V30 34 1 34 35
M  V30 35 2 17 36
M  V30 36 1 11 37
M  V30 37 1 37 38
M  V30 38 1 38 8
M  V30 39 1 36 13
M  V30 40 1 35 19
M  V30 41 1 34 21
M  V30 42 1 32 25
M  V30 43 1 30 28
M  V30 44 1 3 39
M  V30 45 1 3 40
M  V30 46 1 9 41
M  V30 47 1 9 42
M  V30 48 1 10 43
M  V30 49 1 10 44
M  V30 50 1 12 45
M  V30 51 1 12 46
M  V30 52 1 14 47
M  V30 53 1 15 48
M  V30 54 1 18 49
M  V30 55 1 22 50
M  V30 56 1 23 51
M  V30 57 1 28 52
M  V30 58 1 29 53
M  V30 59 1 29 54
M  V30 60 1 30 55
M  V30 61 1 30 56
M  V30 62 1 33 57
M  V30 63 1 35 58
M  V30 64 1 36 59
M  V30 65 1 37 60
M  V30 66 1 37 61
M  V30 67 1 38 62
M  V30 68 1 38 63
M  V30 END BOND
M  V30 END CTAB
M  END
>  <Dataset>  (431) 
ChEMBL_Kinases

>  <Ligand_Instance>  (431) 
nan

>  <PDB_ID>  (431) 
nan

>  <Standardized_SMILES>  (431) 
O=C(CC(F)(F)F)N1CCN(Cc2ccnc(Nc3nc4ccc(-c5nc(C6CC6)no5)cc4[nH]3)c2)CC1

>  <Name>  (431) 
nan

>  <Pocket>  (431) 
nan

>  <ATP_Site>  (431) 
nan

>  <Peripheral>  (431) 
nan

>  <Num_H_Atoms_ProtBoundConf>  (431) 
nan

>  <Num_Resolved_Atoms>  (431) 
nan

>  <Num_Not_Resolved_Atoms>  (431) 
nan

$$$$
CHEMBL4466080
     RDKit          3D

  0  0  0  0  0  0  0  0  0  0999 V3000
M  V30 BEGIN CTAB
M  V30 COUNTS 40 42 0 0 0
M  V30 BEGIN ATOM
M  V30 1 N -1.456524 -5.130621 0.581124 0
M  V30 2 C -0.179382 -5.269822 -0.029580 0
M  V30 3 O 0.187675 -6.398790 -0.451752 0
M  V30 4 C 0.679635 -4.089622 -0.151818 0
M  V30 5 C 1.921751 -4.247799 -0.750891 0
M  V30 6 C 2.729147 -3.125584 -0.862836 0
M  V30 7 Cl 4.320726 -3.173494 -1.595397 0
M  V30 8 C 2.295203 -1.903671 -0.389304 0
M  V30 9 C 2.838307 -0.631018 -0.347320 0
M  V30 10 Cl 4.423443 -0.249409 -0.979649 0
M  V30 11 C 1.910088 0.218069 0.265903 0
M  V30 12 C 2.189353 1.613555 0.455361 0
M  V30 13 C 2.438632 2.783425 0.607379 0
M  V30 14 C 2.765152 4.196984 0.792216 0
M  V30 15 O 1.594150 4.973333 0.772528 0
M  V30 16 N 0.820954 -0.499383 0.597270 0
M  V30 17 C -0.328882 0.046970 1.242411 0 CFG=1
M  V30 18 C -0.976499 1.205569 0.536780 0
M  V30 19 C -1.875163 1.882310 1.580459 0
M  V30 20 C -2.435673 0.878496 2.549137 0
M  V30 21 N -2.611989 -0.427152 1.958867 0
M  V30 22 C -1.429291 -0.991852 1.388580 0
M  V30 23 C 1.055249 -1.766847 0.203951 0
M  V30 24 N 0.311158 -2.889909 0.286996 0
M  V30 25 H -1.410524 -4.853904 1.603303 0
M  V30 26 H -2.397037 -5.276800 0.109132 0
M  V30 27 H 2.282322 -5.201847 -1.130474 0
M  V30 28 H 3.454970 4.483063 -0.026237 0
M  V30 29 H 3.283081 4.282742 1.767063 0
M  V30 30 H 1.343045 5.124565 1.715023 0
M  V30 31 H -0.049441 0.328623 2.297382 0
M  V30 32 H -0.313817 1.980836 0.171860 0
M  V30 33 H -1.615234 0.785724 -0.271722 0
M  V30 34 H -2.701572 2.427562 1.089440 0
M  V30 35 H -1.287996 2.608101 2.181589 0
M  V30 36 H -1.858122 0.826129 3.505768 0
M  V30 37 H -3.446137 1.231016 2.849104 0
M  V30 38 H -3.447354 -0.416363 1.323441 0
M  V30 39 H -1.702435 -1.282445 0.331865 0
M  V30 40 H -1.117489 -1.899185 1.928875 0
M  V30 END ATOM
M  V30 BEGIN BOND
M  V30 1 1 1 2
M  V30 2 2 2 3
M  V30 3 1 2 4
M  V30 4 2 4 5
M  V30 5 1 5 6
M  V30 6 1 6 7
M  V30 7 2 6 8
M  V30 8 1 8 9
M  V30 9 1 9 10
M  V30 10 2 9 11
M  V30 11 1 11 12
M  V30 12 3 12 13
M  V30 13 1 13 14
M  V30 14 1 14 15
M  V30 15 1 11 16
M  V30 16 1 16 17
M  V30 17 1 17 18
M  V30 18 1 18 19
M  V30 19 1 19 20
M  V30 20 1 20 21
M  V30 21 1 21 22
M  V30 22 1 16 23
M  V30 23 2 23 24
M  V30 24 1 24 4
M  V30 25 1 23 8
M  V30 26 1 22 17
M  V30 27 1 1 25
M  V30 28 1 1 26
M  V30 29 1 5 27
M  V30 30 1 14 28
M  V30 31 1 14 29
M  V30 32 1 15 30
M  V30 33 1 17 31 CFG=1
M  V30 34 1 18 32
M  V30 35 1 18 33
M  V30 36 1 19 34
M  V30 37 1 19 35
M  V30 38 1 20 36
M  V30 39 1 20 37
M  V30 40 1 21 38
M  V30 41 1 22 39
M  V30 42 1 22 40
M  V30 END BOND
M  V30 END CTAB
M  END
>  <Dataset>  (432) 
ChEMBL_Kinases

>  <Ligand_Instance>  (432) 
nan

>  <PDB_ID>  (432) 
nan

>  <Standardized_SMILES>  (432) 
NC(=O)c1cc(Cl)c2c(Cl)c(C#CCO)n([C@H]3CCCNC3)c2n1

>  <Name>  (432) 
nan

>  <Pocket>  (432) 
nan

>  <ATP_Site>  (432) 
nan

>  <Peripheral>  (432) 
nan

>  <Num_H_Atoms_ProtBoundConf>  (432) 
nan

>  <Num_Resolved_Atoms>  (432) 
nan

>  <Num_Not_Resolved_Atoms>  (432) 
nan

$$$$
CHEMBL3698665
     RDKit          3D

  0  0  0  0  0  0  0  0  0  0999 V3000
M  V30 BEGIN CTAB
M  V30 COUNTS 54 59 0 0 0
M  V30 BEGIN ATOM
M  V30 1 C 2.987203 -7.233090 -0.214998 0
M  V30 2 C 3.286593 -5.899990 -0.288911 0
M  V30 3 C 2.246024 -5.011953 -0.565314 0
M  V30 4 C 2.360359 -3.642031 -0.678822 0
M  V30 5 C 3.343400 -2.672950 -0.591407 0
M  V30 6 N 3.031784 -1.362854 -0.775757 0
M  V30 7 C 1.757157 -0.986815 -1.047468 0
M  V30 8 N 1.706131 0.426009 -1.187886 0
M  V30 9 C 0.913137 1.181993 -0.270476 0
M  V30 10 C 0.192275 0.524764 0.708000 0
M  V30 11 C -0.555225 1.288235 1.574562 0
M  V30 12 C -0.605036 2.662092 1.497137 0
M  V30 13 N -1.341274 3.550133 2.329727 0
M  V30 14 C -1.235345 4.999868 2.335582 0
M  V30 15 C -1.310343 5.560006 3.725713 0
M  V30 16 N -0.874555 4.545033 4.663867 0
M  V30 17 C -1.860820 3.477039 4.717281 0
M  V30 18 C -2.339772 3.131208 3.320749 0
M  V30 19 C 0.131534 3.271550 0.504405 0
M  V30 20 N 0.874914 2.534445 -0.360108 0
M  V30 21 N 0.805864 -1.918391 -1.132513 0
M  V30 22 C 1.067429 -3.244143 -0.955361 0
M  V30 23 N 0.203410 -4.273288 -1.012275 0
M  V30 24 C -1.206841 -4.352248 -1.259090 0
M  V30 25 C -1.496725 -4.315722 -2.745241 0
M  V30 26 C -2.164931 -2.969133 -2.575275 0
M  V30 27 C -1.996415 -3.096002 -1.073684 0
M  V30 28 C 0.933942 -5.375346 -0.770385 0
M  V30 29 C 0.711532 -6.733057 -0.679972 0
M  V30 30 N 1.703175 -7.627737 -0.412058 0
M  V30 31 H 3.762111 -7.952827 -0.002181 0
M  V30 32 H 4.300780 -5.605076 -0.133173 0
M  V30 33 H 4.330109 -3.050582 -0.372961 0
M  V30 34 H 2.227001 0.921080 -1.938044 0
M  V30 35 H 0.202529 -0.541190 0.802430 0
M  V30 36 H -1.143444 0.840380 2.362994 0
M  V30 37 H -0.315710 5.375488 1.871747 0
M  V30 38 H -2.100030 5.429577 1.754844 0
M  V30 39 H -0.610104 6.426978 3.826962 0
M  V30 40 H -2.325639 5.886155 4.023545 0
M  V30 41 H 0.072791 4.186183 4.414772 0
M  V30 42 H -2.699488 3.824770 5.354347 0
M  V30 43 H -1.396687 2.587794 5.209061 0
M  V30 44 H -3.271120 3.690202 3.082673 0
M  V30 45 H -2.495488 2.039537 3.269705 0
M  V30 46 H 0.242099 4.310272 0.258388 0
M  V30 47 H -1.714309 -5.181102 -0.710888 0
M  V30 48 H -2.163061 -5.149328 -3.054145 0
M  V30 49 H -0.613758 -4.259420 -3.407279 0
M  V30 50 H -1.634626 -2.121290 -3.050646 0
M  V30 51 H -3.233066 -3.042845 -2.931140 0
M  V30 52 H -2.997812 -3.225432 -0.599883 0
M  V30 53 H -1.484253 -2.254223 -0.568960 0
M  V30 54 H -0.316447 -7.096179 -0.833491 0
M  V30 END ATOM
M  V30 BEGIN BOND
M  V30 1 2 1 2
M  V30 2 1 2 3
M  V30 3 1 3 4
M  V30 4 2 4 5
M  V30 5 1 5 6
M  V30 6 2 6 7
M  V30 7 1 7 8
M  V30 8 1 8 9
M  V30 9 2 9 10
M  V30 10 1 10 11
M  V30 11 2 11 12
M  V30 12 1 12 13
M  V30 13 1 13 14
M  V30 14 1 14 15
M  V30 15 1 15 16
M  V30 16 1 16 17
M  V30 17 1 17 18
M  V30 18 1 12 19
M  V30 19 2 19 20
M  V30 20 1 7 21
M  V30 21 2 21 22
M  V30 22 1 22 23
M  V30 23 1 23 24
M  V30 24 1 24 25
M  V30 25 1 25 26
M  V30 26 1 26 27
M  V30 27 1 23 28
M  V30 28 1 28 29
M  V30 29 2 29 30
M  V30 30 1 30 1
M  V30 31 2 28 3
M  V30 32 1 22 4
M  V30 33 1 27 24
M  V30 34 1 20 9
M  V30 35 1 18 13
M  V30 36 1 1 31
M  V30 37 1 2 32
M  V30 38 1 5 33
M  V30 39 1 8 34
M  V30 40 1 10 35
M  V30 41 1 11 36
M  V30 42 1 14 37
M  V30 43 1 14 38
M  V30 44 1 15 39
M  V30 45 1 15 40
M  V30 46 1 16 41
M  V30 47 1 17 42
M  V30 48 1 17 43
M  V30 49 1 18 44
M  V30 50 1 18 45
M  V30 51 1 19 46
M  V30 52 1 24 47
M  V30 53 1 25 48
M  V30 54 1 25 49
M  V30 55 1 26 50
M  V30 56 1 26 51
M  V30 57 1 27 52
M  V30 58 1 27 53
M  V30 59 1 29 54
M  V30 END BOND
M  V30 END CTAB
M  END
>  <Dataset>  (433) 
ChEMBL_Kinases

>  <Ligand_Instance>  (433) 
nan

>  <PDB_ID>  (433) 
nan

>  <Standardized_SMILES>  (433) 
c1cc2c3cnc(Nc4ccc(N5CCNCC5)cn4)nc3n(C3CCC3)c2cn1

>  <Name>  (433) 
nan

>  <Pocket>  (433) 
nan

>  <ATP_Site>  (433) 
nan

>  <Peripheral>  (433) 
nan

>  <Num_H_Atoms_ProtBoundConf>  (433) 
nan

>  <Num_Resolved_Atoms>  (433) 
nan

>  <Num_Not_Resolved_Atoms>  (433) 
nan

$$$$
CHEMBL4465838
     RDKit          3D

  0  0  0  0  0  0  0  0  0  0999 V3000
M  V30 BEGIN CTAB
M  V30 COUNTS 77 80 0 0 0
M  V30 BEGIN ATOM
M  V30 1 C 4.552553 2.389178 -2.237131 0
M  V30 2 N 3.608291 1.706378 -1.372931 0
M  V30 3 C 4.012506 0.734349 -0.355946 0
M  V30 4 C 2.330126 2.196951 -1.744202 0
M  V30 5 O 2.734076 2.997454 -2.663495 0
M  V30 6 C 0.867436 2.298308 -1.670755 0 CFG=2
M  V30 7 C 0.392406 3.724231 -1.525703 0
M  V30 8 C 0.859964 4.446554 -0.308449 0
M  V30 9 C 0.229723 5.847309 -0.406842 0
M  V30 10 C 0.700658 6.529075 -1.655594 0
M  V30 11 C 0.558953 8.030354 -1.410070 0
M  V30 12 C 1.639227 8.363739 -0.402731 0
M  V30 13 C 1.268981 7.742185 0.903340 0
M  V30 14 C 0.292193 6.624250 0.844016 0
M  V30 15 N 0.286372 1.416327 -0.679275 0
M  V30 16 C -0.927367 0.697200 -0.773522 0
M  V30 17 O -1.706699 0.731274 -1.761835 0
M  V30 18 C -1.361120 -0.162987 0.321269 0
M  V30 19 C -2.683099 -0.543181 0.477816 0
M  V30 20 C -3.156861 -1.396455 1.472268 0
M  V30 21 C -2.198897 -1.875935 2.346209 0
M  V30 22 C -2.568704 -2.813227 3.468823 0
M  V30 23 N -2.674344 -4.168199 2.973717 0
M  V30 24 C -1.688938 -5.095891 2.561981 0
M  V30 25 O -0.490662 -4.730441 2.614469 0
M  V30 26 C -2.045418 -6.439514 2.078272 0
M  V30 27 C -3.322953 -6.994387 2.086959 0
M  V30 28 N -3.133157 -8.231004 1.562609 0
M  V30 29 N -1.850910 -8.393631 1.272444 0
M  V30 30 C -1.560530 -9.656494 0.706198 0
M  V30 31 C -1.858550 -9.753884 -0.649026 0
M  V30 32 C -1.615998 -10.954599 -1.296260 0
M  V30 33 C -1.096416 -12.068632 -0.691189 0
M  V30 34 C -0.804550 -11.953228 0.660017 0
M  V30 35 C -1.039584 -10.763815 1.324658 0
M  V30 36 C -1.115628 -7.311099 1.571629 0
M  V30 37 N 0.272904 -7.224910 1.356711 0
M  V30 38 C -0.864989 -1.543818 2.256488 0
M  V30 39 C -0.485115 -0.688337 1.234640 0
M  V30 40 H 4.536365 3.493597 -2.092299 0
M  V30 41 H 4.361025 2.221724 -3.316917 0
M  V30 42 H 5.578983 2.008226 -2.027651 0
M  V30 43 H 3.201657 0.769794 0.428438 0
M  V30 44 H 4.994357 1.017198 0.094999 0
M  V30 45 H 4.059967 -0.300627 -0.731701 0
M  V30 46 H 0.427013 1.977829 -2.634913 0
M  V30 47 H 0.817880 4.306250 -2.402948 0
M  V30 48 H -0.706839 3.769959 -1.705478 0
M  V30 49 H 0.574138 3.979996 0.646564 0
M  V30 50 H 1.969502 4.486086 -0.330298 0
M  V30 51 H -0.867059 5.604209 -0.611856 0
M  V30 52 H 1.788353 6.339131 -1.772671 0
M  V30 53 H 0.200620 6.225238 -2.584939 0
M  V30 54 H 0.729382 8.508924 -2.401830 0
M  V30 55 H -0.452327 8.276913 -0.992392 0
M  V30 56 H 1.847517 9.448524 -0.354732 0
M  V30 57 H 2.578837 7.841296 -0.749014 0
M  V30 58 H 0.829611 8.517000 1.585767 0
M  V30 59 H 2.204875 7.395587 1.433552 0
M  V30 60 H -0.750447 7.000305 1.089042 0
M  V30 61 H 0.537512 5.917846 1.678148 0
M  V30 62 H 0.883594 1.348313 0.197062 0
M  V30 63 H -3.398208 -0.149670 -0.227816 0
M  V30 64 H -4.194731 -1.668223 1.566579 0
M  V30 65 H -3.500192 -2.515666 3.970420 0
M  V30 66 H -1.781298 -2.817311 4.240135 0
M  V30 67 H -3.666208 -4.554803 2.901796 0
M  V30 68 H -4.253588 -6.526480 2.435309 0
M  V30 69 H -2.275334 -8.966312 -1.270968 0
M  V30 70 H -1.848602 -11.052137 -2.355611 0
M  V30 71 H -0.907762 -13.001216 -1.201610 0
M  V30 72 H -0.395777 -12.814107 1.157071 0
M  V30 73 H -0.822521 -10.644200 2.388474 0
M  V30 74 H 0.371194 -6.359101 0.738901 0
M  V30 75 H 0.386043 -6.381853 0.754217 0
M  V30 76 H -0.093819 -1.902678 2.924177 0
M  V30 77 H 0.542150 -0.423998 1.151089 0
M  V30 END ATOM
M  V30 BEGIN BOND
M  V30 1 1 1 2
M  V30 2 1 2 3
M  V30 3 1 2 4
M  V30 4 2 4 5
M  V30 5 1 4 6
M  V30 6 1 6 7
M  V30 7 1 7 8
M  V30 8 1 8 9
M  V30 9 1 9 10
M  V30 10 1 10 11
M  V30 11 1 11 12
M  V30 12 1 12 13
M  V30 13 1 13 14
M  V30 14 1 6 15
M  V30 15 1 15 16
M  V30 16 2 16 17
M  V30 17 1 16 18
M  V30 18 2 18 19
M  V30 19 1 19 20
M  V30 20 2 20 21
M  V30 21 1 21 22
M  V30 22 1 22 23
M  V30 23 1 23 24
M  V30 24 2 24 25
M  V30 25 1 24 26
M  V30 26 1 26 27
M  V30 27 2 27 28
M  V30 28 1 28 29
M  V30 29 1 29 30
M  V30 30 2 30 31
M  V30 31 1 31 32
M  V30 32 2 32 33
M  V30 33 1 33 34
M  V30 34 2 34 35
M  V30 35 1 29 36
M  V30 36 1 36 37
M  V30 37 1 21 38
M  V30 38 2 38 39
M  V30 39 1 14 9
M  V30 40 1 39 18
M  V30 41 2 36 26
M  V30 42 1 35 30
M  V30 43 1 1 40
M  V30 44 1 1 41
M  V30 45 1 1 42
M  V30 46 1 3 43
M  V30 47 1 3 44
M  V30 48 1 3 45
M  V30 49 1 6 46 CFG=3
M  V30 50 1 7 47
M  V30 51 1 7 48
M  V30 52 1 8 49
M  V30 53 1 8 50
M  V30 54 1 9 51
M  V30 55 1 10 52
M  V30 56 1 10 53
M  V30 57 1 11 54
M  V30 58 1 11 55
M  V30 59 1 12 56
M  V30 60 1 12 57
M  V30 61 1 13 58
M  V30 62 1 13 59
M  V30 63 1 14 60
M  V30 64 1 14 61
M  V30 65 1 15 62
M  V30 66 1 19 63
M  V30 67 1 20 64
M  V30 68 1 22 65
M  V30 69 1 22 66
M  V30 70 1 23 67
M  V30 71 1 27 68
M  V30 72 1 31 69
M  V30 73 1 32 70
M  V30 74 1 33 71
M  V30 75 1 34 72
M  V30 76 1 35 73
M  V30 77 1 37 74
M  V30 78 1 37 75
M  V30 79 1 38 76
M  V30 80 1 39 77
M  V30 END BOND
M  V30 END CTAB
M  END
>  <Dataset>  (434) 
ChEMBL_Kinases

>  <Ligand_Instance>  (434) 
nan

>  <PDB_ID>  (434) 
nan

>  <Standardized_SMILES>  (434) 
CN(C)C(=O)[C@H](CCC1CCCCC1)NC(=O)c1ccc(CNC(=O)c2cnn(-c3ccccc3)c2N)cc1

>  <Name>  (434) 
nan

>  <Pocket>  (434) 
nan

>  <ATP_Site>  (434) 
nan

>  <Peripheral>  (434) 
nan

>  <Num_H_Atoms_ProtBoundConf>  (434) 
nan

>  <Num_Resolved_Atoms>  (434) 
nan

>  <Num_Not_Resolved_Atoms>  (434) 
nan

$$$$
CHEMBL3698664
     RDKit          3D

  0  0  0  0  0  0  0  0  0  0999 V3000
M  V30 BEGIN CTAB
M  V30 COUNTS 66 71 0 0 0
M  V30 BEGIN ATOM
M  V30 1 C -1.028107 0.838983 1.983537 0
M  V30 2 C 0.359266 1.391321 1.748533 0 CFG=1
M  V30 3 C 1.263220 0.226706 1.444842 0
M  V30 4 C 2.682456 0.584271 1.183949 0
M  V30 5 C 3.523773 0.851751 2.383763 0
M  V30 6 C 3.390452 -0.203352 3.455773 0
M  V30 7 C 1.950636 -0.517195 3.756282 0
M  V30 8 C 1.148621 -0.799912 2.521718 0
M  V30 9 N 0.407480 2.408269 0.724543 0
M  V30 10 C 0.797647 3.702140 0.798118 0
M  V30 11 C 1.266319 4.409467 1.907262 0
M  V30 12 N 1.610817 5.722502 1.766578 0
M  V30 13 C 1.502527 6.341618 0.567062 0
M  V30 14 C 1.035732 5.637305 -0.537868 0
M  V30 15 C 0.677319 4.308393 -0.436280 0
M  V30 16 C 0.194939 3.339187 -1.287145 0
M  V30 17 C -0.094482 3.450699 -2.632935 0
M  V30 18 N -0.560817 2.334517 -3.239463 0
M  V30 19 C -0.728352 1.178592 -2.547441 0
M  V30 20 N -1.221817 0.006862 -3.200357 0
M  V30 21 C -1.413348 -1.228123 -2.513984 0
M  V30 22 C -1.888650 -2.346649 -3.154550 0
M  V30 23 C -2.063118 -3.539261 -2.447959 0
M  V30 24 C -1.745673 -3.543336 -1.115651 0
M  V30 25 N -1.929109 -4.763099 -0.413711 0
M  V30 26 C -2.433507 -5.912189 -1.138217 0
M  V30 27 C -2.428396 -7.090137 -0.191626 0
M  V30 28 N -3.192207 -6.841417 1.001536 0
M  V30 29 C -2.959100 -5.559373 1.590804 0
M  V30 30 C -1.662862 -5.004390 0.989646 0
M  V30 31 C -1.272434 -2.395280 -0.519276 0
M  V30 32 N -1.107285 -1.256035 -1.200564 0
M  V30 33 N -0.443449 1.064049 -1.216912 0
M  V30 34 C 0.028095 2.155700 -0.559021 0
M  V30 35 H -1.741359 1.571907 1.523188 0
M  V30 36 H -1.211020 -0.114413 1.453343 0
M  V30 37 H -1.286173 0.796305 3.062006 0
M  V30 38 H 0.698239 1.815162 2.725038 0
M  V30 39 H 0.858979 -0.235895 0.513643 0
M  V30 40 H 2.719491 1.517569 0.556718 0
M  V30 41 H 3.144114 -0.227416 0.587684 0
M  V30 42 H 4.595803 0.808267 2.037881 0
M  V30 43 H 3.387630 1.847140 2.830314 0
M  V30 44 H 3.864565 0.198739 4.375338 0
M  V30 45 H 3.947621 -1.125870 3.212049 0
M  V30 46 H 1.543657 0.293781 4.370805 0
M  V30 47 H 1.931579 -1.461175 4.359269 0
M  V30 48 H 0.118793 -1.000473 2.839880 0
M  V30 49 H 1.530942 -1.788085 2.131192 0
M  V30 50 H 1.348889 3.902847 2.863496 0
M  V30 51 H 1.772633 7.387066 0.437574 0
M  V30 52 H 0.932577 6.089901 -1.515176 0
M  V30 53 H 0.045181 4.367166 -3.152957 0
M  V30 54 H -1.450470 0.058415 -4.218961 0
M  V30 55 H -2.119107 -2.274328 -4.205275 0
M  V30 56 H -2.437921 -4.365058 -3.020776 0
M  V30 57 H -1.751895 -6.153056 -1.979580 0
M  V30 58 H -3.442064 -5.709225 -1.548974 0
M  V30 59 H -1.391191 -7.415177 -0.024989 0
M  V30 60 H -2.918775 -7.942031 -0.725272 0
M  V30 61 H -2.981131 -7.574922 1.702242 0
M  V30 62 H -2.823571 -5.598707 2.692550 0
M  V30 63 H -3.790489 -4.880138 1.396859 0
M  V30 64 H -0.868785 -5.789841 1.090664 0
M  V30 65 H -1.316491 -4.133871 1.545064 0
M  V30 66 H -1.020053 -2.391467 0.531412 0
M  V30 END ATOM
M  V30 BEGIN BOND
M  V30 1 1 1 2
M  V30 2 1 2 3
M  V30 3 1 3 4
M  V30 4 1 4 5
M  V30 5 1 5 6
M  V30 6 1 6 7
M  V30 7 1 7 8
M  V30 8 1 2 9
M  V30 9 1 9 10
M  V30 10 2 10 11
M  V30 11 1 11 12
M  V30 12 2 12 13
M  V30 13 1 13 14
M  V30 14 2 14 15
M  V30 15 1 15 16
M  V30 16 2 16 17
M  V30 17 1 17 18
M  V30 18 2 18 19
M  V30 19 1 19 20
M  V30 20 1 20 21
M  V30 21 2 21 22
M  V30 22 1 22 23
M  V30 23 2 23 24
M  V30 24 1 24 25
M  V30 25 1 25 26
M  V30 26 1 26 27
M  V30 27 1 27 28
M  V30 28 1 28 29
M  V30 29 1 29 30
M  V30 30 1 24 31
M  V30 31 2 31 32
M  V30 32 1 19 33
M  V30 33 2 33 34
M  V30 34 1 8 3
M  V30 35 1 34 9
M  V30 36 1 15 10
M  V30 37 1 34 16
M  V30 38 1 32 21
M  V30 39 1 30 25
M  V30 40 1 1 35
M  V30 41 1 1 36
M  V30 42 1 1 37
M  V30 43 1 2 38 CFG=1
M  V30 44 1 3 39
M  V30 45 1 4 40
M  V30 46 1 4 41
M  V30 47 1 5 42
M  V30 48 1 5 43
M  V30 49 1 6 44
M  V30 50 1 6 45
M  V30 51 1 7 46
M  V30 52 1 7 47
M  V30 53 1 8 48
M  V30 54 1 8 49
M  V30 55 1 11 50
M  V30 56 1 13 51
M  V30 57 1 14 52
M  V30 58 1 17 53
M  V30 59 1 20 54
M  V30 60 1 22 55
M  V30 61 1 23 56
M  V30 62 1 26 57
M  V30 63 1 26 58
M  V30 64 1 27 59
M  V30 65 1 27 60
M  V30 66 1 28 61
M  V30 67 1 29 62
M  V30 68 1 29 63
M  V30 69 1 30 64
M  V30 70 1 30 65
M  V30 71 1 31 66
M  V30 END BOND
M  V30 END CTAB
M  END
>  <Dataset>  (435) 
ChEMBL_Kinases

>  <Ligand_Instance>  (435) 
nan

>  <PDB_ID>  (435) 
nan

>  <Standardized_SMILES>  (435) 
C[C@@H](C1CCCCC1)n1c2cnccc2c2cnc(Nc3ccc(N4CCNCC4)cn3)nc21

>  <Name>  (435) 
nan

>  <Pocket>  (435) 
nan

>  <ATP_Site>  (435) 
nan

>  <Peripheral>  (435) 
nan

>  <Num_H_Atoms_ProtBoundConf>  (435) 
nan

>  <Num_Resolved_Atoms>  (435) 
nan

>  <Num_Not_Resolved_Atoms>  (435) 
nan

$$$$
CHEMBL4465725
     RDKit          3D

  0  0  0  0  0  0  0  0  0  0999 V3000
M  V30 BEGIN CTAB
M  V30 COUNTS 64 67 0 0 0
M  V30 BEGIN ATOM
M  V30 1 C 4.372724 -3.239399 3.490926 0
M  V30 2 O 4.852553 -1.986295 3.916187 0
M  V30 3 C 4.527649 -0.802937 3.276143 0
M  V30 4 C 5.131513 0.299586 3.885965 0
M  V30 5 C 4.912062 1.580695 3.367649 0
M  V30 6 C 4.113849 1.785476 2.268558 0
M  V30 7 C 3.525912 0.684539 1.680233 0
M  V30 8 C 2.651047 0.762057 0.480378 0 CFG=1
M  V30 9 C 3.371576 0.174906 -0.741912 0
M  V30 10 N 1.450997 0.019607 0.774474 0
M  V30 11 C 0.239315 0.742270 0.548298 0
M  V30 12 O 0.271421 1.951692 0.112990 0
M  V30 13 C -1.202552 0.569475 0.651281 0
M  V30 14 C -1.804186 1.095623 1.800945 0
M  V30 15 C -3.156571 1.037673 2.059544 0
M  V30 16 C -3.905417 0.400406 1.067271 0
M  V30 17 C -5.342335 0.336952 1.319690 0
M  V30 18 C -6.273149 -0.236617 0.484898 0
M  V30 19 C -7.621064 -0.263772 0.773999 0
M  V30 20 N -8.058700 0.288864 1.914656 0
M  V30 21 C -7.162281 0.863913 2.761178 0
M  V30 22 N -5.871810 0.864787 2.437514 0
M  V30 23 C -3.320298 -0.117231 -0.061011 0
M  V30 24 C -1.976037 -0.038427 -0.277586 0
M  V30 25 N -1.432454 -0.608132 -1.471235 0
M  V30 26 C -0.613450 0.163291 -2.387382 0
M  V30 27 C -0.562641 -0.698712 -3.662578 0
M  V30 28 C 0.054909 -2.034163 -3.367663 0
M  V30 29 C -0.665750 -2.816198 -2.304599 0 CFG=1
M  V30 30 C 0.262536 -3.234214 -1.179840 0
M  V30 31 N -0.491003 -3.975498 -0.200389 0
M  V30 32 C -1.765616 -1.992012 -1.728932 0
M  V30 33 C 3.733698 -0.582971 2.180622 0
M  V30 34 H 3.633097 -3.217894 2.692136 0
M  V30 35 H 5.244567 -3.905510 3.233701 0
M  V30 36 H 3.861927 -3.762745 4.351353 0
M  V30 37 H 5.791390 0.332581 4.760588 0
M  V30 38 H 5.348642 2.488418 3.787780 0
M  V30 39 H 3.932104 2.770648 1.853372 0
M  V30 40 H 2.461627 1.803388 0.204661 0
M  V30 41 H 4.467045 0.301101 -0.549021 0
M  V30 42 H 3.182779 0.766730 -1.659068 0
M  V30 43 H 3.084872 -0.850004 -0.961782 0
M  V30 44 H 1.129733 -0.904462 1.114578 0
M  V30 45 H -1.185309 1.590793 2.561741 0
M  V30 46 H -3.565940 1.462487 2.966757 0
M  V30 47 H -5.920602 -0.685949 -0.441377 0
M  V30 48 H -8.286103 -0.738405 0.056388 0
M  V30 49 H -7.569259 1.292591 3.662237 0
M  V30 50 H -3.924970 -0.605111 -0.810539 0
M  V30 51 H -1.039245 1.142693 -2.631704 0
M  V30 52 H 0.422109 0.263778 -2.054093 0
M  V30 53 H -1.575398 -0.858944 -4.037942 0
M  V30 54 H 0.069515 -0.218119 -4.434338 0
M  V30 55 H 1.148185 -1.962261 -3.170660 0
M  V30 56 H -0.015698 -2.617919 -4.320246 0
M  V30 57 H -1.150864 -3.723630 -2.751009 0
M  V30 58 H 0.696989 -2.355390 -0.711535 0
M  V30 59 H 1.050344 -3.935795 -1.569093 0
M  V30 60 H -0.234049 -4.968126 -0.099417 0
M  V30 61 H -0.628403 -3.485515 0.690461 0
M  V30 62 H -2.642874 -2.038931 -2.424300 0
M  V30 63 H -2.124229 -2.504608 -0.806919 0
M  V30 64 H 3.302035 -1.456502 1.760733 0
M  V30 END ATOM
M  V30 BEGIN BOND
M  V30 1 1 1 2
M  V30 2 1 2 3
M  V30 3 2 3 4
M  V30 4 1 4 5
M  V30 5 2 5 6
M  V30 6 1 6 7
M  V30 7 1 7 8
M  V30 8 1 8 9
M  V30 9 1 8 10
M  V30 10 1 10 11
M  V30 11 2 11 12
M  V30 12 1 11 13
M  V30 13 2 13 14
M  V30 14 1 14 15
M  V30 15 2 15 16
M  V30 16 1 16 17
M  V30 17 2 17 18
M  V30 18 1 18 19
M  V30 19 2 19 20
M  V30 20 1 20 21
M  V30 21 2 21 22
M  V30 22 1 16 23
M  V30 23 2 23 24
M  V30 24 1 24 25
M  V30 25 1 25 26
M  V30 26 1 26 27
M  V30 27 1 27 28
M  V30 28 1 28 29
M  V30 29 1 29 30
M  V30 30 1 30 31
M  V30 31 1 29 32
M  V30 32 2 7 33
M  V30 33 1 33 3
M  V30 34 1 24 13
M  V30 35 1 32 25
M  V30 36 1 22 17
M  V30 37 1 1 34
M  V30 38 1 1 35
M  V30 39 1 1 36
M  V30 40 1 4 37
M  V30 41 1 5 38
M  V30 42 1 6 39
M  V30 43 1 8 40 CFG=3
M  V30 44 1 9 41
M  V30 45 1 9 42
M  V30 46 1 9 43
M  V30 47 1 10 44
M  V30 48 1 14 45
M  V30 49 1 15 46
M  V30 50 1 18 47
M  V30 51 1 19 48
M  V30 52 1 21 49
M  V30 53 1 23 50
M  V30 54 1 26 51
M  V30 55 1 26 52
M  V30 56 1 27 53
M  V30 57 1 27 54
M  V30 58 1 28 55
M  V30 59 1 28 56
M  V30 60 1 29 57 CFG=3
M  V30 61 1 30 58
M  V30 62 1 30 59
M  V30 63 1 31 60
M  V30 64 1 31 61
M  V30 65 1 32 62
M  V30 66 1 32 63
M  V30 67 1 33 64
M  V30 END BOND
M  V30 END CTAB
M  END
>  <Dataset>  (436) 
ChEMBL_Kinases

>  <Ligand_Instance>  (436) 
nan

>  <PDB_ID>  (436) 
nan

>  <Standardized_SMILES>  (436) 
COc1cccc([C@@H](C)NC(=O)c2ccc(-c3ccncn3)cc2N2CCC[C@@H](CN)C2)c1

>  <Name>  (436) 
nan

>  <Pocket>  (436) 
nan

>  <ATP_Site>  (436) 
nan

>  <Peripheral>  (436) 
nan

>  <Num_H_Atoms_ProtBoundConf>  (436) 
nan

>  <Num_Resolved_Atoms>  (436) 
nan

>  <Num_Not_Resolved_Atoms>  (436) 
nan

$$$$
CHEMBL3698663
     RDKit          3D

  0  0  0  0  0  0  0  0  0  0999 V3000
M  V30 BEGIN CTAB
M  V30 COUNTS 66 71 0 0 0
M  V30 BEGIN ATOM
M  V30 1 C 2.406156 -0.493320 0.974535 0
M  V30 2 C 2.004254 0.838661 1.557694 0 CFG=2
M  V30 3 C 0.933122 0.761056 2.597810 0
M  V30 4 C 0.626020 2.175330 3.097126 0
M  V30 5 C -0.435051 2.121440 4.195923 0
M  V30 6 C -1.694220 1.496729 3.692302 0
M  V30 7 C -1.564167 0.871595 2.320858 0
M  V30 8 C -0.295039 0.012582 2.236500 0
M  V30 9 N 1.819689 1.876814 0.576183 0
M  V30 10 C 2.300732 3.155864 0.582422 0
M  V30 11 C 3.090836 3.831561 1.501845 0
M  V30 12 N 3.479103 5.113349 1.346152 0
M  V30 13 C 3.109671 5.811876 0.267251 0
M  V30 14 C 2.323114 5.176838 -0.672149 0
M  V30 15 C 1.918440 3.863869 -0.524576 0
M  V30 16 C 1.158476 2.976508 -1.258967 0
M  V30 17 C 0.534102 3.198174 -2.471539 0
M  V30 18 N -0.158717 2.179202 -3.008811 0
M  V30 19 C -0.219752 0.988314 -2.352791 0
M  V30 20 N -0.965410 -0.054840 -2.964493 0
M  V30 21 C -1.136092 -1.369254 -2.442620 0
M  V30 22 C -1.862207 -2.387361 -3.029784 0
M  V30 23 C -1.959882 -3.630669 -2.433489 0
M  V30 24 C -1.314861 -3.841862 -1.231047 0
M  V30 25 N -1.455293 -5.142257 -0.671353 0
M  V30 26 C -2.235631 -6.137335 -1.337094 0
M  V30 27 C -2.280144 -7.388849 -0.515143 0
M  V30 28 N -2.701602 -7.187393 0.854268 0
M  V30 29 C -1.989729 -6.092932 1.485434 0
M  V30 30 C -0.883004 -5.644552 0.561685 0
M  V30 31 C -0.587885 -2.826554 -0.640496 0
M  V30 32 N -0.529719 -1.636856 -1.269832 0
M  V30 33 N 0.390528 0.778388 -1.171782 0
M  V30 34 C 1.100892 1.756818 -0.578383 0
M  V30 35 H 3.286612 -0.272936 0.315988 0
M  V30 36 H 1.657343 -0.987425 0.364721 0
M  V30 37 H 2.798158 -1.103403 1.811647 0
M  V30 38 H 2.931194 1.153492 2.129412 0
M  V30 39 H 1.357893 0.252491 3.514635 0
M  V30 40 H 0.301994 2.832830 2.291654 0
M  V30 41 H 1.553699 2.529731 3.635220 0
M  V30 42 H -0.003997 1.603403 5.081788 0
M  V30 43 H -0.583539 3.187921 4.499286 0
M  V30 44 H -2.468145 2.296746 3.611736 0
M  V30 45 H -2.071612 0.764764 4.438947 0
M  V30 46 H -2.413621 0.153790 2.219594 0
M  V30 47 H -1.504746 1.629553 1.541756 0
M  V30 48 H -0.322503 -0.438307 1.245309 0
M  V30 49 H -0.522835 -0.841726 2.941169 0
M  V30 50 H 3.435749 3.342495 2.402020 0
M  V30 51 H 3.426351 6.855064 0.141752 0
M  V30 52 H 1.999287 5.700154 -1.561144 0
M  V30 53 H 0.603588 4.158190 -2.965688 0
M  V30 54 H -1.456267 0.080256 -3.872516 0
M  V30 55 H -2.335613 -2.126538 -3.977028 0
M  V30 56 H -2.543382 -4.366923 -2.955234 0
M  V30 57 H -1.712336 -6.403214 -2.283493 0
M  V30 58 H -3.243175 -5.733728 -1.562253 0
M  V30 59 H -1.317667 -7.904391 -0.588280 0
M  V30 60 H -3.058678 -8.065600 -0.970303 0
M  V30 61 H -2.410151 -8.052147 1.365275 0
M  V30 62 H -1.507311 -6.396375 2.437923 0
M  V30 63 H -2.656954 -5.241827 1.663715 0
M  V30 64 H -0.180028 -6.458580 0.315478 0
M  V30 65 H -0.319783 -4.862805 1.109302 0
M  V30 66 H -0.089475 -3.010191 0.301210 0
M  V30 END ATOM
M  V30 BEGIN BOND
M  V30 1 1 1 2
M  V30 2 1 2 3
M  V30 3 1 3 4
M  V30 4 1 4 5
M  V30 5 1 5 6
M  V30 6 1 6 7
M  V30 7 1 7 8
M  V30 8 1 2 9
M  V30 9 1 9 10
M  V30 10 2 10 11
M  V30 11 1 11 12
M  V30 12 2 12 13
M  V30 13 1 13 14
M  V30 14 2 14 15
M  V30 15 1 15 16
M  V30 16 2 16 17
M  V30 17 1 17 18
M  V30 18 2 18 19
M  V30 19 1 19 20
M  V30 20 1 20 21
M  V30 21 2 21 22
M  V30 22 1 22 23
M  V30 23 2 23 24
M  V30 24 1 24 25
M  V30 25 1 25 26
M  V30 26 1 26 27
M  V30 27 1 27 28
M  V30 28 1 28 29
M  V30 29 1 29 30
M  V30 30 1 24 31
M  V30 31 2 31 32
M  V30 32 1 19 33
M  V30 33 2 33 34
M  V30 34 1 8 3
M  V30 35 1 34 9
M  V30 36 1 15 10
M  V30 37 1 34 16
M  V30 38 1 32 21
M  V30 39 1 30 25
M  V30 40 1 1 35
M  V30 41 1 1 36
M  V30 42 1 1 37
M  V30 43 1 2 38 CFG=1
M  V30 44 1 3 39
M  V30 45 1 4 40
M  V30 46 1 4 41
M  V30 47 1 5 42
M  V30 48 1 5 43
M  V30 49 1 6 44
M  V30 50 1 6 45
M  V30 51 1 7 46
M  V30 52 1 7 47
M  V30 53 1 8 48
M  V30 54 1 8 49
M  V30 55 1 11 50
M  V30 56 1 13 51
M  V30 57 1 14 52
M  V30 58 1 17 53
M  V30 59 1 20 54
M  V30 60 1 22 55
M  V30 61 1 23 56
M  V30 62 1 26 57
M  V30 63 1 26 58
M  V30 64 1 27 59
M  V30 65 1 27 60
M  V30 66 1 28 61
M  V30 67 1 29 62
M  V30 68 1 29 63
M  V30 69 1 30 64
M  V30 70 1 30 65
M  V30 71 1 31 66
M  V30 END BOND
M  V30 END CTAB
M  END
>  <Dataset>  (437) 
ChEMBL_Kinases

>  <Ligand_Instance>  (437) 
nan

>  <PDB_ID>  (437) 
nan

>  <Standardized_SMILES>  (437) 
C[C@H](C1CCCCC1)n1c2cnccc2c2cnc(Nc3ccc(N4CCNCC4)cn3)nc21

>  <Name>  (437) 
nan

>  <Pocket>  (437) 
nan

>  <ATP_Site>  (437) 
nan

>  <Peripheral>  (437) 
nan

>  <Num_H_Atoms_ProtBoundConf>  (437) 
nan

>  <Num_Resolved_Atoms>  (437) 
nan

>  <Num_Not_Resolved_Atoms>  (437) 
nan

$$$$
CHEMBL2381599
     RDKit          3D

  0  0  0  0  0  0  0  0  0  0999 V3000
M  V30 BEGIN CTAB
M  V30 COUNTS 41 43 0 0 0
M  V30 BEGIN ATOM
M  V30 1 N 1.066000 -5.541502 -0.497161 0
M  V30 2 C 0.734220 -5.395489 0.919158 0
M  V30 3 C 2.034150 -4.989662 1.591615 0
M  V30 4 C 2.481418 -3.692844 0.960575 0
M  V30 5 N 1.512750 -2.642534 1.147212 0
M  V30 6 C 1.769897 -1.365895 0.581405 0
M  V30 7 N 2.915744 -1.158565 -0.134993 0
M  V30 8 C 3.123381 0.088257 -0.669886 0
M  V30 9 C 2.152254 1.081816 -0.454519 0
M  V30 10 C 2.700953 2.194547 -1.133341 0
M  V30 11 N 3.295356 3.226799 -1.815570 0
M  V30 12 O 1.837844 3.113573 -0.885234 0
M  V30 13 N 1.053595 0.848954 0.243599 0
M  V30 14 C 0.088885 1.741386 0.489326 0
M  V30 15 C -0.828863 1.014709 1.252358 0
M  V30 16 C -2.081971 1.578045 1.782598 0
M  V30 17 C -2.416941 2.887387 1.526901 0
M  V30 18 C -3.593267 3.415236 2.031318 0
M  V30 19 C -4.398863 2.578920 2.789885 0
M  V30 20 Cl -5.864320 3.333715 3.382725 0
M  V30 21 C -4.031473 1.270126 3.026459 0
M  V30 22 C -2.849754 0.718433 2.526742 0
M  V30 23 N -0.329139 -0.246822 1.392082 0
M  V30 24 C 0.852069 -0.356568 0.761076 0
M  V30 25 H 0.297470 -5.910263 -1.069676 0
M  V30 26 H 1.991289 -5.967384 -0.620262 0
M  V30 27 H 0.404823 -6.365874 1.347554 0
M  V30 28 H -0.023257 -4.623700 1.090552 0
M  V30 29 H 2.793422 -5.769753 1.527450 0
M  V30 30 H 1.836887 -4.785634 2.681297 0
M  V30 31 H 3.476206 -3.395740 1.392957 0
M  V30 32 H 2.672407 -3.827775 -0.127280 0
M  V30 33 H 0.653360 -2.813313 1.679835 0
M  V30 34 H 4.084718 0.041054 -1.197871 0
M  V30 35 H 4.012050 3.936456 -1.477267 0
M  V30 36 H 3.166485 3.508463 -2.838263 0
M  V30 37 H -0.018021 2.759634 0.206613 0
M  V30 38 H -1.764294 3.493566 0.932529 0
M  V30 39 H -3.816412 4.450365 1.806567 0
M  V30 40 H -4.775167 0.781767 3.633105 0
M  V30 41 H -2.663059 -0.309940 2.772914 0
M  V30 END ATOM
M  V30 BEGIN BOND
M  V30 1 1 1 2
M  V30 2 1 2 3
M  V30 3 1 3 4
M  V30 4 1 4 5
M  V30 5 1 5 6
M  V30 6 2 6 7
M  V30 7 1 7 8
M  V30 8 2 8 9
M  V30 9 1 9 10
M  V30 10 1 10 11
M  V30 11 2 10 12
M  V30 12 1 9 13
M  V30 13 1 13 14
M  V30 14 2 14 15
M  V30 15 1 15 16
M  V30 16 2 16 17
M  V30 17 1 17 18
M  V30 18 2 18 19
M  V30 19 1 19 20
M  V30 20 1 19 21
M  V30 21 2 21 22
M  V30 22 1 15 23
M  V30 23 2 23 24
M  V30 24 1 24 6
M  V30 25 1 24 13
M  V30 26 1 22 16
M  V30 27 1 1 25
M  V30 28 1 1 26
M  V30 29 1 2 27
M  V30 30 1 2 28
M  V30 31 1 3 29
M  V30 32 1 3 30
M  V30 33 1 4 31
M  V30 34 1 4 32
M  V30 35 1 5 33
M  V30 36 1 8 34
M  V30 37 1 11 35
M  V30 38 1 11 36
M  V30 39 1 14 37
M  V30 40 1 17 38
M  V30 41 1 18 39
M  V30 42 1 21 40
M  V30 43 1 22 41
M  V30 END BOND
M  V30 END CTAB
M  END
>  <Dataset>  (438) 
ChEMBL_Kinases

>  <Ligand_Instance>  (438) 
nan

>  <PDB_ID>  (438) 
nan

>  <Standardized_SMILES>  (438) 
NCCCNc1ncc(C(N)=O)n2cc(-c3ccc(Cl)cc3)nc12

>  <Name>  (438) 
nan

>  <Pocket>  (438) 
nan

>  <ATP_Site>  (438) 
nan

>  <Peripheral>  (438) 
nan

>  <Num_H_Atoms_ProtBoundConf>  (438) 
nan

>  <Num_Resolved_Atoms>  (438) 
nan

>  <Num_Not_Resolved_Atoms>  (438) 
nan

$$$$
CHEMBL4465061
     RDKit          3D

  0  0  0  0  0  0  0  0  0  0999 V3000
M  V30 BEGIN CTAB
M  V30 COUNTS 41 44 0 0 0
M  V30 BEGIN ATOM
M  V30 1 Cl 1.516725 -0.671496 5.554608 0
M  V30 2 C 1.920887 -1.356723 4.010233 0
M  V30 3 C 2.794651 -2.375500 3.724006 0
M  V30 4 N 2.987850 -2.779873 2.466080 0
M  V30 5 C 2.338369 -2.213157 1.404999 0
M  V30 6 N 2.556409 -2.637251 0.043285 0
M  V30 7 C 1.810609 -1.934947 -0.988387 0
M  V30 8 C 0.334315 -2.130842 -0.794378 0
M  V30 9 C -0.345864 -0.800708 -1.111670 0
M  V30 10 C 0.156445 -0.388442 -2.481999 0
M  V30 11 C 1.553673 0.155054 -2.272108 0
M  V30 12 C 2.194045 -0.471945 -1.054240 0
M  V30 13 N 1.493729 -1.224717 1.716893 0
M  V30 14 C 1.252487 -0.768718 2.958952 0
M  V30 15 C 0.258349 0.326946 2.913352 0
M  V30 16 C 0.470869 1.639102 3.356354 0
M  V30 17 N -0.679730 2.283960 3.088122 0
M  V30 18 C -1.596592 1.475266 2.511615 0
M  V30 19 C -2.897496 1.612017 2.048477 0
M  V30 20 C -3.563425 0.519644 1.494389 0
M  V30 21 C -2.936600 -0.717673 1.397906 0
M  V30 22 N -1.657369 -0.866856 1.848801 0
M  V30 23 C -1.022627 0.214252 2.387966 0
M  V30 24 H 3.283685 -2.794288 4.582212 0
M  V30 25 H 3.253255 -3.434349 -0.060255 0
M  V30 26 H 2.079960 -2.371584 -1.980764 0
M  V30 27 H -0.070569 -2.859789 -1.555464 0
M  V30 28 H 0.027236 -2.446558 0.201722 0
M  V30 29 H -1.449222 -0.895944 -1.131318 0
M  V30 30 H -0.049180 -0.087071 -0.333301 0
M  V30 31 H -0.534489 0.378755 -2.934291 0
M  V30 32 H 0.146490 -1.289161 -3.143516 0
M  V30 33 H 2.157061 0.038520 -3.179306 0
M  V30 34 H 1.398749 1.250219 -2.050451 0
M  V30 35 H 3.300888 -0.454743 -1.246030 0
M  V30 36 H 1.971047 0.101419 -0.152410 0
M  V30 37 H 1.366085 2.009761 3.807094 0
M  V30 38 H -0.866075 3.297803 3.293653 0
M  V30 39 H -3.376000 2.566988 2.123137 0
M  V30 40 H -4.593761 0.608704 1.122833 0
M  V30 41 H -3.432030 -1.602127 0.968280 0
M  V30 END ATOM
M  V30 BEGIN BOND
M  V30 1 1 1 2
M  V30 2 2 2 3
M  V30 3 1 3 4
M  V30 4 2 4 5
M  V30 5 1 5 6
M  V30 6 1 6 7
M  V30 7 1 7 8
M  V30 8 1 8 9
M  V30 9 1 9 10
M  V30 10 1 10 11
M  V30 11 1 11 12
M  V30 12 1 5 13
M  V30 13 2 13 14
M  V30 14 1 14 15
M  V30 15 2 15 16
M  V30 16 1 16 17
M  V30 17 1 17 18
M  V30 18 2 18 19
M  V30 19 1 19 20
M  V30 20 2 20 21
M  V30 21 1 21 22
M  V30 22 2 22 23
M  V30 23 1 14 2
M  V30 24 1 23 15
M  V30 25 1 12 7
M  V30 26 1 23 18
M  V30 27 1 3 24
M  V30 28 1 6 25
M  V30 29 1 7 26
M  V30 30 1 8 27
M  V30 31 1 8 28
M  V30 32 1 9 29
M  V30 33 1 9 30
M  V30 34 1 10 31
M  V30 35 1 10 32
M  V30 36 1 11 33
M  V30 37 1 11 34
M  V30 38 1 12 35
M  V30 39 1 12 36
M  V30 40 1 16 37
M  V30 41 1 17 38
M  V30 42 1 19 39
M  V30 43 1 20 40
M  V30 44 1 21 41
M  V30 END BOND
M  V30 END CTAB
M  END
>  <Dataset>  (439) 
ChEMBL_Kinases

>  <Ligand_Instance>  (439) 
nan

>  <PDB_ID>  (439) 
nan

>  <Standardized_SMILES>  (439) 
Clc1cnc(NC2CCCCC2)nc1-c1c[nH]c2cccnc12

>  <Name>  (439) 
nan

>  <Pocket>  (439) 
nan

>  <ATP_Site>  (439) 
nan

>  <Peripheral>  (439) 
nan

>  <Num_H_Atoms_ProtBoundConf>  (439) 
nan

>  <Num_Resolved_Atoms>  (439) 
nan

>  <Num_Not_Resolved_Atoms>  (439) 
nan

$$$$
CHEMBL3698662
     RDKit          3D

  0  0  0  0  0  0  0  0  0  0999 V3000
M  V30 BEGIN CTAB
M  V30 COUNTS 56 60 0 0 0
M  V30 BEGIN ATOM
M  V30 1 C 0.786061 -0.098265 3.694363 0
M  V30 2 C 2.211965 -0.592787 3.554197 0
M  V30 3 C 2.080298 -2.075980 3.194483 0
M  V30 4 C 2.889115 -0.395969 4.864954 0
M  V30 5 N 2.836494 0.129489 2.445369 0
M  V30 6 C 4.140475 0.243447 2.144414 0
M  V30 7 C 5.273994 -0.257048 2.749414 0
M  V30 8 N 6.502732 0.000302 2.249445 0
M  V30 9 C 6.666806 0.752936 1.144726 0
M  V30 10 C 5.565964 1.290078 0.483293 0
M  V30 11 C 4.321223 1.014430 1.011462 0
M  V30 12 C 3.065622 1.399016 0.586993 0
M  V30 13 C 2.556470 2.154027 -0.450748 0
M  V30 14 N 1.223042 2.354550 -0.601082 0
M  V30 15 C 0.364821 1.806537 0.280527 0
M  V30 16 N -1.052578 1.912034 0.277186 0
M  V30 17 C -1.803414 0.934748 -0.433084 0
M  V30 18 C -1.182209 -0.096172 -1.107224 0
M  V30 19 C -1.928896 -1.030725 -1.787708 0
M  V30 20 C -3.303498 -1.017008 -1.851102 0
M  V30 21 N -4.108447 -1.945899 -2.526895 0
M  V30 22 C -5.551041 -1.900414 -2.654424 0
M  V30 23 C -6.111264 -3.036039 -1.805243 0
M  V30 24 N -5.070367 -3.950062 -1.424302 0
M  V30 25 C -4.227055 -4.329403 -2.521693 0
M  V30 26 C -3.581763 -3.115410 -3.204568 0
M  V30 27 C -3.852220 0.038921 -1.155934 0
M  V30 28 N -3.147204 0.962735 -0.485028 0
M  V30 29 N 0.853478 1.072131 1.290595 0
M  V30 30 C 2.171294 0.841567 1.485917 0
M  V30 31 H 0.124171 -0.502526 2.918932 0
M  V30 32 H 0.815972 1.015887 3.676716 0
M  V30 33 H 0.410409 -0.406788 4.704566 0
M  V30 34 H 2.012560 -2.091500 2.072514 0
M  V30 35 H 2.948032 -2.670338 3.493432 0
M  V30 36 H 1.160874 -2.512179 3.629925 0
M  V30 37 H 3.396298 -1.352972 5.123387 0
M  V30 38 H 2.154576 -0.232423 5.678437 0
M  V30 39 H 3.605188 0.439194 4.908595 0
M  V30 40 H 5.202660 -0.858048 3.625519 0
M  V30 41 H 7.649746 0.950013 0.757680 0
M  V30 42 H 5.639289 1.903156 -0.410278 0
M  V30 43 H 3.235122 2.599593 -1.165567 0
M  V30 44 H -1.534660 2.671811 0.772413 0
M  V30 45 H -0.101989 -0.170757 -1.101238 0
M  V30 46 H -1.384284 -1.811799 -2.295210 0
M  V30 47 H -5.959349 -0.935363 -2.313134 0
M  V30 48 H -5.812216 -2.100159 -3.723501 0
M  V30 49 H -6.537046 -2.615409 -0.863004 0
M  V30 50 H -6.934086 -3.574123 -2.306455 0
M  V30 51 H -4.456043 -3.573244 -0.665550 0
M  V30 52 H -3.426252 -4.988074 -2.108027 0
M  V30 53 H -4.787089 -4.947030 -3.227551 0
M  V30 54 H -2.500167 -3.219607 -3.178386 0
M  V30 55 H -3.982384 -3.119564 -4.251015 0
M  V30 56 H -4.905723 0.230618 -1.078656 0
M  V30 END ATOM
M  V30 BEGIN BOND
M  V30 1 1 1 2
M  V30 2 1 2 3
M  V30 3 1 2 4
M  V30 4 1 2 5
M  V30 5 1 5 6
M  V30 6 2 6 7
M  V30 7 1 7 8
M  V30 8 2 8 9
M  V30 9 1 9 10
M  V30 10 2 10 11
M  V30 11 1 11 12
M  V30 12 2 12 13
M  V30 13 1 13 14
M  V30 14 2 14 15
M  V30 15 1 15 16
M  V30 16 1 16 17
M  V30 17 2 17 18
M  V30 18 1 18 19
M  V30 19 2 19 20
M  V30 20 1 20 21
M  V30 21 1 21 22
M  V30 22 1 22 23
M  V30 23 1 23 24
M  V30 24 1 24 25
M  V30 25 1 25 26
M  V30 26 1 20 27
M  V30 27 2 27 28
M  V30 28 1 15 29
M  V30 29 2 29 30
M  V30 30 1 30 5
M  V30 31 1 11 6
M  V30 32 1 30 12
M  V30 33 1 28 17
M  V30 34 1 26 21
M  V30 35 1 1 31
M  V30 36 1 1 32
M  V30 37 1 1 33
M  V30 38 1 3 34
M  V30 39 1 3 35
M  V30 40 1 3 36
M  V30 41 1 4 37
M  V30 42 1 4 38
M  V30 43 1 4 39
M  V30 44 1 7 40
M  V30 45 1 9 41
M  V30 46 1 10 42
M  V30 47 1 13 43
M  V30 48 1 16 44
M  V30 49 1 18 45
M  V30 50 1 19 46
M  V30 51 1 22 47
M  V30 52 1 22 48
M  V30 53 1 23 49
M  V30 54 1 23 50
M  V30 55 1 24 51
M  V30 56 1 25 52
M  V30 57 1 25 53
M  V30 58 1 26 54
M  V30 59 1 26 55
M  V30 60 1 27 56
M  V30 END BOND
M  V30 END CTAB
M  END
>  <Dataset>  (440) 
ChEMBL_Kinases

>  <Ligand_Instance>  (440) 
nan

>  <PDB_ID>  (440) 
nan

>  <Standardized_SMILES>  (440) 
CC(C)(C)n1c2cnccc2c2cnc(Nc3ccc(N4CCNCC4)cn3)nc21

>  <Name>  (440) 
nan

>  <Pocket>  (440) 
nan

>  <ATP_Site>  (440) 
nan

>  <Peripheral>  (440) 
nan

>  <Num_H_Atoms_ProtBoundConf>  (440) 
nan

>  <Num_Resolved_Atoms>  (440) 
nan

>  <Num_Not_Resolved_Atoms>  (440) 
nan

$$$$
CHEMBL4465031
     RDKit          3D

  0  0  0  0  0  0  0  0  0  0999 V3000
M  V30 BEGIN CTAB
M  V30 COUNTS 72 75 0 0 0
M  V30 BEGIN ATOM
M  V30 1 C 1.120959 -5.493881 4.693405 0
M  V30 2 C 0.334010 -4.251490 4.576657 0
M  V30 3 C -0.590861 -3.738682 5.458537 0
M  V30 4 C -1.265632 -2.541498 5.211626 0
M  V30 5 C -1.020043 -1.829477 4.059389 0
M  V30 6 C -1.703399 -0.567572 3.763686 0
M  V30 7 O -2.167177 0.263444 4.578049 0
M  V30 8 N -1.886375 -0.213104 2.402707 0
M  V30 9 C -2.427662 0.796946 1.556170 0 CFG=1
M  V30 10 C -1.449934 1.211727 0.471420 0
M  V30 11 C -1.989956 2.247843 -0.435333 0
M  V30 12 C -2.395817 3.544717 0.156380 0
M  V30 13 C -2.912831 4.462519 -0.933026 0
M  V30 14 C -1.851654 5.180062 -1.692791 0
M  V30 15 C -0.476138 5.103734 -1.139553 0
M  V30 16 C -0.434765 5.129902 0.349522 0
M  V30 17 C -1.404924 4.212448 1.041084 0
M  V30 18 C -3.599954 0.192148 0.830500 0
M  V30 19 N -4.698754 0.143650 -0.093430 0
M  V30 20 O -3.422205 -0.888119 1.491611 0
M  V30 21 C -0.078392 -2.370269 3.186577 0
M  V30 22 C 0.596066 -3.554495 3.419721 0
M  V30 23 N 1.505002 -3.798287 2.317421 0
M  V30 24 C 0.906709 -4.398743 1.205095 0
M  V30 25 O -0.339080 -4.705674 1.198424 0
M  V30 26 C 1.370324 -4.818387 -0.111682 0
M  V30 27 C 1.544501 -5.990137 -0.817720 0
M  V30 28 N 2.011797 -5.656593 -2.034823 0
M  V30 29 N 2.131938 -4.336423 -2.105988 0
M  V30 30 C 2.616554 -3.713837 -3.317306 0
M  V30 31 C 1.614644 -3.185453 -4.140372 0
M  V30 32 C 1.981082 -2.568025 -5.331723 0
M  V30 33 C 3.299377 -2.455591 -5.735826 0
M  V30 34 C 4.245646 -2.986320 -4.900319 0
M  V30 35 C 3.943856 -3.621331 -3.685992 0
M  V30 36 C 1.748344 -3.741088 -0.935652 0
M  V30 37 C 1.826917 -2.261054 -0.816093 0
M  V30 38 F 2.265938 -1.643579 -1.979882 0
M  V30 39 F 0.654496 -1.694647 -0.426584 0
M  V30 40 F 2.796706 -1.895611 0.139737 0
M  V30 41 H 0.606658 -6.218517 5.381287 0
M  V30 42 H 2.104480 -5.210609 5.173422 0
M  V30 43 H 1.258695 -5.997173 3.724295 0
M  V30 44 H -0.752783 -4.315428 6.335062 0
M  V30 45 H -1.987221 -2.151280 5.909966 0
M  V30 46 H -1.532842 -0.909077 1.678300 0
M  V30 47 H -2.824893 1.669092 2.118640 0
M  V30 48 H -1.319188 0.280808 -0.137134 0
M  V30 49 H -0.434799 1.396187 0.881941 0
M  V30 50 H -2.873233 1.768527 -0.962150 0
M  V30 51 H -1.259926 2.387109 -1.274745 0
M  V30 52 H -3.299619 3.328401 0.779421 0
M  V30 53 H -3.572690 5.246500 -0.454299 0
M  V30 54 H -3.579094 3.874683 -1.590987 0
M  V30 55 H -1.847515 4.765908 -2.744368 0
M  V30 56 H -2.106107 6.267061 -1.858733 0
M  V30 57 H 0.149169 4.280236 -1.578199 0
M  V30 58 H 0.082338 6.030966 -1.478536 0
M  V30 59 H 0.630191 4.872099 0.631128 0
M  V30 60 H -0.536045 6.185801 0.674820 0
M  V30 61 H -1.990674 4.861887 1.757972 0
M  V30 62 H -0.922131 3.449063 1.686633 0
M  V30 63 H -5.567068 0.563313 0.316056 0
M  V30 64 H -4.172742 -0.330050 -0.885687 0
M  V30 65 H 0.087967 -1.751288 2.290614 0
M  V30 66 H 2.501897 -3.645272 2.134862 0
M  V30 67 H 1.283398 -6.911588 -0.284162 0
M  V30 68 H 0.549441 -3.209113 -3.932813 0
M  V30 69 H 1.265219 -2.123836 -6.041796 0
M  V30 70 H 3.571634 -1.967568 -6.675649 0
M  V30 71 H 5.303632 -2.932805 -5.159156 0
M  V30 72 H 4.666810 -4.041943 -3.018999 0
M  V30 END ATOM
M  V30 BEGIN BOND
M  V30 1 1 1 2
M  V30 2 2 2 3
M  V30 3 1 3 4
M  V30 4 2 4 5
M  V30 5 1 5 6
M  V30 6 2 6 7
M  V30 7 1 6 8
M  V30 8 1 8 9
M  V30 9 1 9 10
M  V30 10 1 10 11
M  V30 11 1 11 12
M  V30 12 1 12 13
M  V30 13 1 13 14
M  V30 14 1 14 15
M  V30 15 1 15 16
M  V30 16 1 16 17
M  V30 17 1 9 18
M  V30 18 1 18 19
M  V30 19 2 18 20
M  V30 20 1 5 21
M  V30 21 2 21 22
M  V30 22 1 22 23
M  V30 23 1 23 24
M  V30 24 2 24 25
M  V30 25 1 24 26
M  V30 26 1 26 27
M  V30 27 2 27 28
M  V30 28 1 28 29
M  V30 29 1 29 30
M  V30 30 2 30 31
M  V30 31 1 31 32
M  V30 32 2 32 33
M  V30 33 1 33 34
M  V30 34 2 34 35
M  V30 35 1 29 36
M  V30 36 1 36 37
M  V30 37 1 37 38
M  V30 38 1 37 39
M  V30 39 1 37 40
M  V30 40 1 22 2
M  V30 41 2 36 26
M  V30 42 1 17 12
M  V30 43 1 35 30
M  V30 44 1 1 41
M  V30 45 1 1 42
M  V30 46 1 1 43
M  V30 47 1 3 44
M  V30 48 1 4 45
M  V30 49 1 8 46
M  V30 50 1 9 47 CFG=1
M  V30 51 1 10 48
M  V30 52 1 10 49
M  V30 53 1 11 50
M  V30 54 1 11 51
M  V30 55 1 12 52
M  V30 56 1 13 53
M  V30 57 1 13 54
M  V30 58 1 14 55
M  V30 59 1 14 56
M  V30 60 1 15 57
M  V30 61 1 15 58
M  V30 62 1 16 59
M  V30 63 1 16 60
M  V30 64 1 17 61
M  V30 65 1 17 62
M  V30 66 1 19 63
M  V30 67 1 19 64
M  V30 68 1 21 65
M  V30 69 1 23 66
M  V30 70 1 27 67
M  V30 71 1 31 68
M  V30 72 1 32 69
M  V30 73 1 33 70
M  V30 74 1 34 71
M  V30 75 1 35 72
M  V30 END BOND
M  V30 END CTAB
M  END
>  <Dataset>  (441) 
ChEMBL_Kinases

>  <Ligand_Instance>  (441) 
nan

>  <PDB_ID>  (441) 
nan

>  <Standardized_SMILES>  (441) 
Cc1ccc(C(=O)N[C@@H](CCC2CCCCC2)C(N)=O)cc1NC(=O)c1cnn(-c2ccccc2)c1C(F)(F)F

>  <Name>  (441) 
nan

>  <Pocket>  (441) 
nan

>  <ATP_Site>  (441) 
nan

>  <Peripheral>  (441) 
nan

>  <Num_H_Atoms_ProtBoundConf>  (441) 
nan

>  <Num_Resolved_Atoms>  (441) 
nan

>  <Num_Not_Resolved_Atoms>  (441) 
nan

$$$$
CHEMBL3698661
     RDKit          3D

  0  0  0  0  0  0  0  0  0  0999 V3000
M  V30 BEGIN CTAB
M  V30 COUNTS 68 75 0 0 0
M  V30 BEGIN ATOM
M  V30 1 C 4.976548 -4.383668 4.220277 0
M  V30 2 C 4.940759 -3.055902 3.851258 0
M  V30 3 C 3.858502 -2.613578 3.082040 0
M  V30 4 C 3.540916 -1.375968 2.565716 0
M  V30 5 C 4.251751 -0.204199 2.687489 0
M  V30 6 N 3.734105 0.874361 2.091395 0
M  V30 7 C 2.586100 0.897092 1.391680 0
M  V30 8 N 2.205347 2.138533 0.836735 0
M  V30 9 C 1.073199 2.470042 0.050020 0
M  V30 10 C 0.088318 1.589307 -0.338705 0
M  V30 11 C -1.015694 1.898055 -1.101274 0
M  V30 12 C -1.170812 3.200489 -1.526001 0
M  V30 13 N -2.258656 3.662809 -2.316601 0
M  V30 14 C -2.534428 4.988670 -2.835263 0
M  V30 15 C -3.773474 5.527718 -2.153608 0
M  V30 16 N -4.880694 4.786844 -2.727480 0
M  V30 17 C -4.703880 3.398153 -2.447708 0
M  V30 18 C -3.339263 2.846753 -2.765327 0
M  V30 19 C -0.183541 4.078927 -1.135244 0
M  V30 20 N 0.875507 3.725322 -0.389219 0
M  V30 21 N 1.930041 -0.272079 1.302388 0
M  V30 22 C 2.369427 -1.410446 1.866956 0
M  V30 23 N 1.948031 -2.685186 1.946679 0
M  V30 24 C 0.764465 -3.231329 1.376663 0
M  V30 25 C -0.045748 -2.186330 0.621934 0
M  V30 26 C -1.325899 -2.802630 0.103996 0
M  V30 27 C -1.066742 -3.949335 -0.850117 0
M  V30 28 C -0.244474 -4.961323 -0.078450 0
M  V30 29 C -0.966762 -5.536697 1.095928 0
M  V30 30 C -1.389218 -4.403913 1.975391 0
M  V30 31 C -2.195397 -3.359578 1.195823 0
M  V30 32 C -0.165404 -3.660707 2.486788 0
M  V30 33 C 1.022888 -4.278178 0.329397 0
M  V30 34 C 2.808196 -3.437000 2.663325 0
M  V30 35 C 2.940625 -4.751078 3.087056 0
M  V30 36 N 3.983719 -5.169236 3.826321 0
M  V30 37 H 5.834772 -4.668782 4.813045 0
M  V30 38 H 5.713530 -2.368818 4.138144 0
M  V30 39 H 5.189032 -0.136968 3.236194 0
M  V30 40 H 2.843685 2.969805 1.019130 0
M  V30 41 H 0.168256 0.574752 -0.034387 0
M  V30 42 H -1.736610 1.167541 -1.364418 0
M  V30 43 H -1.700603 5.668751 -2.573174 0
M  V30 44 H -2.609395 4.971490 -3.943505 0
M  V30 45 H -3.826500 6.604843 -2.345661 0
M  V30 46 H -3.649598 5.282248 -1.070141 0
M  V30 47 H -5.730797 5.117156 -2.225309 0
M  V30 48 H -5.491217 2.857460 -3.028003 0
M  V30 49 H -4.988511 3.223895 -1.377584 0
M  V30 50 H -3.291474 2.797066 -3.892740 0
M  V30 51 H -3.337044 1.805048 -2.418785 0
M  V30 52 H -0.160688 5.128778 -1.385679 0
M  V30 53 H 0.515092 -1.785531 -0.220539 0
M  V30 54 H -0.340286 -1.349913 1.282577 0
M  V30 55 H -1.883929 -2.001695 -0.419874 0
M  V30 56 H -0.505788 -3.666916 -1.751920 0
M  V30 57 H -2.053355 -4.393819 -1.090298 0
M  V30 58 H 0.045441 -5.811807 -0.751935 0
M  V30 59 H -0.200315 -6.113677 1.680039 0
M  V30 60 H -1.793787 -6.187859 0.818744 0
M  V30 61 H -1.959765 -4.730504 2.848826 0
M  V30 62 H -3.013489 -3.921167 0.701287 0
M  V30 63 H -2.553980 -2.613351 1.919994 0
M  V30 64 H -0.606695 -2.698138 2.893939 0
M  V30 65 H 0.303308 -4.121346 3.350124 0
M  V30 66 H 1.352510 -3.712569 -0.596335 0
M  V30 67 H 1.823795 -4.978737 0.519578 0
M  V30 68 H 2.188824 -5.442817 2.813175 0
M  V30 END ATOM
M  V30 BEGIN BOND
M  V30 1 1 1 2
M  V30 2 2 2 3
M  V30 3 1 3 4
M  V30 4 2 4 5
M  V30 5 1 5 6
M  V30 6 2 6 7
M  V30 7 1 7 8
M  V30 8 1 8 9
M  V30 9 2 9 10
M  V30 10 1 10 11
M  V30 11 2 11 12
M  V30 12 1 12 13
M  V30 13 1 13 14
M  V30 14 1 14 15
M  V30 15 1 15 16
M  V30 16 1 16 17
M  V30 17 1 17 18
M  V30 18 1 12 19
M  V30 19 2 19 20
M  V30 20 1 7 21
M  V30 21 2 21 22
M  V30 22 1 22 23
M  V30 23 1 23 24
M  V30 24 1 24 25
M  V30 25 1 25 26
M  V30 26 1 26 27
M  V30 27 1 27 28
M  V30 28 1 28 29
M  V30 29 1 29 30
M  V30 30 1 30 31
M  V30 31 1 30 32
M  V30 32 1 28 33
M  V30 33 1 23 34
M  V30 34 2 34 35
M  V30 35 1 35 36
M  V30 36 2 36 1
M  V30 37 1 34 3
M  V30 38 1 22 4
M  V30 39 1 32 24
M  V30 40 1 20 9
M  V30 41 1 33 24
M  V30 42 1 18 13
M  V30 43 1 31 26
M  V30 44 1 1 37
M  V30 45 1 2 38
M  V30 46 1 5 39
M  V30 47 1 8 40
M  V30 48 1 10 41
M  V30 49 1 11 42
M  V30 50 1 14 43
M  V30 51 1 14 44
M  V30 52 1 15 45
M  V30 53 1 15 46
M  V30 54 1 16 47
M  V30 55 1 17 48
M  V30 56 1 17 49
M  V30 57 1 18 50
M  V30 58 1 18 51
M  V30 59 1 19 52
M  V30 60 1 25 53
M  V30 61 1 25 54
M  V30 62 1 26 55
M  V30 63 1 27 56
M  V30 64 1 27 57
M  V30 65 1 28 58
M  V30 66 1 29 59
M  V30 67 1 29 60
M  V30 68 1 30 61
M  V30 69 1 31 62
M  V30 70 1 31 63
M  V30 71 1 32 64
M  V30 72 1 32 65
M  V30 73 1 33 66
M  V30 74 1 33 67
M  V30 75 1 35 68
M  V30 END BOND
M  V30 END CTAB
M  END
>  <Dataset>  (442) 
ChEMBL_Kinases

>  <Ligand_Instance>  (442) 
nan

>  <PDB_ID>  (442) 
nan

>  <Standardized_SMILES>  (442) 
c1cc2c3cnc(Nc4ccc(N5CCNCC5)cn4)nc3n(C34CC5CC(CC(C5)C3)C4)c2cn1

>  <Name>  (442) 
nan

>  <Pocket>  (442) 
nan

>  <ATP_Site>  (442) 
nan

>  <Peripheral>  (442) 
nan

>  <Num_H_Atoms_ProtBoundConf>  (442) 
nan

>  <Num_Resolved_Atoms>  (442) 
nan

>  <Num_Not_Resolved_Atoms>  (442) 
nan

$$$$
CHEMBL4464656
     RDKit          3D

  0  0  0  0  0  0  0  0  0  0999 V3000
M  V30 BEGIN CTAB
M  V30 COUNTS 47 51 0 0 0
M  V30 BEGIN ATOM
M  V30 1 C 0.967365 -0.893677 5.544769 0
M  V30 2 C 1.148021 -1.693298 4.301867 0
M  V30 3 C 1.545064 -3.021534 4.324368 0
M  V30 4 C 1.698625 -3.724569 3.136577 0
M  V30 5 C 1.458353 -3.112211 1.915306 0
M  V30 6 C 1.064863 -1.788786 1.936586 0
M  V30 7 C 0.824148 -1.195100 0.625886 0
M  V30 8 N 1.540042 -0.159279 0.156270 0
M  V30 9 C 1.106005 0.182954 -1.065387 0
M  V30 10 C 1.348762 1.162478 -2.168066 0
M  V30 11 N 0.511075 2.331669 -2.088448 0
M  V30 12 C 0.464723 3.345366 -1.131352 0
M  V30 13 C 1.259743 3.458978 -0.026483 0
M  V30 14 C 1.203636 4.464232 0.922652 0
M  V30 15 C 0.259830 5.445466 0.741543 0
M  V30 16 C -0.571195 5.386496 -0.353302 0
M  V30 17 C -0.464450 4.364329 -1.255851 0
M  V30 18 N 0.084549 -0.677437 -1.355420 0
M  V30 19 C -0.106170 -1.530311 -0.334374 0
M  V30 20 C -1.057231 -2.620829 -0.153325 0
M  V30 21 C -1.909543 -2.423642 0.900378 0
M  V30 22 C -2.865897 -3.358865 1.204462 0
M  V30 23 C -2.946809 -4.475763 0.442246 0
M  V30 24 N -3.838943 -5.680529 0.474022 0
M  V30 25 S -3.455238 -6.711767 -0.716120 0
M  V30 26 N -2.065975 -5.831308 -1.521334 0
M  V30 27 C -2.108040 -4.668591 -0.593957 0
M  V30 28 C -1.137431 -3.755527 -0.930018 0
M  V30 29 N 0.921404 -1.122710 3.104371 0
M  V30 30 H 0.819407 -1.560299 6.421113 0
M  V30 31 H 0.051676 -0.265473 5.356752 0
M  V30 32 H 1.811915 -0.179212 5.700030 0
M  V30 33 H 1.733297 -3.505972 5.274376 0
M  V30 34 H 2.011024 -4.769592 3.163221 0
M  V30 35 H 1.601169 -3.730074 1.034334 0
M  V30 36 H 2.330812 0.410068 0.519656 0
M  V30 37 H 2.397709 1.562280 -1.974549 0
M  V30 38 H 1.382311 0.704359 -3.156334 0
M  V30 39 H -0.154418 2.385561 -2.900209 0
M  V30 40 H 2.015688 2.714483 0.149787 0
M  V30 41 H 1.876252 4.482269 1.778051 0
M  V30 42 H 0.206891 6.240931 1.481282 0
M  V30 43 H -1.317297 6.179920 -0.477910 0
M  V30 44 H -1.149910 4.358616 -2.113591 0
M  V30 45 H -1.904796 -1.557495 1.552073 0
M  V30 46 H -3.604990 -3.380514 1.972843 0
M  V30 47 H -0.395939 -3.730364 -1.697198 0
M  V30 END ATOM
M  V30 BEGIN BOND
M  V30 1 1 1 2
M  V30 2 2 2 3
M  V30 3 1 3 4
M  V30 4 2 4 5
M  V30 5 1 5 6
M  V30 6 1 6 7
M  V30 7 1 7 8
M  V30 8 1 8 9
M  V30 9 1 9 10
M  V30 10 1 10 11
M  V30 11 1 11 12
M  V30 12 2 12 13
M  V30 13 1 13 14
M  V30 14 2 14 15
M  V30 15 1 15 16
M  V30 16 2 16 17
M  V30 17 2 9 18
M  V30 18 1 18 19
M  V30 19 1 19 20
M  V30 20 1 20 21
M  V30 21 2 21 22
M  V30 22 1 22 23
M  V30 23 2 23 24
M  V30 24 1 24 25
M  V30 25 1 25 26
M  V30 26 2 26 27
M  V30 27 1 27 28
M  V30 28 2 6 29
M  V30 29 1 29 2
M  V30 30 2 19 7
M  V30 31 2 28 20
M  V30 32 1 17 12
M  V30 33 1 27 23
M  V30 34 1 1 30
M  V30 35 1 1 31
M  V30 36 1 1 32
M  V30 37 1 3 33
M  V30 38 1 4 34
M  V30 39 1 5 35
M  V30 40 1 8 36
M  V30 41 1 10 37
M  V30 42 1 10 38
M  V30 43 1 11 39
M  V30 44 1 13 40
M  V30 45 1 14 41
M  V30 46 1 15 42
M  V30 47 1 16 43
M  V30 48 1 17 44
M  V30 49 1 21 45
M  V30 50 1 22 46
M  V30 51 1 28 47
M  V30 END BOND
M  V30 END CTAB
M  END
>  <Dataset>  (443) 
ChEMBL_Kinases

>  <Ligand_Instance>  (443) 
nan

>  <PDB_ID>  (443) 
nan

>  <Standardized_SMILES>  (443) 
Cc1cccc(-c2[nH]c(CNc3ccccc3)nc2-c2ccc3nsnc3c2)n1

>  <Name>  (443) 
nan

>  <Pocket>  (443) 
nan

>  <ATP_Site>  (443) 
nan

>  <Peripheral>  (443) 
nan

>  <Num_H_Atoms_ProtBoundConf>  (443) 
nan

>  <Num_Resolved_Atoms>  (443) 
nan

>  <Num_Not_Resolved_Atoms>  (443) 
nan

$$$$
CHEMBL3698660
     RDKit          3D

  0  0  0  0  0  0  0  0  0  0999 V3000
M  V30 BEGIN CTAB
M  V30 COUNTS 61 67 0 0 0
M  V30 BEGIN ATOM
M  V30 1 C 3.730413 -0.511621 1.439386 0
M  V30 2 C 2.665942 -0.298903 2.289107 0
M  V30 3 C 1.660383 0.569550 1.965275 0
M  V30 4 C 1.633371 1.282792 0.791886 0
M  V30 5 C 2.739042 1.034566 -0.043119 0
M  V30 6 C 3.773452 0.167443 0.245188 0
M  V30 7 C 2.564708 1.902807 -1.270574 0
M  V30 8 C 1.783748 3.080975 -0.592629 0
M  V30 9 C 0.761466 2.287040 0.069329 0
M  V30 10 N -0.187432 2.818922 0.945486 0
M  V30 11 C -0.331407 4.048038 1.469870 0
M  V30 12 C 0.380634 5.215705 1.343254 0
M  V30 13 N 0.014280 6.334744 1.989703 0
M  V30 14 C -1.059998 6.410117 2.801351 0
M  V30 15 C -1.812818 5.252141 2.960729 0
M  V30 16 C -1.437123 4.083178 2.290614 0
M  V30 17 C -1.954329 2.822890 2.238306 0
M  V30 18 C -3.067296 2.315793 2.874544 0
M  V30 19 N -3.366627 1.029304 2.649745 0
M  V30 20 C -2.628565 0.246402 1.842410 0
M  V30 21 N -3.055690 -1.105419 1.687700 0
M  V30 22 C -2.479232 -2.152693 0.906581 0
M  V30 23 C -1.364220 -2.039223 0.133081 0
M  V30 24 C -0.817377 -3.062659 -0.618277 0
M  V30 25 C -1.422731 -4.295925 -0.602170 0
M  V30 26 N -0.936808 -5.411211 -1.334149 0
M  V30 27 C 0.268889 -5.472675 -2.093220 0
M  V30 28 C 1.179788 -6.620942 -1.750900 0
M  V30 29 N 0.470121 -7.853666 -1.530232 0
M  V30 30 C -0.706026 -7.708041 -0.734808 0
M  V30 31 C -1.599516 -6.692873 -1.436883 0
M  V30 32 C -2.538332 -4.375366 0.183487 0
M  V30 33 N -3.044990 -3.367787 0.900038 0
M  V30 34 N -1.551084 0.736689 1.226295 0
M  V30 35 C -1.202063 2.014581 1.412077 0
M  V30 36 H 4.521262 -1.199732 1.702289 0
M  V30 37 H 2.593337 -0.819434 3.250062 0
M  V30 38 H 0.834012 0.732351 2.638004 0
M  V30 39 H 4.577534 0.043166 -0.458102 0
M  V30 40 H 3.549883 2.223294 -1.600551 0
M  V30 41 H 1.970963 1.431001 -2.045628 0
M  V30 42 H 2.600944 3.507438 0.028051 0
M  V30 43 H 1.497646 3.690890 -1.468801 0
M  V30 44 H 0.296197 1.634289 -0.745472 0
M  V30 45 H 1.231511 5.244758 0.724179 0
M  V30 46 H -1.293791 7.349166 3.289773 0
M  V30 47 H -2.681704 5.277297 3.604904 0
M  V30 48 H -3.658848 2.933244 3.518184 0
M  V30 49 H -3.931027 -1.399571 2.224347 0
M  V30 50 H -0.838258 -1.109786 0.070188 0
M  V30 51 H 0.070743 -2.887540 -1.207005 0
M  V30 52 H 0.870964 -4.552860 -1.966979 0
M  V30 53 H 0.001196 -5.480740 -3.185378 0
M  V30 54 H 1.814737 -6.786619 -2.667954 0
M  V30 55 H 1.894820 -6.373517 -0.939761 0
M  V30 56 H 1.068496 -8.648527 -1.297266 0
M  V30 57 H -1.252732 -8.676460 -0.778018 0
M  V30 58 H -0.460704 -7.445809 0.292471 0
M  V30 59 H -2.599213 -6.712172 -0.984703 0
M  V30 60 H -1.644229 -7.039989 -2.510865 0
M  V30 61 H -3.124125 -5.279426 0.300981 0
M  V30 END ATOM
M  V30 BEGIN BOND
M  V30 1 2 1 2
M  V30 2 1 2 3
M  V30 3 2 3 4
M  V30 4 1 4 5
M  V30 5 2 5 6
M  V30 6 1 5 7
M  V30 7 1 7 8
M  V30 8 1 8 9
M  V30 9 1 9 10
M  V30 10 1 10 11
M  V30 11 2 11 12
M  V30 12 1 12 13
M  V30 13 2 13 14
M  V30 14 1 14 15
M  V30 15 2 15 16
M  V30 16 1 16 17
M  V30 17 2 17 18
M  V30 18 1 18 19
M  V30 19 2 19 20
M  V30 20 1 20 21
M  V30 21 1 21 22
M  V30 22 2 22 23
M  V30 23 1 23 24
M  V30 24 2 24 25
M  V30 25 1 25 26
M  V30 26 1 26 27
M  V30 27 1 27 28
M  V30 28 1 28 29
M  V30 29 1 29 30
M  V30 30 1 30 31
M  V30 31 1 25 32
M  V30 32 2 32 33
M  V30 33 1 20 34
M  V30 34 2 34 35
M  V30 35 1 6 1
M  V30 36 1 35 10
M  V30 37 1 9 4
M  V30 38 1 16 11
M  V30 39 1 35 17
M  V30 40 1 33 22
M  V30 41 1 31 26
M  V30 42 1 1 36
M  V30 43 1 2 37
M  V30 44 1 3 38
M  V30 45 1 6 39
M  V30 46 1 7 40
M  V30 47 1 7 41
M  V30 48 1 8 42
M  V30 49 1 8 43
M  V30 50 1 9 44
M  V30 51 1 12 45
M  V30 52 1 14 46
M  V30 53 1 15 47
M  V30 54 1 18 48
M  V30 55 1 21 49
M  V30 56 1 23 50
M  V30 57 1 24 51
M  V30 58 1 27 52
M  V30 59 1 27 53
M  V30 60 1 28 54
M  V30 61 1 28 55
M  V30 62 1 29 56
M  V30 63 1 30 57
M  V30 64 1 30 58
M  V30 65 1 31 59
M  V30 66 1 31 60
M  V30 67 1 32 61
M  V30 END BOND
M  V30 END CTAB
M  END
>  <Dataset>  (444) 
ChEMBL_Kinases

>  <Ligand_Instance>  (444) 
nan

>  <PDB_ID>  (444) 
nan

>  <Standardized_SMILES>  (444) 
c1ccc2c(c1)CCC2n1c2cnccc2c2cnc(Nc3ccc(N4CCNCC4)cn3)nc21

>  <Name>  (444) 
nan

>  <Pocket>  (444) 
nan

>  <ATP_Site>  (444) 
nan

>  <Peripheral>  (444) 
nan

>  <Num_H_Atoms_ProtBoundConf>  (444) 
nan

>  <Num_Resolved_Atoms>  (444) 
nan

>  <Num_Not_Resolved_Atoms>  (444) 
nan

$$$$
CHEMBL2381342
     RDKit          3D

  0  0  0  0  0  0  0  0  0  0999 V3000
M  V30 BEGIN CTAB
M  V30 COUNTS 61 64 0 0 0
M  V30 BEGIN ATOM
M  V30 1 C 4.096372 1.762313 4.531616 0
M  V30 2 N 3.679962 0.428101 4.285197 0
M  V30 3 C 2.306813 0.130858 4.532537 0
M  V30 4 C 4.288236 -0.261574 3.206316 0
M  V30 5 C 4.128867 0.353274 1.871327 0
M  V30 6 C 5.077180 1.250069 1.369847 0
M  V30 7 C 4.848364 1.775980 0.120193 0
M  V30 8 C 3.759311 1.483489 -0.664261 0
M  V30 9 C 2.840018 0.597940 -0.146551 0
M  V30 10 N 1.714099 0.297303 -0.959702 0
M  V30 11 C 0.558732 -0.541638 -0.750795 0
M  V30 12 C -0.556155 0.058948 -0.505859 0
M  V30 13 C -0.828018 1.479418 -0.395946 0
M  V30 14 O 0.082559 2.361307 -0.502595 0
M  V30 15 N -2.219525 1.624127 -0.164080 0
M  V30 16 C -2.763415 0.309744 -0.138594 0
M  V30 17 C -4.078329 -0.057956 0.038112 0
M  V30 18 C -4.419058 -1.392540 0.008055 0
M  V30 19 C -5.827614 -1.710475 0.198865 0
M  V30 20 O -6.483956 -1.676999 1.293465 0
M  V30 21 N -6.443568 -2.088372 -1.045031 0
M  V30 22 C -5.820928 -2.171459 -2.366410 0
M  V30 23 C -7.860043 -2.450886 -1.106223 0
M  V30 24 C -3.433908 -2.361307 -0.200750 0
M  V30 25 C -2.134044 -1.944040 -0.371007 0
M  V30 26 C -1.791172 -0.639725 -0.341198 0
M  V30 27 C 0.947941 -1.921853 -0.759008 0
M  V30 28 C 1.518487 -2.381255 -1.951800 0
M  V30 29 C 2.017837 -3.636508 -2.165640 0
M  V30 30 C 1.964839 -4.543037 -1.131547 0
M  V30 31 C 1.419202 -4.176261 0.078956 0
M  V30 32 C 0.928418 -2.901454 0.249366 0
M  V30 33 C 3.026709 0.046203 1.098534 0
M  V30 34 H 3.267667 2.399127 4.963953 0
M  V30 35 H 4.862596 1.721736 5.361702 0
M  V30 36 H 4.561169 2.303146 3.708455 0
M  V30 37 H 2.096943 -0.912328 4.214054 0
M  V30 38 H 1.606790 0.845933 4.064146 0
M  V30 39 H 2.128061 0.141430 5.643333 0
M  V30 40 H 5.373960 -0.337121 3.417109 0
M  V30 41 H 3.929219 -1.324979 3.185428 0
M  V30 42 H 5.947386 1.522121 1.926431 0
M  V30 43 H 5.566732 2.478550 -0.301187 0
M  V30 44 H 3.616737 1.927939 -1.658858 0
M  V30 45 H 1.597863 0.703244 -1.911374 0
M  V30 46 H -2.613507 2.577513 -0.055185 0
M  V30 47 H -4.834644 0.692506 0.198525 0
M  V30 48 H -4.814922 -1.728104 -2.339939 0
M  V30 49 H -5.735202 -3.218179 -2.661050 0
M  V30 50 H -6.447486 -1.567382 -3.073451 0
M  V30 51 H -8.336601 -2.025770 -1.989487 0
M  V30 52 H -7.994095 -3.564614 -1.037524 0
M  V30 53 H -8.371418 -2.057615 -0.205775 0
M  V30 54 H -3.859266 -3.376171 -0.199255 0
M  V30 55 H -1.554080 -2.801120 -0.536447 0
M  V30 56 H 1.602153 -1.728244 -2.828818 0
M  V30 57 H 2.449534 -3.958242 -3.096868 0
M  V30 58 H 2.317733 -5.563197 -1.152258 0
M  V30 59 H 1.314226 -4.791489 0.981886 0
M  V30 60 H 0.471616 -2.492611 1.167522 0
M  V30 61 H 2.278812 -0.628425 1.434976 0
M  V30 END ATOM
M  V30 BEGIN BOND
M  V30 1 1 1 2
M  V30 2 1 2 3
M  V30 3 1 2 4
M  V30 4 1 4 5
M  V30 5 2 5 6
M  V30 6 1 6 7
M  V30 7 2 7 8
M  V30 8 1 8 9
M  V30 9 1 9 10
M  V30 10 1 10 11
M  V30 11 2 11 12
M  V30 12 1 12 13
M  V30 13 2 13 14
M  V30 14 1 13 15
M  V30 15 1 15 16
M  V30 16 2 16 17
M  V30 17 1 17 18
M  V30 18 1 18 19
M  V30 19 2 19 20
M  V30 20 1 19 21
M  V30 21 1 21 22
M  V30 22 1 21 23
M  V30 23 2 18 24
M  V30 24 1 24 25
M  V30 25 2 25 26
M  V30 26 1 11 27
M  V30 27 2 27 28
M  V30 28 1 28 29
M  V30 29 2 29 30
M  V30 30 1 30 31
M  V30 31 2 31 32
M  V30 32 2 9 33
M  V30 33 1 33 5
M  V30 34 1 26 12
M  V30 35 1 32 27
M  V30 36 1 26 16
M  V30 37 1 1 34
M  V30 38 1 1 35
M  V30 39 1 1 36
M  V30 40 1 3 37
M  V30 41 1 3 38
M  V30 42 1 3 39
M  V30 43 1 4 40
M  V30 44 1 4 41
M  V30 45 1 6 42
M  V30 46 1 7 43
M  V30 47 1 8 44
M  V30 48 1 10 45
M  V30 49 1 15 46
M  V30 50 1 17 47
M  V30 51 1 22 48
M  V30 52 1 22 49
M  V30 53 1 22 50
M  V30 54 1 23 51
M  V30 55 1 23 52
M  V30 56 1 23 53
M  V30 57 1 24 54
M  V30 58 1 25 55
M  V30 59 1 28 56
M  V30 60 1 29 57
M  V30 61 1 30 58
M  V30 62 1 31 59
M  V30 63 1 32 60
M  V30 64 1 33 61
M  V30 END BOND
M  V30 END CTAB
M  END
>  <Dataset>  (445) 
ChEMBL_Kinases

>  <Ligand_Instance>  (445) 
nan

>  <PDB_ID>  (445) 
nan

>  <Standardized_SMILES>  (445) 
CN(C)Cc1cccc(N/C(=C2\C(=O)Nc3cc(C(=O)N(C)C)ccc32)c2ccccc2)c1

>  <Name>  (445) 
nan

>  <Pocket>  (445) 
nan

>  <ATP_Site>  (445) 
nan

>  <Peripheral>  (445) 
nan

>  <Num_H_Atoms_ProtBoundConf>  (445) 
nan

>  <Num_Resolved_Atoms>  (445) 
nan

>  <Num_Not_Resolved_Atoms>  (445) 
nan

$$$$
CHEMBL2381596
     RDKit          3D

  0  0  0  0  0  0  0  0  0  0999 V3000
M  V30 BEGIN CTAB
M  V30 COUNTS 45 48 0 0 0
M  V30 BEGIN ATOM
M  V30 1 N 1.005265 -4.878380 4.554508 0
M  V30 2 C 0.274883 -4.211649 3.533086 0
M  V30 3 O -0.685541 -4.905700 3.112081 0
M  V30 4 C 0.678753 -2.882590 3.101232 0
M  V30 5 C 1.760908 -2.269847 3.674970 0
M  V30 6 N 2.171710 -1.053347 3.315035 0
M  V30 7 C 1.536516 -0.346296 2.351818 0
M  V30 8 N 1.930480 0.961674 1.935779 0
M  V30 9 C 1.393527 1.830917 0.935202 0 CFG=1
M  V30 10 C 2.177690 3.121272 0.952721 0
M  V30 11 C 3.580009 2.831898 0.486387 0
M  V30 12 C 3.536436 2.280920 -0.924421 0
M  V30 13 N 2.193342 2.132481 -1.390591 0
M  V30 14 C 1.406209 1.307593 -0.461787 0
M  V30 15 C 0.440551 -0.981409 1.779495 0
M  V30 16 N -0.436844 -0.637231 0.825225 0
M  V30 17 C -1.352618 -1.592189 0.598567 0
M  V30 18 C -2.447045 -1.546507 -0.367258 0
M  V30 19 C -3.297295 -2.628469 -0.463334 0
M  V30 20 C -4.316217 -2.546677 -1.385525 0
M  V30 21 C -4.460808 -1.423882 -2.167000 0
M  V30 22 Cl -5.769420 -1.370897 -3.320911 0
M  V30 23 C -3.618533 -0.331969 -2.083594 0
M  V30 24 C -2.601719 -0.425337 -1.156431 0
M  V30 25 C -1.049740 -2.622568 1.461741 0
M  V30 26 N 0.029838 -2.206739 2.144723 0
M  V30 27 H 1.722943 -5.529737 4.154919 0
M  V30 28 H 0.904010 -4.789121 5.592888 0
M  V30 29 H 2.334391 -2.754776 4.454437 0
M  V30 30 H 2.760960 1.290288 2.504774 0
M  V30 31 H 0.340652 2.102175 1.233181 0
M  V30 32 H 2.271172 3.400472 2.040700 0
M  V30 33 H 1.688621 3.923225 0.373258 0
M  V30 34 H 3.992525 2.020538 1.112700 0
M  V30 35 H 4.229715 3.737018 0.536359 0
M  V30 36 H 4.031912 3.007556 -1.618197 0
M  V30 37 H 4.064034 1.312354 -1.032956 0
M  V30 38 H 1.746729 3.041706 -1.544769 0
M  V30 39 H 1.772474 0.294355 -0.603525 0
M  V30 40 H 0.359066 1.368444 -0.890502 0
M  V30 41 H -3.197965 -3.510977 0.138612 0
M  V30 42 H -5.025095 -3.368074 -1.512861 0
M  V30 43 H -3.702436 0.565916 -2.681307 0
M  V30 44 H -1.919616 0.425875 -1.069530 0
M  V30 45 H -1.625595 -3.515312 1.490246 0
M  V30 END ATOM
M  V30 BEGIN BOND
M  V30 1 1 1 2
M  V30 2 2 2 3
M  V30 3 1 2 4
M  V30 4 2 4 5
M  V30 5 1 5 6
M  V30 6 2 6 7
M  V30 7 1 7 8
M  V30 8 1 8 9
M  V30 9 1 9 10
M  V30 10 1 10 11
M  V30 11 1 11 12
M  V30 12 1 12 13
M  V30 13 1 13 14
M  V30 14 1 7 15
M  V30 15 2 15 16
M  V30 16 1 16 17
M  V30 17 1 17 18
M  V30 18 2 18 19
M  V30 19 1 19 20
M  V30 20 2 20 21
M  V30 21 1 21 22
M  V30 22 1 21 23
M  V30 23 2 23 24
M  V30 24 2 17 25
M  V30 25 1 25 26
M  V30 26 1 26 4
M  V30 27 1 14 9
M  V30 28 1 26 15
M  V30 29 1 24 18
M  V30 30 1 1 27
M  V30 31 1 1 28
M  V30 32 1 5 29
M  V30 33 1 8 30
M  V30 34 1 9 31 CFG=1
M  V30 35 1 10 32
M  V30 36 1 10 33
M  V30 37 1 11 34
M  V30 38 1 11 35
M  V30 39 1 12 36
M  V30 40 1 12 37
M  V30 41 1 13 38
M  V30 42 1 14 39
M  V30 43 1 14 40
M  V30 44 1 19 41
M  V30 45 1 20 42
M  V30 46 1 23 43
M  V30 47 1 24 44
M  V30 48 1 25 45
M  V30 END BOND
M  V30 END CTAB
M  END
>  <Dataset>  (446) 
ChEMBL_Kinases

>  <Ligand_Instance>  (446) 
nan

>  <PDB_ID>  (446) 
nan

>  <Standardized_SMILES>  (446) 
NC(=O)c1cnc(N[C@H]2CCCNC2)c2nc(-c3ccc(Cl)cc3)cn12

>  <Name>  (446) 
nan

>  <Pocket>  (446) 
nan

>  <ATP_Site>  (446) 
nan

>  <Peripheral>  (446) 
nan

>  <Num_H_Atoms_ProtBoundConf>  (446) 
nan

>  <Num_Resolved_Atoms>  (446) 
nan

>  <Num_Not_Resolved_Atoms>  (446) 
nan

$$$$
CHEMBL2381598
     RDKit          3D

  0  0  0  0  0  0  0  0  0  0999 V3000
M  V30 BEGIN CTAB
M  V30 COUNTS 45 48 0 0 0
M  V30 BEGIN ATOM
M  V30 1 N 1.407045 -5.363583 3.903305 0
M  V30 2 C 0.669314 -4.642728 2.928541 0
M  V30 3 O -0.158153 -5.357098 2.310547 0
M  V30 4 C 0.923174 -3.229041 2.745296 0
M  V30 5 C 1.869783 -2.573055 3.502630 0
M  V30 6 N 2.139500 -1.283777 3.374189 0
M  V30 7 C 1.488723 -0.520175 2.474180 0
M  V30 8 N 1.753822 0.871431 2.321456 0
M  V30 9 C 1.178384 1.838426 1.406514 0
M  V30 10 C 1.490913 1.534907 -0.020415 0
M  V30 11 C 2.413097 2.519423 -0.677311 0
M  V30 12 N 3.186009 3.287385 0.274150 0
M  V30 13 C 2.197928 4.112681 0.969282 0
M  V30 14 C 1.432742 3.215283 1.880101 0
M  V30 15 C 0.530103 -1.172207 1.703607 0
M  V30 16 N -0.298610 -0.776151 0.742359 0
M  V30 17 C -1.069164 -1.772498 0.273009 0
M  V30 18 C -2.080293 -1.686765 -0.776353 0
M  V30 19 C -2.767730 -2.834505 -1.114489 0
M  V30 20 C -3.725849 -2.739083 -2.113316 0
M  V30 21 C -3.983753 -1.539131 -2.747636 0
M  V30 22 Cl -5.198571 -1.454476 -4.002758 0
M  V30 23 C -3.275579 -0.404474 -2.384454 0
M  V30 24 C -2.305418 -0.468238 -1.383298 0
M  V30 25 C -0.695557 -2.884963 0.996955 0
M  V30 26 N 0.267175 -2.479516 1.844612 0
M  V30 27 H 2.254650 -5.868854 3.518692 0
M  V30 28 H 1.373841 -5.560363 4.927350 0
M  V30 29 H 2.432449 -3.128480 4.247988 0
M  V30 30 H 2.491831 1.249215 2.986951 0
M  V30 31 H 0.061297 1.665144 1.508767 0
M  V30 32 H 2.005548 0.553456 -0.065460 0
M  V30 33 H 0.589876 1.457295 -0.659971 0
M  V30 34 H 1.830507 3.241678 -1.286635 0
M  V30 35 H 3.135632 2.034769 -1.366614 0
M  V30 36 H 3.683450 2.650302 0.922136 0
M  V30 37 H 1.565224 4.537709 0.161183 0
M  V30 38 H 2.726129 4.892122 1.541376 0
M  V30 39 H 2.013424 3.199899 2.849814 0
M  V30 40 H 0.496204 3.772031 2.166693 0
M  V30 41 H -2.580981 -3.785968 -0.629485 0
M  V30 42 H -4.313415 -3.597942 -2.440334 0
M  V30 43 H -3.448627 0.565964 -2.861512 0
M  V30 44 H -1.722654 0.398878 -1.063706 0
M  V30 45 H -1.154587 -3.847929 0.832209 0
M  V30 END ATOM
M  V30 BEGIN BOND
M  V30 1 1 1 2
M  V30 2 2 2 3
M  V30 3 1 2 4
M  V30 4 2 4 5
M  V30 5 1 5 6
M  V30 6 2 6 7
M  V30 7 1 7 8
M  V30 8 1 8 9
M  V30 9 1 9 10
M  V30 10 1 10 11
M  V30 11 1 11 12
M  V30 12 1 12 13
M  V30 13 1 13 14
M  V30 14 1 7 15
M  V30 15 2 15 16
M  V30 16 1 16 17
M  V30 17 1 17 18
M  V30 18 2 18 19
M  V30 19 1 19 20
M  V30 20 2 20 21
M  V30 21 1 21 22
M  V30 22 1 21 23
M  V30 23 2 23 24
M  V30 24 2 17 25
M  V30 25 1 25 26
M  V30 26 1 26 4
M  V30 27 1 14 9
M  V30 28 1 26 15
M  V30 29 1 24 18
M  V30 30 1 1 27
M  V30 31 1 1 28
M  V30 32 1 5 29
M  V30 33 1 8 30
M  V30 34 1 9 31
M  V30 35 1 10 32
M  V30 36 1 10 33
M  V30 37 1 11 34
M  V30 38 1 11 35
M  V30 39 1 12 36
M  V30 40 1 13 37
M  V30 41 1 13 38
M  V30 42 1 14 39
M  V30 43 1 14 40
M  V30 44 1 19 41
M  V30 45 1 20 42
M  V30 46 1 23 43
M  V30 47 1 24 44
M  V30 48 1 25 45
M  V30 END BOND
M  V30 END CTAB
M  END
>  <Dataset>  (447) 
ChEMBL_Kinases

>  <Ligand_Instance>  (447) 
nan

>  <PDB_ID>  (447) 
nan

>  <Standardized_SMILES>  (447) 
NC(=O)c1cnc(NC2CCNCC2)c2nc(-c3ccc(Cl)cc3)cn12

>  <Name>  (447) 
nan

>  <Pocket>  (447) 
nan

>  <ATP_Site>  (447) 
nan

>  <Peripheral>  (447) 
nan

>  <Num_H_Atoms_ProtBoundConf>  (447) 
nan

>  <Num_Resolved_Atoms>  (447) 
nan

>  <Num_Not_Resolved_Atoms>  (447) 
nan

$$$$
CHEMBL4465294
     RDKit          3D

  0  0  0  0  0  0  0  0  0  0999 V3000
M  V30 BEGIN CTAB
M  V30 COUNTS 48 50 0 0 0
M  V30 BEGIN ATOM
M  V30 1 C 4.441790 -3.555109 -1.281923 0
M  V30 2 C 4.076019 -2.094897 -1.425067 0
M  V30 3 C 5.391985 -1.308565 -1.497355 0
M  V30 4 O 3.266998 -1.822617 -2.521937 0
M  V30 5 C 2.032268 -1.245322 -2.551349 0
M  V30 6 C 1.276374 -0.787504 -1.494677 0
M  V30 7 C 0.032826 -0.214467 -1.612728 0
M  V30 8 C -0.660343 0.228852 -0.408353 0
M  V30 9 C 0.073886 0.701169 0.685927 0
M  V30 10 N -0.587618 1.107301 1.792045 0
M  V30 11 C -1.935226 1.076246 1.886140 0
M  V30 12 C -2.724398 0.621443 0.843055 0
M  V30 13 N -4.125316 0.592988 0.951086 0
M  V30 14 C -5.043171 0.137013 -0.078346 0
M  V30 15 C -6.230291 1.075469 -0.062636 0
M  V30 16 O -6.913435 0.956422 1.122320 0
M  V30 17 C -6.172856 0.414668 2.151209 0
M  V30 18 C -4.771368 1.044607 2.169416 0
M  V30 19 C -2.030397 0.220386 -0.254444 0
M  V30 20 C -0.527169 -0.072953 -2.866958 0
M  V30 21 C 0.190614 -0.516040 -3.956726 0
M  V30 22 C 1.436983 -1.086538 -3.799293 0
M  V30 23 C 2.108325 -1.519986 -5.017710 0
M  V30 24 N 3.400686 -2.124431 -4.978491 0
M  V30 25 O 1.815995 -1.500186 -6.240389 0
M  V30 26 H 5.402561 -3.617987 -0.728265 0
M  V30 27 H 4.590499 -4.080034 -2.236651 0
M  V30 28 H 3.695905 -4.114675 -0.683231 0
M  V30 29 H 3.562014 -1.757896 -0.501814 0
M  V30 30 H 5.469293 -0.827550 -2.494459 0
M  V30 31 H 6.263210 -1.967351 -1.392466 0
M  V30 32 H 5.449182 -0.539547 -0.676579 0
M  V30 33 H 1.718952 -0.900706 -0.514602 0
M  V30 34 H 1.155377 0.731082 0.622920 0
M  V30 35 H -2.350561 1.426757 2.820546 0
M  V30 36 H -5.405321 -0.870168 0.203448 0
M  V30 37 H -4.585229 0.055695 -1.079731 0
M  V30 38 H -6.861538 0.833462 -0.952759 0
M  V30 39 H -5.827288 2.107209 -0.131111 0
M  V30 40 H -6.666120 0.674522 3.106206 0
M  V30 41 H -6.089850 -0.687444 2.116267 0
M  V30 42 H -4.829966 2.131851 2.244093 0
M  V30 43 H -4.198155 0.588803 3.017586 0
M  V30 44 H -2.558143 -0.154018 -1.127785 0
M  V30 45 H -1.506423 0.380733 -2.936672 0
M  V30 46 H -0.272879 -0.392398 -4.926936 0
M  V30 47 H 3.796735 -3.105995 -4.908016 0
M  V30 48 H 4.189632 -1.414234 -5.033845 0
M  V30 END ATOM
M  V30 BEGIN BOND
M  V30 1 1 1 2
M  V30 2 1 2 3
M  V30 3 1 2 4
M  V30 4 1 4 5
M  V30 5 2 5 6
M  V30 6 1 6 7
M  V30 7 1 7 8
M  V30 8 2 8 9
M  V30 9 1 9 10
M  V30 10 2 10 11
M  V30 11 1 11 12
M  V30 12 1 12 13
M  V30 13 1 13 14
M  V30 14 1 14 15
M  V30 15 1 15 16
M  V30 16 1 16 17
M  V30 17 1 17 18
M  V30 18 2 12 19
M  V30 19 2 7 20
M  V30 20 1 20 21
M  V30 21 2 21 22
M  V30 22 1 22 23
M  V30 23 1 23 24
M  V30 24 2 23 25
M  V30 25 1 22 5
M  V30 26 1 19 8
M  V30 27 1 18 13
M  V30 28 1 1 26
M  V30 29 1 1 27
M  V30 30 1 1 28
M  V30 31 1 2 29
M  V30 32 1 3 30
M  V30 33 1 3 31
M  V30 34 1 3 32
M  V30 35 1 6 33
M  V30 36 1 9 34
M  V30 37 1 11 35
M  V30 38 1 14 36
M  V30 39 1 14 37
M  V30 40 1 15 38
M  V30 41 1 15 39
M  V30 42 1 17 40
M  V30 43 1 17 41
M  V30 44 1 18 42
M  V30 45 1 18 43
M  V30 46 1 19 44
M  V30 47 1 20 45
M  V30 48 1 21 46
M  V30 49 1 24 47
M  V30 50 1 24 48
M  V30 END BOND
M  V30 END CTAB
M  END
>  <Dataset>  (448) 
ChEMBL_Kinases

>  <Ligand_Instance>  (448) 
nan

>  <PDB_ID>  (448) 
nan

>  <Standardized_SMILES>  (448) 
CC(C)Oc1cc(-c2cncc(N3CCOCC3)c2)ccc1C(N)=O

>  <Name>  (448) 
nan

>  <Pocket>  (448) 
nan

>  <ATP_Site>  (448) 
nan

>  <Peripheral>  (448) 
nan

>  <Num_H_Atoms_ProtBoundConf>  (448) 
nan

>  <Num_Resolved_Atoms>  (448) 
nan

>  <Num_Not_Resolved_Atoms>  (448) 
nan

$$$$
CHEMBL3698640
     RDKit          3D

  0  0  0  0  0  0  0  0  0  0999 V3000
M  V30 BEGIN CTAB
M  V30 COUNTS 59 64 0 0 0
M  V30 BEGIN ATOM
M  V30 1 C 3.255071 -3.643893 6.815892 0
M  V30 2 C 3.032896 -4.111173 5.399359 0 CFG=2
M  V30 3 C 3.453070 -3.081619 4.378957 0
M  V30 4 N 2.367703 -2.267886 3.886452 0
M  V30 5 C 2.363093 -1.658796 2.605982 0
M  V30 6 C 1.424208 -0.756532 2.147638 0
M  V30 7 C 1.473503 -0.207525 0.887105 0
M  V30 8 C 2.474487 -0.533840 0.006237 0
M  V30 9 N 2.623358 -0.033506 -1.317908 0
M  V30 10 C 1.708372 0.862849 -1.957251 0
M  V30 11 N 2.049916 1.934191 -2.720043 0
M  V30 12 C 1.058130 2.663649 -3.279755 0
M  V30 13 C -0.237463 2.258290 -3.029373 0
M  V30 14 C -1.382888 2.851667 -3.502516 0
M  V30 15 C -1.783503 3.929457 -4.296807 0
M  V30 16 C -3.112214 4.260430 -4.585802 0
M  V30 17 N -4.004040 3.429775 -4.018836 0
M  V30 18 C -3.694355 2.379361 -3.249366 0
M  V30 19 C -2.388251 2.073313 -2.978927 0
M  V30 20 N -1.963449 1.057862 -2.228248 0
M  V30 21 C -2.516809 -0.045889 -1.467818 0
M  V30 22 C -3.861390 -0.513631 -1.930150 0
M  V30 23 C -3.937523 -1.916762 -1.293422 0
M  V30 24 C -2.545459 -2.442474 -1.511768 0
M  V30 25 C -1.641189 -1.270959 -1.640993 0
M  V30 26 C -0.598721 1.175498 -2.259107 0
M  V30 27 N 0.449780 0.512615 -1.744154 0
M  V30 28 N 3.367695 -1.414274 0.487851 0
M  V30 29 N 3.313172 -1.935508 1.698275 0
M  V30 30 C 1.284847 -2.162654 4.851033 0
M  V30 31 C 0.709673 -3.549909 5.014853 0
M  V30 32 N 1.683857 -4.557208 5.233468 0
M  V30 33 H 3.848199 -4.413306 7.348137 0
M  V30 34 H 3.881322 -2.719243 6.871287 0
M  V30 35 H 2.300494 -3.520000 7.368832 0
M  V30 36 H 3.695243 -4.993997 5.233313 0
M  V30 37 H 4.065531 -3.542895 3.551795 0
M  V30 38 H 4.148343 -2.393731 4.902510 0
M  V30 39 H 0.620334 -0.454112 2.778897 0
M  V30 40 H 0.717416 0.495881 0.575833 0
M  V30 41 H 3.450424 -0.350344 -1.867199 0
M  V30 42 H 1.301941 3.516971 -3.884627 0
M  V30 43 H -0.883577 4.466711 -4.649323 0
M  V30 44 H -3.230354 5.123542 -5.210599 0
M  V30 45 H -4.527794 1.821990 -2.879895 0
M  V30 46 H -2.584299 0.183242 -0.383637 0
M  V30 47 H -4.709718 0.046996 -1.477282 0
M  V30 48 H -3.934023 -0.615101 -3.014897 0
M  V30 49 H -4.734739 -2.533596 -1.738512 0
M  V30 50 H -4.107937 -1.750096 -0.188176 0
M  V30 51 H -2.579766 -3.102374 -2.416050 0
M  V30 52 H -2.221857 -3.058288 -0.630680 0
M  V30 53 H -1.192031 -1.173715 -2.672801 0
M  V30 54 H -0.834327 -1.255510 -0.872285 0
M  V30 55 H 1.593949 -1.706501 5.816630 0
M  V30 56 H 0.469492 -1.542198 4.432854 0
M  V30 57 H 0.168428 -3.782692 4.073961 0
M  V30 58 H -0.044081 -3.599155 5.833631 0
M  V30 59 H 1.566674 -5.448333 4.706973 0
M  V30 END ATOM
M  V30 BEGIN BOND
M  V30 1 1 1 2
M  V30 2 1 2 3
M  V30 3 1 3 4
M  V30 4 1 4 5
M  V30 5 2 5 6
M  V30 6 1 6 7
M  V30 7 2 7 8
M  V30 8 1 8 9
M  V30 9 1 9 10
M  V30 10 2 10 11
M  V30 11 1 11 12
M  V30 12 2 12 13
M  V30 13 1 13 14
M  V30 14 2 14 15
M  V30 15 1 15 16
M  V30 16 2 16 17
M  V30 17 1 17 18
M  V30 18 2 18 19
M  V30 19 1 19 20
M  V30 20 1 20 21
M  V30 21 1 21 22
M  V30 22 1 22 23
M  V30 23 1 23 24
M  V30 24 1 24 25
M  V30 25 1 20 26
M  V30 26 2 26 27
M  V30 27 1 8 28
M  V30 28 2 28 29
M  V30 29 1 4 30
M  V30 30 1 30 31
M  V30 31 1 31 32
M  V30 32 1 32 2
M  V30 33 1 29 5
M  V30 34 1 27 10
M  V30 35 1 26 13
M  V30 36 1 19 14
M  V30 37 1 25 21
M  V30 38 1 1 33
M  V30 39 1 1 34
M  V30 40 1 1 35
M  V30 41 1 2 36 CFG=3
M  V30 42 1 3 37
M  V30 43 1 3 38
M  V30 44 1 6 39
M  V30 45 1 7 40
M  V30 46 1 9 41
M  V30 47 1 12 42
M  V30 48 1 15 43
M  V30 49 1 16 44
M  V30 50 1 18 45
M  V30 51 1 21 46
M  V30 52 1 22 47
M  V30 53 1 22 48
M  V30 54 1 23 49
M  V30 55 1 23 50
M  V30 56 1 24 51
M  V30 57 1 24 52
M  V30 58 1 25 53
M  V30 59 1 25 54
M  V30 60 1 30 55
M  V30 61 1 30 56
M  V30 62 1 31 57
M  V30 63 1 31 58
M  V30 64 1 32 59
M  V30 END BOND
M  V30 END CTAB
M  END
>  <Dataset>  (449) 
ChEMBL_Kinases

>  <Ligand_Instance>  (449) 
nan

>  <PDB_ID>  (449) 
nan

>  <Standardized_SMILES>  (449) 
C[C@@H]1CN(c2ccc(Nc3ncc4c5ccncc5n(C5CCCC5)c4n3)nn2)CCN1

>  <Name>  (449) 
nan

>  <Pocket>  (449) 
nan

>  <ATP_Site>  (449) 
nan

>  <Peripheral>  (449) 
nan

>  <Num_H_Atoms_ProtBoundConf>  (449) 
nan

>  <Num_Resolved_Atoms>  (449) 
nan

>  <Num_Not_Resolved_Atoms>  (449) 
nan

$$$$
CHEMBL4461288
     RDKit          3D

  0  0  0  0  0  0  0  0  0  0999 V3000
M  V30 BEGIN CTAB
M  V30 COUNTS 45 49 0 0 0
M  V30 BEGIN ATOM
M  V30 1 C 3.262338 -1.822834 1.982525 0
M  V30 2 O 2.627801 -1.952020 0.716180 0
M  V30 3 C 2.617118 -0.969462 -0.253603 0
M  V30 4 C 3.651085 -0.955082 -1.174216 0
M  V30 5 B 4.837797 -1.957411 -1.243961 0
M  V30 6 O 5.044436 -2.846081 -0.103886 0
M  V30 7 O 5.007789 -2.622127 -2.563369 0
M  V30 8 C 3.628464 0.032377 -2.140990 0
M  V30 9 C 2.648681 0.995824 -2.244861 0
M  V30 10 C 1.617486 0.959719 -1.305910 0
M  V30 11 C 1.640068 -0.024887 -0.343081 0
M  V30 12 C 0.503181 0.024430 0.604360 0
M  V30 13 N 0.656418 0.204867 1.919494 0
M  V30 14 C -0.395275 0.221234 2.748790 0
M  V30 15 C -0.135216 0.425138 4.083173 0
M  V30 16 C -1.216156 0.457512 4.936604 0
M  V30 17 C -2.509195 0.290219 4.452199 0
M  V30 18 N -3.700784 0.299557 5.122024 0
M  V30 19 N -4.618613 0.103720 4.166287 0
M  V30 20 C -4.037048 -0.020290 2.973988 0
M  V30 21 C -2.688892 0.090020 3.106799 0
M  V30 22 C -1.642925 0.043468 2.188732 0
M  V30 23 C -1.889068 -0.150329 0.847021 0
M  V30 24 C -0.759848 -0.158478 0.016299 0
M  V30 25 C -1.169802 -0.375502 -1.405339 0
M  V30 26 C -2.620878 -0.715165 -1.351326 0
M  V30 27 C -3.120780 -0.394965 0.050113 0
M  V30 28 H 3.747318 -2.804223 2.269430 0
M  V30 29 H 4.036161 -1.031711 1.876070 0
M  V30 30 H 2.542535 -1.582059 2.805448 0
M  V30 31 H 4.747332 -3.767884 -0.283711 0
M  V30 32 H 4.102897 -3.002825 -2.812362 0
M  V30 33 H 4.435960 0.083501 -2.895606 0
M  V30 34 H 2.703864 1.750994 -3.044162 0
M  V30 35 H 0.913935 1.760451 -1.467418 0
M  V30 36 H 0.866293 0.554231 4.469464 0
M  V30 37 H -1.083896 0.611637 6.015195 0
M  V30 38 H -3.847066 0.430213 6.141923 0
M  V30 39 H -4.646873 -0.174826 2.102641 0
M  V30 40 H -0.970317 0.523029 -2.030693 0
M  V30 41 H -0.618954 -1.250392 -1.829781 0
M  V30 42 H -3.146613 -0.080822 -2.118638 0
M  V30 43 H -2.802887 -1.760595 -1.650606 0
M  V30 44 H -3.647200 -1.319336 0.392132 0
M  V30 45 H -3.741837 0.504159 -0.003226 0
M  V30 END ATOM
M  V30 BEGIN BOND
M  V30 1 1 1 2
M  V30 2 1 2 3
M  V30 3 2 3 4
M  V30 4 1 4 5
M  V30 5 1 5 6
M  V30 6 1 5 7
M  V30 7 1 4 8
M  V30 8 2 8 9
M  V30 9 1 9 10
M  V30 10 2 10 11
M  V30 11 1 11 12
M  V30 12 2 12 13
M  V30 13 1 13 14
M  V30 14 2 14 15
M  V30 15 1 15 16
M  V30 16 2 16 17
M  V30 17 1 17 18
M  V30 18 1 18 19
M  V30 19 2 19 20
M  V30 20 1 20 21
M  V30 21 2 21 22
M  V30 22 1 22 23
M  V30 23 2 23 24
M  V30 24 1 24 25
M  V30 25 1 25 26
M  V30 26 1 26 27
M  V30 27 1 11 3
M  V30 28 1 24 12
M  V30 29 1 22 14
M  V30 30 1 27 23
M  V30 31 1 21 17
M  V30 32 1 1 28
M  V30 33 1 1 29
M  V30 34 1 1 30
M  V30 35 1 6 31
M  V30 36 1 7 32
M  V30 37 1 8 33
M  V30 38 1 9 34
M  V30 39 1 10 35
M  V30 40 1 15 36
M  V30 41 1 16 37
M  V30 42 1 18 38
M  V30 43 1 20 39
M  V30 44 1 25 40
M  V30 45 1 25 41
M  V30 46 1 26 42
M  V30 47 1 26 43
M  V30 48 1 27 44
M  V30 49 1 27 45
M  V30 END BOND
M  V30 END CTAB
M  END
>  <Dataset>  (450) 
ChEMBL_Kinases

>  <Ligand_Instance>  (450) 
nan

>  <PDB_ID>  (450) 
nan

>  <Standardized_SMILES>  (450) 
COc1c(B(O)O)cccc1-c1nc2ccc3[nH]ncc3c2c2c1CCC2

>  <Name>  (450) 
nan

>  <Pocket>  (450) 
nan

>  <ATP_Site>  (450) 
nan

>  <Peripheral>  (450) 
nan

>  <Num_H_Atoms_ProtBoundConf>  (450) 
nan

>  <Num_Resolved_Atoms>  (450) 
nan

>  <Num_Not_Resolved_Atoms>  (450) 
nan

$$$$
CHEMBL3698639
     RDKit          3D

  0  0  0  0  0  0  0  0  0  0999 V3000
M  V30 BEGIN CTAB
M  V30 COUNTS 58 63 0 0 0
M  V30 BEGIN ATOM
M  V30 1 C 0.761813 -6.950053 4.316246 0
M  V30 2 C 1.473445 -5.832140 3.941527 0
M  V30 3 C 1.002954 -5.155557 2.833232 0
M  V30 4 C 1.438810 -4.022300 2.172115 0
M  V30 5 C 2.510402 -3.188935 2.416964 0
M  V30 6 N 2.734216 -2.131503 1.617686 0
M  V30 7 C 1.899681 -1.883268 0.564233 0
M  V30 8 N 1.946642 -0.843582 -0.402672 0
M  V30 9 C 1.419505 0.472697 -0.294647 0
M  V30 10 C 0.829174 0.901321 0.873613 0
M  V30 11 C 0.353734 2.197118 0.871869 0
M  V30 12 C 0.439771 3.052347 -0.208741 0
M  V30 13 N -0.049548 4.385767 -0.189467 0
M  V30 14 C -0.604181 5.089768 0.947626 0
M  V30 15 C 0.193552 6.362214 1.154478 0
M  V30 16 N 0.195778 7.163780 -0.030270 0
M  V30 17 C -0.524005 6.573872 -1.122880 0
M  V30 18 C -0.026251 5.179770 -1.404783 0
M  V30 19 C 1.039659 2.573888 -1.354084 0
M  V30 20 C 1.533584 1.279623 -1.403891 0
M  V30 21 N 0.879292 -2.719466 0.371937 0
M  V30 22 C 0.585221 -3.796824 1.121115 0
M  V30 23 N -0.374227 -4.745061 1.092509 0
M  V30 24 C -1.437756 -4.864647 0.160969 0
M  V30 25 C -2.403893 -3.759682 0.042460 0
M  V30 26 C -3.005413 -3.908670 -1.365544 0
M  V30 27 C -2.003985 -4.673733 -2.183484 0
M  V30 28 C -0.834320 -4.871290 -1.252042 0
M  V30 29 C -0.119913 -5.565117 2.128182 0
M  V30 30 C -0.793788 -6.697062 2.553932 0
M  V30 31 N -0.340303 -7.347344 3.619687 0
M  V30 32 H 1.030419 -7.561199 5.165684 0
M  V30 33 H 2.342917 -5.517607 4.491445 0
M  V30 34 H 3.212684 -3.317833 3.229348 0
M  V30 35 H 2.445395 -1.193929 -1.242514 0
M  V30 36 H 0.767135 0.229055 1.707083 0
M  V30 37 H -0.107084 2.527488 1.791594 0
M  V30 38 H -1.660753 5.381243 0.767143 0
M  V30 39 H -0.633290 4.478384 1.878059 0
M  V30 40 H -0.268925 6.975256 1.980597 0
M  V30 41 H 1.237931 6.162284 1.479774 0
M  V30 42 H -0.001403 8.161870 0.102297 0
M  V30 43 H -0.298638 7.179272 -2.049157 0
M  V30 44 H -1.602592 6.593071 -0.866591 0
M  V30 45 H 0.928865 5.181084 -1.932889 0
M  V30 46 H -0.785987 4.702923 -2.096067 0
M  V30 47 H 1.164456 3.153071 -2.266085 0
M  V30 48 H 2.011613 0.895761 -2.315619 0
M  V30 49 H -2.004215 -5.812054 0.321903 0
M  V30 50 H -3.293992 -3.910010 0.720794 0
M  V30 51 H -1.989673 -2.740906 0.077120 0
M  V30 52 H -3.935833 -4.494597 -1.357543 0
M  V30 53 H -3.232643 -2.911480 -1.808017 0
M  V30 54 H -2.386139 -5.612626 -2.607403 0
M  V30 55 H -1.701896 -4.049236 -3.051285 0
M  V30 56 H -0.329191 -5.812069 -1.491866 0
M  V30 57 H -0.207392 -3.957701 -1.353725 0
M  V30 58 H -1.676812 -7.043299 2.025315 0
M  V30 END ATOM
M  V30 BEGIN BOND
M  V30 1 2 1 2
M  V30 2 1 2 3
M  V30 3 1 3 4
M  V30 4 2 4 5
M  V30 5 1 5 6
M  V30 6 2 6 7
M  V30 7 1 7 8
M  V30 8 1 8 9
M  V30 9 2 9 10
M  V30 10 1 10 11
M  V30 11 2 11 12
M  V30 12 1 12 13
M  V30 13 1 13 14
M  V30 14 1 14 15
M  V30 15 1 15 16
M  V30 16 1 16 17
M  V30 17 1 17 18
M  V30 18 1 12 19
M  V30 19 2 19 20
M  V30 20 1 7 21
M  V30 21 2 21 22
M  V30 22 1 22 23
M  V30 23 1 23 24
M  V30 24 1 24 25
M  V30 25 1 25 26
M  V30 26 1 26 27
M  V30 27 1 27 28
M  V30 28 1 23 29
M  V30 29 1 29 30
M  V30 30 2 30 31
M  V30 31 1 31 1
M  V30 32 2 29 3
M  V30 33 1 22 4
M  V30 34 1 28 24
M  V30 35 1 20 9
M  V30 36 1 18 13
M  V30 37 1 1 32
M  V30 38 1 2 33
M  V30 39 1 5 34
M  V30 40 1 8 35
M  V30 41 1 10 36
M  V30 42 1 11 37
M  V30 43 1 14 38
M  V30 44 1 14 39
M  V30 45 1 15 40
M  V30 46 1 15 41
M  V30 47 1 16 42
M  V30 48 1 17 43
M  V30 49 1 17 44
M  V30 50 1 18 45
M  V30 51 1 18 46
M  V30 52 1 19 47
M  V30 53 1 20 48
M  V30 54 1 24 49
M  V30 55 1 25 50
M  V30 56 1 25 51
M  V30 57 1 26 52
M  V30 58 1 26 53
M  V30 59 1 27 54
M  V30 60 1 27 55
M  V30 61 1 28 56
M  V30 62 1 28 57
M  V30 63 1 30 58
M  V30 END BOND
M  V30 END CTAB
M  END
>  <Dataset>  (451) 
ChEMBL_Kinases

>  <Ligand_Instance>  (451) 
nan

>  <PDB_ID>  (451) 
nan

>  <Standardized_SMILES>  (451) 
c1cc2c3cnc(Nc4ccc(N5CCNCC5)cc4)nc3n(C3CCCC3)c2cn1

>  <Name>  (451) 
nan

>  <Pocket>  (451) 
nan

>  <ATP_Site>  (451) 
nan

>  <Peripheral>  (451) 
nan

>  <Num_H_Atoms_ProtBoundConf>  (451) 
nan

>  <Num_Resolved_Atoms>  (451) 
nan

>  <Num_Not_Resolved_Atoms>  (451) 
nan

$$$$
CHEMBL3698638
     RDKit          3D

  0  0  0  0  0  0  0  0  0  0999 V3000
M  V30 BEGIN CTAB
M  V30 COUNTS 60 65 0 0 0
M  V30 BEGIN ATOM
M  V30 1 C 0.751722 -3.047341 4.568640 0
M  V30 2 N 1.847135 -3.741125 4.035160 0
M  V30 3 C 3.136995 -3.483280 4.517579 0
M  V30 4 C 4.185813 -3.246126 3.438128 0
M  V30 5 N 3.500144 -3.235874 2.149219 0
M  V30 6 C 3.352739 -2.256021 1.113811 0
M  V30 7 C 2.358438 -1.322314 1.388139 0
M  V30 8 C 2.096229 -0.319303 0.472244 0
M  V30 9 C 2.841372 -0.297954 -0.675622 0
M  V30 10 N 2.585004 0.686802 -1.665883 0
M  V30 11 C 1.518775 1.609252 -1.402873 0
M  V30 12 N 1.528790 2.917348 -1.076038 0
M  V30 13 C 0.342476 3.540553 -0.870778 0
M  V30 14 C -0.848576 2.873351 -0.988010 0
M  V30 15 C -2.179550 3.213281 -0.844937 0
M  V30 16 C -2.745085 4.415394 -0.522300 0
M  V30 17 C -4.131927 4.450017 -0.454366 0
M  V30 18 N -4.846161 3.313016 -0.705438 0
M  V30 19 C -4.241320 2.161948 -1.016544 0
M  V30 20 C -2.871164 2.052755 -1.102688 0
M  V30 21 N -2.090477 1.014861 -1.395573 0
M  V30 22 C -2.392460 -0.343514 -1.712354 0
M  V30 23 C -2.932298 -1.114384 -0.524053 0
M  V30 24 C -3.569569 -2.310693 -1.227290 0
M  V30 25 C -4.387505 -1.574447 -2.295127 0
M  V30 26 C -3.385264 -0.554813 -2.805067 0
M  V30 27 C -0.826494 1.539470 -1.321716 0
M  V30 28 N 0.361553 0.941955 -1.521051 0
M  V30 29 N 3.810813 -1.201863 -0.947696 0
M  V30 30 C 4.069839 -2.183824 -0.055256 0
M  V30 31 C 2.840553 -4.535424 1.959892 0
M  V30 32 C 1.655109 -4.552567 2.906961 0
M  V30 33 H -0.108072 -3.100352 3.843030 0
M  V30 34 H 0.362202 -3.464528 5.503297 0
M  V30 35 H 1.017469 -1.978527 4.721293 0
M  V30 36 H 3.484624 -4.293798 5.214300 0
M  V30 37 H 3.119495 -2.572831 5.165118 0
M  V30 38 H 4.722722 -2.277839 3.597352 0
M  V30 39 H 4.927218 -4.069927 3.411814 0
M  V30 40 H 1.749461 -1.305977 2.279398 0
M  V30 41 H 1.341267 0.425041 0.641443 0
M  V30 42 H 3.119565 0.766608 -2.550147 0
M  V30 43 H 0.386127 4.580804 -0.612479 0
M  V30 44 H -2.127654 5.287709 -0.332028 0
M  V30 45 H -4.555136 5.418400 -0.197268 0
M  V30 46 H -4.856090 1.298849 -1.201158 0
M  V30 47 H -1.450520 -0.889449 -2.000649 0
M  V30 48 H -2.088825 -1.507885 0.072892 0
M  V30 49 H -3.696515 -0.586263 0.044389 0
M  V30 50 H -4.214491 -2.883413 -0.564285 0
M  V30 51 H -2.815297 -2.931646 -1.732982 0
M  V30 52 H -4.717918 -2.268249 -3.068878 0
M  V30 53 H -5.219093 -1.025465 -1.814439 0
M  V30 54 H -2.915248 -1.050917 -3.706462 0
M  V30 55 H -3.861887 0.359875 -3.158955 0
M  V30 56 H 4.838970 -2.958968 -0.195014 0
M  V30 57 H 3.511638 -5.382423 2.145565 0
M  V30 58 H 2.505835 -4.606436 0.915387 0
M  V30 59 H 0.789602 -4.128535 2.332731 0
M  V30 60 H 1.371579 -5.607955 3.092493 0
M  V30 END ATOM
M  V30 BEGIN BOND
M  V30 1 1 1 2
M  V30 2 1 2 3
M  V30 3 1 3 4
M  V30 4 1 4 5
M  V30 5 1 5 6
M  V30 6 2 6 7
M  V30 7 1 7 8
M  V30 8 2 8 9
M  V30 9 1 9 10
M  V30 10 1 10 11
M  V30 11 2 11 12
M  V30 12 1 12 13
M  V30 13 2 13 14
M  V30 14 1 14 15
M  V30 15 2 15 16
M  V30 16 1 16 17
M  V30 17 2 17 18
M  V30 18 1 18 19
M  V30 19 2 19 20
M  V30 20 1 20 21
M  V30 21 1 21 22
M  V30 22 1 22 23
M  V30 23 1 23 24
M  V30 24 1 24 25
M  V30 25 1 25 26
M  V30 26 1 21 27
M  V30 27 2 27 28
M  V30 28 1 9 29
M  V30 29 2 29 30
M  V30 30 1 5 31
M  V30 31 1 31 32
M  V30 32 1 32 2
M  V30 33 1 30 6
M  V30 34 1 28 11
M  V30 35 1 27 14
M  V30 36 1 20 15
M  V30 37 1 26 22
M  V30 38 1 1 33
M  V30 39 1 1 34
M  V30 40 1 1 35
M  V30 41 1 3 36
M  V30 42 1 3 37
M  V30 43 1 4 38
M  V30 44 1 4 39
M  V30 45 1 7 40
M  V30 46 1 8 41
M  V30 47 1 10 42
M  V30 48 1 13 43
M  V30 49 1 16 44
M  V30 50 1 17 45
M  V30 51 1 19 46
M  V30 52 1 22 47
M  V30 53 1 23 48
M  V30 54 1 23 49
M  V30 55 1 24 50
M  V30 56 1 24 51
M  V30 57 1 25 52
M  V30 58 1 25 53
M  V30 59 1 26 54
M  V30 60 1 26 55
M  V30 61 1 30 56
M  V30 62 1 31 57
M  V30 63 1 31 58
M  V30 64 1 32 59
M  V30 65 1 32 60
M  V30 END BOND
M  V30 END CTAB
M  END
>  <Dataset>  (452) 
ChEMBL_Kinases

>  <Ligand_Instance>  (452) 
nan

>  <PDB_ID>  (452) 
nan

>  <Standardized_SMILES>  (452) 
CN1CCN(c2ccc(Nc3ncc4c5ccncc5n(C5CCCC5)c4n3)nc2)CC1

>  <Name>  (452) 
nan

>  <Pocket>  (452) 
nan

>  <ATP_Site>  (452) 
nan

>  <Peripheral>  (452) 
nan

>  <Num_H_Atoms_ProtBoundConf>  (452) 
nan

>  <Num_Resolved_Atoms>  (452) 
nan

>  <Num_Not_Resolved_Atoms>  (452) 
nan

$$$$
CHEMBL4567212
     RDKit          3D

  0  0  0  0  0  0  0  0  0  0999 V3000
M  V30 BEGIN CTAB
M  V30 COUNTS 54 58 0 0 0
M  V30 BEGIN ATOM
M  V30 1 C 5.234875 0.125685 0.952624 0
M  V30 2 N 5.840504 0.763425 2.097437 0
M  V30 3 N 6.814275 0.232920 2.797193 0
M  V30 4 C 7.170488 1.034794 3.800572 0
M  V30 5 C 6.336378 2.124312 3.677024 0
M  V30 6 C 5.495299 1.963074 2.607678 0
M  V30 7 N 4.509456 2.894660 2.186470 0
M  V30 8 C 3.659464 2.742360 1.060665 0
M  V30 9 N 4.011700 3.369946 -0.100976 0
M  V30 10 C 3.172219 3.174350 -1.149714 0
M  V30 11 C 2.021219 2.387601 -1.066048 0
M  V30 12 C 1.696330 1.769060 0.122011 0
M  V30 13 C 0.522928 0.923392 0.319032 0
M  V30 14 C 0.360345 0.393412 1.585370 0
M  V30 15 C -0.735010 -0.428714 1.769300 0
M  V30 16 C -1.640787 -0.734226 0.783944 0
M  V30 17 C -1.403727 -0.163976 -0.450943 0
M  V30 18 C -0.337875 0.670505 -0.730272 0
M  V30 19 C -2.432171 -0.641227 -1.395090 0
M  V30 20 O -2.651019 -0.415561 -2.614712 0
M  V30 21 N -3.284181 -1.520268 -0.668766 0
M  V30 22 C -4.409180 -2.353521 -1.122663 0
M  V30 23 C -5.627509 -1.789061 -0.370340 0
M  V30 24 O -5.807319 -0.435175 -0.711159 0
M  V30 25 C -4.227833 -3.758541 -0.659959 0
M  V30 26 C -5.175857 -4.617088 -0.144905 0
M  V30 27 C -4.779246 -5.881400 0.239956 0
M  V30 28 C -3.503145 -6.371678 0.154949 0
M  V30 29 C -2.560921 -5.494066 -0.366268 0
M  V30 30 Cl -0.895167 -6.036875 -0.509735 0
M  V30 31 C -2.903899 -4.198890 -0.773538 0
M  V30 32 C -2.897246 -1.548849 0.710702 0
M  V30 33 N 2.556864 1.992548 1.132205 0
M  V30 34 H 4.256749 -0.292696 1.301299 0
M  V30 35 H 5.868844 -0.728120 0.590763 0
M  V30 36 H 5.076973 0.826266 0.136970 0
M  V30 37 H 7.950671 0.846999 4.540115 0
M  V30 38 H 6.316802 3.000898 4.311911 0
M  V30 39 H 4.364216 3.778540 2.718847 0
M  V30 40 H 3.360592 3.632833 -2.127803 0
M  V30 41 H 1.400558 2.269794 -1.917320 0
M  V30 42 H 1.065789 0.616363 2.399138 0
M  V30 43 H -0.856108 -0.843119 2.765268 0
M  V30 44 H -0.216102 1.081860 -1.717580 0
M  V30 45 H -4.549678 -2.234107 -2.191021 0
M  V30 46 H -6.539798 -2.325561 -0.696876 0
M  V30 47 H -5.448699 -1.787217 0.715076 0
M  V30 48 H -6.785791 -0.253419 -0.856106 0
M  V30 49 H -6.170609 -4.216263 -0.086035 0
M  V30 50 H -5.544089 -6.542606 0.642920 0
M  V30 51 H -3.259368 -7.376659 0.477299 0
M  V30 52 H -2.097387 -3.585028 -1.168810 0
M  V30 53 H -3.648663 -0.993610 1.348685 0
M  V30 54 H -2.784194 -2.571531 1.059920 0
M  V30 END ATOM
M  V30 BEGIN BOND
M  V30 1 1 1 2
M  V30 2 1 2 3
M  V30 3 2 3 4
M  V30 4 1 4 5
M  V30 5 2 5 6
M  V30 6 1 6 7
M  V30 7 1 7 8
M  V30 8 2 8 9
M  V30 9 1 9 10
M  V30 10 2 10 11
M  V30 11 1 11 12
M  V30 12 1 12 13
M  V30 13 2 13 14
M  V30 14 1 14 15
M  V30 15 2 15 16
M  V30 16 1 16 17
M  V30 17 2 17 18
M  V30 18 1 17 19
M  V30 19 2 19 20
M  V30 20 1 19 21
M  V30 21 1 21 22
M  V30 22 1 22 23
M  V30 23 1 23 24
M  V30 24 1 22 25
M  V30 25 2 25 26
M  V30 26 1 26 27
M  V30 27 2 27 28
M  V30 28 1 28 29
M  V30 29 1 29 30
M  V30 30 2 29 31
M  V30 31 1 21 32
M  V30 32 2 12 33
M  V30 33 1 6 2
M  V30 34 1 33 8
M  V30 35 1 18 13
M  V30 36 1 31 25
M  V30 37 1 32 16
M  V30 38 1 1 34
M  V30 39 1 1 35
M  V30 40 1 1 36
M  V30 41 1 4 37
M  V30 42 1 5 38
M  V30 43 1 7 39
M  V30 44 1 10 40
M  V30 45 1 11 41
M  V30 46 1 14 42
M  V30 47 1 15 43
M  V30 48 1 18 44
M  V30 49 1 22 45
M  V30 50 1 23 46
M  V30 51 1 23 47
M  V30 52 1 24 48
M  V30 53 1 26 49
M  V30 54 1 27 50
M  V30 55 1 28 51
M  V30 56 1 31 52
M  V30 57 1 32 53
M  V30 58 1 32 54
M  V30 END BOND
M  V30 END CTAB
M  END
>  <Dataset>  (453) 
ChEMBL_Kinases

>  <Ligand_Instance>  (453) 
nan

>  <PDB_ID>  (453) 
nan

>  <Standardized_SMILES>  (453) 
Cn1nccc1Nc1nccc(-c2ccc3c(c2)C(=O)N(C(CO)c2cccc(Cl)c2)C3)n1

>  <Name>  (453) 
nan

>  <Pocket>  (453) 
nan

>  <ATP_Site>  (453) 
nan

>  <Peripheral>  (453) 
nan

>  <Num_H_Atoms_ProtBoundConf>  (453) 
nan

>  <Num_Resolved_Atoms>  (453) 
nan

>  <Num_Not_Resolved_Atoms>  (453) 
nan

$$$$
CHEMBL3702341
     RDKit          3D

  0  0  0  0  0  0  0  0  0  0999 V3000
M  V30 BEGIN CTAB
M  V30 COUNTS 59 61 0 0 0
M  V30 BEGIN ATOM
M  V30 1 C 0.296141 0.755584 1.916773 0
M  V30 2 C 1.148530 0.146120 3.074091 0
M  V30 3 C 2.420333 0.590920 3.711752 0
M  V30 4 C 2.638883 1.642791 2.622403 0
M  V30 5 O 2.819354 2.901574 2.681875 0
M  V30 6 N 2.751283 1.481472 1.181936 0
M  V30 7 C 2.884324 1.518600 -0.244838 0
M  V30 8 C 1.772439 2.262244 -0.960296 0
M  V30 9 C 1.971175 2.216797 -2.448988 0
M  V30 10 N 0.811558 2.900879 -3.059207 0
M  V30 11 C 0.921982 2.831043 -4.510536 0
M  V30 12 C -0.392238 2.131799 -2.728894 0
M  V30 13 S 2.177786 -0.575657 4.902716 0
M  V30 14 C 0.749777 -1.440491 4.606005 0
M  V30 15 N 0.344976 -2.459434 5.411773 0
M  V30 16 C -0.804000 -3.081100 5.029834 0
M  V30 17 N -1.347673 -2.590543 3.933470 0
M  V30 18 C -0.861388 -1.578281 3.217418 0
M  V30 19 N -1.608765 -1.126523 2.096396 0
M  V30 20 C -2.569608 -2.058280 1.652033 0
M  V30 21 C -3.910651 -1.853066 1.917340 0
M  V30 22 C -4.831952 -2.741393 1.433883 0
M  V30 23 C -4.436136 -3.824852 0.692664 0
M  V30 24 F -5.359231 -4.700847 0.228094 0
M  V30 25 C -3.110853 -4.074095 0.398385 0
M  V30 26 C -2.158251 -3.175530 0.884969 0
M  V30 27 O -0.802875 -3.246954 0.690083 0
M  V30 28 C -0.083952 -4.179868 -0.040478 0
M  V30 29 C 0.481580 -3.419549 -1.253139 0
M  V30 30 C 1.076422 -4.674500 0.784770 0
M  V30 31 F 0.551961 -5.271602 1.940518 0
M  V30 32 C 0.280495 -0.873841 3.486650 0
M  V30 33 H -0.701321 1.083906 2.314689 0
M  V30 34 H 0.314775 0.117379 1.064535 0
M  V30 35 H 0.725166 1.720929 1.656488 0
M  V30 36 H 2.665880 0.391147 1.205870 0
M  V30 37 H 3.839481 2.088722 -0.518559 0
M  V30 38 H 3.003764 0.555490 -0.697970 0
M  V30 39 H 0.813996 1.805043 -0.664900 0
M  V30 40 H 1.776206 3.304554 -0.573618 0
M  V30 41 H 2.874616 2.797211 -2.723090 0
M  V30 42 H 2.018496 1.153666 -2.784895 0
M  V30 43 H 0.355596 3.669613 -4.931226 0
M  V30 44 H 1.934233 2.896579 -4.871800 0
M  V30 45 H 0.437281 1.892466 -4.888337 0
M  V30 46 H -0.805456 2.506503 -1.785641 0
M  V30 47 H -0.026206 1.070787 -2.641038 0
M  V30 48 H -1.093078 2.109325 -3.578456 0
M  V30 49 H -1.213381 -3.880884 5.571327 0
M  V30 50 H -1.874027 -0.455249 1.351863 0
M  V30 51 H -4.179150 -0.988391 2.516450 0
M  V30 52 H -5.847828 -2.513429 1.693350 0
M  V30 53 H -2.732999 -4.905385 -0.181768 0
M  V30 54 H -0.678352 -5.011101 -0.465278 0
M  V30 55 H 0.995222 -4.102142 -1.945537 0
M  V30 56 H -0.359488 -2.874327 -1.772179 0
M  V30 57 H 1.244214 -2.673692 -0.906786 0
M  V30 58 H 1.682316 -3.803996 1.129218 0
M  V30 59 H 1.677489 -5.403081 0.187383 0
M  V30 END ATOM
M  V30 BEGIN BOND
M  V30 1 1 1 2
M  V30 2 2 2 3
M  V30 3 1 3 4
M  V30 4 2 4 5
M  V30 5 1 4 6
M  V30 6 1 6 7
M  V30 7 1 7 8
M  V30 8 1 8 9
M  V30 9 1 9 10
M  V30 10 1 10 11
M  V30 11 1 10 12
M  V30 12 1 3 13
M  V30 13 1 13 14
M  V30 14 2 14 15
M  V30 15 1 15 16
M  V30 16 2 16 17
M  V30 17 1 17 18
M  V30 18 1 18 19
M  V30 19 1 19 20
M  V30 20 2 20 21
M  V30 21 1 21 22
M  V30 22 2 22 23
M  V30 23 1 23 24
M  V30 24 1 23 25
M  V30 25 2 25 26
M  V30 26 1 26 27
M  V30 27 1 27 28
M  V30 28 1 28 29
M  V30 29 1 28 30
M  V30 30 1 30 31
M  V30 31 2 18 32
M  V30 32 1 32 2
M  V30 33 1 32 14
M  V30 34 1 26 20
M  V30 35 1 1 33
M  V30 36 1 1 34
M  V30 37 1 1 35
M  V30 38 1 6 36
M  V30 39 1 7 37
M  V30 40 1 7 38
M  V30 41 1 8 39
M  V30 42 1 8 40
M  V30 43 1 9 41
M  V30 44 1 9 42
M  V30 45 1 11 43
M  V30 46 1 11 44
M  V30 47 1 11 45
M  V30 48 1 12 46
M  V30 49 1 12 47
M  V30 50 1 12 48
M  V30 51 1 16 49
M  V30 52 1 19 50
M  V30 53 1 21 51
M  V30 54 1 22 52
M  V30 55 1 25 53
M  V30 56 1 28 54
M  V30 57 1 29 55
M  V30 58 1 29 56
M  V30 59 1 29 57
M  V30 60 1 30 58
M  V30 61 1 30 59
M  V30 END BOND
M  V30 END CTAB
M  END
>  <Dataset>  (454) 
ChEMBL_Kinases

>  <Ligand_Instance>  (454) 
nan

>  <PDB_ID>  (454) 
nan

>  <Standardized_SMILES>  (454) 
Cc1c(C(=O)NCCCN(C)C)sc2ncnc(Nc3ccc(F)cc3OC(C)CF)c12

>  <Name>  (454) 
nan

>  <Pocket>  (454) 
nan

>  <ATP_Site>  (454) 
nan

>  <Peripheral>  (454) 
nan

>  <Num_H_Atoms_ProtBoundConf>  (454) 
nan

>  <Num_Resolved_Atoms>  (454) 
nan

>  <Num_Not_Resolved_Atoms>  (454) 
nan

$$$$
CHEMBL2386743
     RDKit          3D

  0  0  0  0  0  0  0  0  0  0999 V3000
M  V30 BEGIN CTAB
M  V30 COUNTS 45 48 0 0 0
M  V30 BEGIN ATOM
M  V30 1 C 3.935103 -3.422679 4.503246 0
M  V30 2 O 3.811216 -3.986119 3.196262 0
M  V30 3 C 3.455075 -3.269329 2.141203 0
M  V30 4 N 2.948842 -4.458010 2.100388 0
M  V30 5 C 3.089349 -2.482468 1.024170 0
M  V30 6 N 3.411086 -2.556344 -0.091079 0
M  V30 7 C 3.015211 -1.772373 -1.063368 0
M  V30 8 C 3.388452 -1.833663 -2.414166 0
M  V30 9 C 2.854201 -0.910984 -3.243741 0
M  V30 10 C 1.973271 0.102402 -2.931399 0
M  V30 11 N 1.459404 1.015629 -3.768837 0
M  V30 12 C 0.622136 1.941018 -3.308036 0
M  V30 13 N 0.259827 2.000773 -2.005599 0
M  V30 14 C 0.727546 1.122487 -1.093394 0
M  V30 15 N 0.346647 1.192141 0.276397 0
M  V30 16 C -0.919692 0.980543 0.901471 0
M  V30 17 C -1.294256 2.136315 1.591726 0
M  V30 18 C -2.470126 2.263543 2.298994 0
M  V30 19 C -3.328318 1.163029 2.317594 0
M  V30 20 O -4.530540 1.221136 3.010718 0
M  V30 21 C -4.865139 2.419452 3.696165 0
M  V30 22 C -2.965460 0.023880 1.640389 0
M  V30 23 C -1.790580 -0.093804 0.937720 0
M  V30 24 O -1.307361 -1.171777 0.217866 0
M  V30 25 C -1.963971 -2.395768 0.072251 0
M  V30 26 C 1.593328 0.177805 -1.604748 0
M  V30 27 C 2.123121 -0.756773 -0.715623 0
M  V30 28 S 1.904562 -1.000100 1.034661 0
M  V30 29 H 4.293031 -4.184894 5.213817 0
M  V30 30 H 4.691987 -2.617486 4.516251 0
M  V30 31 H 2.915115 -3.064942 4.812922 0
M  V30 32 H 3.146530 -5.140011 2.873542 0
M  V30 33 H 4.074837 -2.567068 -2.840299 0
M  V30 34 H 3.128679 -0.931993 -4.310378 0
M  V30 35 H 0.184137 2.695645 -3.945150 0
M  V30 36 H 1.188428 1.443760 0.847843 0
M  V30 37 H -0.721501 3.076339 1.665150 0
M  V30 38 H -2.805551 3.119301 2.842586 0
M  V30 39 H -4.051395 2.613405 4.444377 0
M  V30 40 H -4.884123 3.286084 2.993352 0
M  V30 41 H -5.813488 2.336155 4.234903 0
M  V30 42 H -3.578298 -0.850018 1.617101 0
M  V30 43 H -1.493516 -3.131162 0.759523 0
M  V30 44 H -1.872495 -2.811787 -0.967302 0
M  V30 45 H -3.056478 -2.294295 0.240678 0
M  V30 END ATOM
M  V30 BEGIN BOND
M  V30 1 1 1 2
M  V30 2 1 2 3
M  V30 3 2 3 4 CFG=2
M  V30 4 1 3 5
M  V30 5 2 5 6
M  V30 6 1 6 7
M  V30 7 2 7 8
M  V30 8 1 8 9
M  V30 9 2 9 10
M  V30 10 1 10 11
M  V30 11 2 11 12
M  V30 12 1 12 13
M  V30 13 2 13 14
M  V30 14 1 14 15
M  V30 15 1 15 16
M  V30 16 2 16 17
M  V30 17 1 17 18
M  V30 18 2 18 19
M  V30 19 1 19 20
M  V30 20 1 20 21
M  V30 21 1 19 22
M  V30 22 2 22 23
M  V30 23 1 23 24
M  V30 24 1 24 25
M  V30 25 1 14 26
M  V30 26 2 26 27
M  V30 27 1 27 28
M  V30 28 1 28 5
M  V30 29 1 27 7
M  V30 30 1 26 10
M  V30 31 1 23 16
M  V30 32 1 1 29
M  V30 33 1 1 30
M  V30 34 1 1 31
M  V30 35 1 4 32
M  V30 36 1 8 33
M  V30 37 1 9 34
M  V30 38 1 12 35
M  V30 39 1 15 36
M  V30 40 1 17 37
M  V30 41 1 18 38
M  V30 42 1 21 39
M  V30 43 1 21 40
M  V30 44 1 21 41
M  V30 45 1 22 42
M  V30 46 1 25 43
M  V30 47 1 25 44
M  V30 48 1 25 45
M  V30 END BOND
M  V30 END CTAB
M  END
>  <Dataset>  (455) 
ChEMBL_Kinases

>  <Ligand_Instance>  (455) 
nan

>  <PDB_ID>  (455) 
nan

>  <Standardized_SMILES>  (455) 
COC(=N)c1nc2ccc3ncnc(Nc4ccc(OC)cc4OC)c3c2s1

>  <Name>  (455) 
nan

>  <Pocket>  (455) 
nan

>  <ATP_Site>  (455) 
nan

>  <Peripheral>  (455) 
nan

>  <Num_H_Atoms_ProtBoundConf>  (455) 
nan

>  <Num_Resolved_Atoms>  (455) 
nan

>  <Num_Not_Resolved_Atoms>  (455) 
nan

$$$$
CHEMBL2204099
     RDKit          3D

  0  0  0  0  0  0  0  0  0  0999 V3000
M  V30 BEGIN CTAB
M  V30 COUNTS 55 58 0 0 0
M  V30 BEGIN ATOM
M  V30 1 C -1.460705 -0.893500 4.188507 0
M  V30 2 O -1.424839 -1.379007 2.850344 0
M  V30 3 C -0.241787 -1.344910 2.166476 0
M  V30 4 O 0.421584 -0.838317 3.103183 0
M  V30 5 C 0.003521 -1.788306 0.805296 0
M  V30 6 C 1.253924 -1.680321 0.279927 0
M  V30 7 C 2.397506 -1.121274 1.048859 0
M  V30 8 N 2.284802 0.317906 1.130917 0
M  V30 9 C 3.367071 0.920236 1.878690 0
M  V30 10 C 3.849340 2.126156 1.146175 0
M  V30 11 C 2.808561 2.369121 0.084133 0 CFG=2
M  V30 12 S 1.556150 3.433964 0.728745 0
M  V30 13 C 0.215084 3.655924 -0.396015 0
M  V30 14 O 2.181468 4.769242 1.012928 0
M  V30 15 O 1.023746 2.884683 2.019095 0
M  V30 16 C 2.287834 0.967394 -0.166625 0
M  V30 17 C 1.365064 -2.139195 -1.032490 0
M  V30 18 O 2.471079 -2.087113 -1.612164 0
M  V30 19 C 0.295685 -2.655963 -1.730142 0
M  V30 20 C 0.481285 -3.090216 -3.026301 0
M  V30 21 C -0.588693 -3.607501 -3.725781 0
M  V30 22 C -1.836976 -3.679254 -3.103281 0
M  V30 23 F -2.865656 -4.190517 -3.814331 0
M  V30 24 C -1.979285 -3.228450 -1.791125 0
M  V30 25 C -0.920353 -2.709960 -1.081435 0
M  V30 26 N -1.089278 -2.277080 0.198748 0
M  V30 27 C -2.373967 -2.366907 0.794676 0
M  V30 28 C -2.949044 -3.395024 1.467739 0
M  V30 29 C -4.234330 -3.257494 1.970409 0
M  V30 30 C -4.935854 -2.085101 1.793492 0
M  V30 31 C -4.372643 -1.027550 1.113377 0
M  V30 32 C -3.076154 -1.170773 0.608239 0
M  V30 33 H -2.485920 -0.956077 4.569842 0
M  V30 34 H -0.799500 -1.480379 4.845984 0
M  V30 35 H -1.146252 0.190419 4.214869 0
M  V30 36 H 3.349932 -1.330018 0.521397 0
M  V30 37 H 2.419047 -1.493918 2.086985 0
M  V30 38 H 3.002765 1.218393 2.884462 0
M  V30 39 H 4.194069 0.171813 2.000946 0
M  V30 40 H 3.837814 3.030826 1.816942 0
M  V30 41 H 4.859248 2.019749 0.699776 0
M  V30 42 H 3.252789 2.753218 -0.852468 0
M  V30 43 H -0.202415 2.685420 -0.740731 0
M  V30 44 H 0.452450 4.285735 -1.261635 0
M  V30 45 H -0.611723 4.156377 0.161110 0
M  V30 46 H 1.342678 0.921262 -0.704049 0
M  V30 47 H 3.061689 0.455567 -0.782379 0
M  V30 48 H 1.462880 -3.031404 -3.511405 0
M  V30 49 H -0.391941 -3.936941 -4.746537 0
M  V30 50 H -2.958606 -3.294506 -1.329157 0
M  V30 51 H -2.321584 -4.270970 1.554341 0
M  V30 52 H -4.648192 -4.102795 2.498328 0
M  V30 53 H -5.950638 -1.973972 2.188635 0
M  V30 54 H -4.956522 -0.125270 0.995916 0
M  V30 55 H -2.731126 -0.264357 0.085811 0
M  V30 END ATOM
M  V30 BEGIN BOND
M  V30 1 1 1 2
M  V30 2 1 2 3
M  V30 3 2 3 4
M  V30 4 1 3 5
M  V30 5 2 5 6
M  V30 6 1 6 7
M  V30 7 1 7 8
M  V30 8 1 8 9
M  V30 9 1 9 10
M  V30 10 1 10 11
M  V30 11 1 11 12
M  V30 12 1 12 13
M  V30 13 2 12 14
M  V30 14 2 12 15
M  V30 15 1 11 16
M  V30 16 1 6 17
M  V30 17 2 17 18
M  V30 18 1 17 19
M  V30 19 2 19 20
M  V30 20 1 20 21
M  V30 21 2 21 22
M  V30 22 1 22 23
M  V30 23 1 22 24
M  V30 24 2 24 25
M  V30 25 1 25 26
M  V30 26 1 26 27
M  V30 27 2 27 28
M  V30 28 1 28 29
M  V30 29 2 29 30
M  V30 30 1 30 31
M  V30 31 2 31 32
M  V30 32 1 26 5
M  V30 33 1 32 27
M  V30 34 1 16 8
M  V30 35 1 25 19
M  V30 36 1 1 33
M  V30 37 1 1 34
M  V30 38 1 1 35
M  V30 39 1 7 36
M  V30 40 1 7 37
M  V30 41 1 9 38
M  V30 42 1 9 39
M  V30 43 1 10 40
M  V30 44 1 10 41
M  V30 45 1 11 42 CFG=3
M  V30 46 1 13 43
M  V30 47 1 13 44
M  V30 48 1 13 45
M  V30 49 1 16 46
M  V30 50 1 16 47
M  V30 51 1 20 48
M  V30 52 1 21 49
M  V30 53 1 24 50
M  V30 54 1 28 51
M  V30 55 1 29 52
M  V30 56 1 30 53
M  V30 57 1 31 54
M  V30 58 1 32 55
M  V30 END BOND
M  V30 END CTAB
M  END
>  <Dataset>  (456) 
ChEMBL_Kinases

>  <Ligand_Instance>  (456) 
nan

>  <PDB_ID>  (456) 
nan

>  <Standardized_SMILES>  (456) 
COC(=O)c1c(CN2CC[C@H](S(C)(=O)=O)C2)c(=O)c2ccc(F)cc2n1-c1ccccc1

>  <Name>  (456) 
nan

>  <Pocket>  (456) 
nan

>  <ATP_Site>  (456) 
nan

>  <Peripheral>  (456) 
nan

>  <Num_H_Atoms_ProtBoundConf>  (456) 
nan

>  <Num_Resolved_Atoms>  (456) 
nan

>  <Num_Not_Resolved_Atoms>  (456) 
nan

$$$$
CHEMBL3698656
     RDKit          3D

  0  0  0  0  0  0  0  0  0  0999 V3000
M  V30 BEGIN CTAB
M  V30 COUNTS 58 63 0 0 0
M  V30 BEGIN ATOM
M  V30 1 C 0.648823 -6.610785 4.202014 0
M  V30 2 C 1.269811 -5.397324 3.989995 0
M  V30 3 C 1.095412 -4.814116 2.750582 0
M  V30 4 C 1.559446 -3.643845 2.219728 0
M  V30 5 C 2.350890 -2.610622 2.679322 0
M  V30 6 N 2.627375 -1.552661 1.859224 0
M  V30 7 C 2.134483 -1.496468 0.587237 0
M  V30 8 N 2.595843 -0.285168 0.011954 0
M  V30 9 C 1.854087 0.946419 -0.135421 0
M  V30 10 C 2.393278 2.116364 -0.665430 0
M  V30 11 C 1.549069 3.221920 -0.760430 0
M  V30 12 C 0.245656 3.098252 -0.331492 0
M  V30 13 N -0.645988 4.204474 -0.401074 0
M  V30 14 C -0.329999 5.630754 -0.557407 0
M  V30 15 C -0.731578 6.388508 0.693367 0
M  V30 16 N -1.585159 5.570377 1.540811 0
M  V30 17 C -2.667805 5.107260 0.685548 0
M  V30 18 C -2.078163 4.188499 -0.351830 0
M  V30 19 C -0.284080 1.941351 0.190948 0
M  V30 20 N 0.572375 0.873560 0.271624 0
M  V30 21 N 1.367047 -2.518839 0.172000 0
M  V30 22 C 1.076029 -3.571015 0.950347 0
M  V30 23 N 0.322322 -4.636136 0.639194 0
M  V30 24 C -0.414227 -5.038817 -0.535801 0
M  V30 25 C -1.845375 -4.669180 -0.527862 0
M  V30 26 C -1.967471 -3.192897 -0.392192 0
M  V30 27 O -1.349855 -2.585648 -1.448272 0
M  V30 28 C -0.716088 -3.430402 -2.346057 0
M  V30 29 C 0.189761 -4.453698 -1.774601 0
M  V30 30 C 0.341053 -5.401095 1.761784 0
M  V30 31 C -0.232056 -6.611689 2.085627 0
M  V30 32 N -0.106911 -7.244429 3.275366 0
M  V30 33 H 0.797695 -7.058691 5.187633 0
M  V30 34 H 1.872690 -4.868912 4.698919 0
M  V30 35 H 2.705051 -2.721178 3.689196 0
M  V30 36 H 3.572847 -0.267793 -0.343707 0
M  V30 37 H 3.421085 2.060039 -0.954488 0
M  V30 38 H 1.959630 4.114971 -1.164912 0
M  V30 39 H 0.773179 5.689129 -0.634401 0
M  V30 40 H -0.752496 6.044467 -1.481321 0
M  V30 41 H 0.152845 6.659603 1.308397 0
M  V30 42 H -1.312358 7.276803 0.396473 0
M  V30 43 H -1.047815 4.708974 1.839006 0
M  V30 44 H -3.184134 5.998767 0.263276 0
M  V30 45 H -3.376868 4.562473 1.360365 0
M  V30 46 H -2.485687 4.557368 -1.339860 0
M  V30 47 H -2.513075 3.164143 -0.156158 0
M  V30 48 H -1.271888 1.746019 0.550291 0
M  V30 49 H -0.384746 -6.167706 -0.653441 0
M  V30 50 H -2.327958 -4.956908 -1.481703 0
M  V30 51 H -2.464849 -5.240527 0.204070 0
M  V30 52 H -3.033694 -2.843820 -0.380986 0
M  V30 53 H -1.530860 -2.794264 0.548365 0
M  V30 54 H -1.543251 -3.897635 -2.956129 0
M  V30 55 H -0.200101 -2.784706 -3.116850 0
M  V30 56 H 0.271703 -5.291046 -2.539557 0
M  V30 57 H 1.239761 -4.134925 -1.648740 0
M  V30 58 H -0.830105 -7.115400 1.354727 0
M  V30 END ATOM
M  V30 BEGIN BOND
M  V30 1 2 1 2
M  V30 2 1 2 3
M  V30 3 1 3 4
M  V30 4 2 4 5
M  V30 5 1 5 6
M  V30 6 2 6 7
M  V30 7 1 7 8
M  V30 8 1 8 9
M  V30 9 2 9 10
M  V30 10 1 10 11
M  V30 11 2 11 12
M  V30 12 1 12 13
M  V30 13 1 13 14
M  V30 14 1 14 15
M  V30 15 1 15 16
M  V30 16 1 16 17
M  V30 17 1 17 18
M  V30 18 1 12 19
M  V30 19 2 19 20
M  V30 20 1 7 21
M  V30 21 2 21 22
M  V30 22 1 22 23
M  V30 23 1 23 24
M  V30 24 1 24 25
M  V30 25 1 25 26
M  V30 26 1 26 27
M  V30 27 1 27 28
M  V30 28 1 28 29
M  V30 29 1 23 30
M  V30 30 1 30 31
M  V30 31 2 31 32
M  V30 32 1 32 1
M  V30 33 2 30 3
M  V30 34 1 22 4
M  V30 35 1 29 24
M  V30 36 1 20 9
M  V30 37 1 18 13
M  V30 38 1 1 33
M  V30 39 1 2 34
M  V30 40 1 5 35
M  V30 41 1 8 36
M  V30 42 1 10 37
M  V30 43 1 11 38
M  V30 44 1 14 39
M  V30 45 1 14 40
M  V30 46 1 15 41
M  V30 47 1 15 42
M  V30 48 1 16 43
M  V30 49 1 17 44
M  V30 50 1 17 45
M  V30 51 1 18 46
M  V30 52 1 18 47
M  V30 53 1 19 48
M  V30 54 1 24 49
M  V30 55 1 25 50
M  V30 56 1 25 51
M  V30 57 1 26 52
M  V30 58 1 26 53
M  V30 59 1 28 54
M  V30 60 1 28 55
M  V30 61 1 29 56
M  V30 62 1 29 57
M  V30 63 1 31 58
M  V30 END BOND
M  V30 END CTAB
M  END
>  <Dataset>  (457) 
ChEMBL_Kinases

>  <Ligand_Instance>  (457) 
nan

>  <PDB_ID>  (457) 
nan

>  <Standardized_SMILES>  (457) 
c1cc2c3cnc(Nc4ccc(N5CCNCC5)cn4)nc3n(C3CCOCC3)c2cn1

>  <Name>  (457) 
nan

>  <Pocket>  (457) 
nan

>  <ATP_Site>  (457) 
nan

>  <Peripheral>  (457) 
nan

>  <Num_H_Atoms_ProtBoundConf>  (457) 
nan

>  <Num_Resolved_Atoms>  (457) 
nan

>  <Num_Not_Resolved_Atoms>  (457) 
nan

$$$$
CHEMBL2386744
     RDKit          3D

  0  0  0  0  0  0  0  0  0  0999 V3000
M  V30 BEGIN CTAB
M  V30 COUNTS 37 40 0 0 0
M  V30 BEGIN ATOM
M  V30 1 C 3.808364 -3.640011 4.091113 0
M  V30 2 O 4.027243 -3.507882 2.699005 0
M  V30 3 C 3.032145 -3.166232 1.806947 0
M  V30 4 N 2.085695 -4.073429 1.889222 0
M  V30 5 C 2.911433 -2.000560 0.849820 0
M  V30 6 N 3.352251 -1.370378 0.013507 0
M  V30 7 C 2.831176 -0.324524 -0.584963 0
M  V30 8 C 3.389158 0.433509 -1.599401 0
M  V30 9 C 2.706707 1.511883 -2.115813 0
M  V30 10 C 1.455896 1.937340 -1.703888 0
M  V30 11 N 0.737363 2.958012 -2.133387 0
M  V30 12 C -0.473291 3.223665 -1.593717 0
M  V30 13 N -0.974370 2.452599 -0.605841 0
M  V30 14 C -0.288230 1.378056 -0.109217 0
M  V30 15 N -1.012826 0.728092 0.922509 0
M  V30 16 C -2.107733 -0.174207 0.988682 0
M  V30 17 C -2.283741 -1.430524 1.501998 0
M  V30 18 C -3.470461 -2.114666 1.435064 0
M  V30 19 C -4.567459 -1.546318 0.829262 0
M  V30 20 Br -6.142712 -2.594959 0.806047 0
M  V30 21 C -4.433772 -0.266721 0.291754 0
M  V30 22 C -3.220968 0.413612 0.368841 0
M  V30 23 F -3.410784 1.628336 -0.239352 0
M  V30 24 C 0.931804 1.161566 -0.696324 0
M  V30 25 C 1.599843 0.087508 -0.173471 0
M  V30 26 S 1.242483 -1.079044 1.085503 0
M  V30 27 H 4.719548 -4.084423 4.557867 0
M  V30 28 H 3.607271 -2.636199 4.569298 0
M  V30 29 H 2.914274 -4.255683 4.316187 0
M  V30 30 H 1.236110 -4.035371 1.318143 0
M  V30 31 H 4.370404 0.271714 -2.072801 0
M  V30 32 H 3.141063 2.125195 -2.925168 0
M  V30 33 H -1.041948 4.082236 -1.977244 0
M  V30 34 H -0.815176 0.835486 1.930694 0
M  V30 35 H -1.419118 -1.830189 1.967341 0
M  V30 36 H -3.466827 -3.096037 1.880188 0
M  V30 37 H -5.373164 0.042122 -0.145435 0
M  V30 END ATOM
M  V30 BEGIN BOND
M  V30 1 1 1 2
M  V30 2 1 2 3
M  V30 3 2 3 4 CFG=2
M  V30 4 1 3 5
M  V30 5 2 5 6
M  V30 6 1 6 7
M  V30 7 2 7 8
M  V30 8 1 8 9
M  V30 9 2 9 10
M  V30 10 1 10 11
M  V30 11 2 11 12
M  V30 12 1 12 13
M  V30 13 2 13 14
M  V30 14 1 14 15
M  V30 15 1 15 16
M  V30 16 2 16 17
M  V30 17 1 17 18
M  V30 18 2 18 19
M  V30 19 1 19 20
M  V30 20 1 19 21
M  V30 21 2 21 22
M  V30 22 1 22 23
M  V30 23 1 14 24
M  V30 24 2 24 25
M  V30 25 1 25 26
M  V30 26 1 26 5
M  V30 27 1 25 7
M  V30 28 1 24 10
M  V30 29 1 22 16
M  V30 30 1 1 27
M  V30 31 1 1 28
M  V30 32 1 1 29
M  V30 33 1 4 30
M  V30 34 1 8 31
M  V30 35 1 9 32
M  V30 36 1 12 33
M  V30 37 1 15 34
M  V30 38 1 17 35
M  V30 39 1 18 36
M  V30 40 1 21 37
M  V30 END BOND
M  V30 END CTAB
M  END
>  <Dataset>  (458) 
ChEMBL_Kinases

>  <Ligand_Instance>  (458) 
nan

>  <PDB_ID>  (458) 
nan

>  <Standardized_SMILES>  (458) 
COC(=N)c1nc2ccc3ncnc(Nc4ccc(Br)cc4F)c3c2s1

>  <Name>  (458) 
nan

>  <Pocket>  (458) 
nan

>  <ATP_Site>  (458) 
nan

>  <Peripheral>  (458) 
nan

>  <Num_H_Atoms_ProtBoundConf>  (458) 
nan

>  <Num_Resolved_Atoms>  (458) 
nan

>  <Num_Not_Resolved_Atoms>  (458) 
nan

$$$$
CHEMBL2204098
     RDKit          3D

  0  0  0  0  0  0  0  0  0  0999 V3000
M  V30 BEGIN CTAB
M  V30 COUNTS 55 58 0 0 0
M  V30 BEGIN ATOM
M  V30 1 C -0.805242 -1.246549 4.002235 0
M  V30 2 O -0.891506 -1.607238 2.646423 0
M  V30 3 C 0.230141 -1.455988 1.845947 0
M  V30 4 O 1.006459 -1.004656 2.707319 0
M  V30 5 C 0.276811 -1.791478 0.419561 0
M  V30 6 C 1.438969 -1.608094 -0.301053 0
M  V30 7 C 2.671027 -1.022376 0.339753 0
M  V30 8 N 2.701546 0.339629 0.484758 0
M  V30 9 C 3.717088 0.994617 1.198411 0
M  V30 10 C 3.088009 2.122810 2.004123 0
M  V30 11 C 1.671435 2.155898 1.536433 0 CFG=1
M  V30 12 S 1.210096 3.784821 0.999658 0
M  V30 13 C -0.407838 3.741538 0.261014 0
M  V30 14 O 2.266271 4.261489 0.042327 0
M  V30 15 O 1.192349 4.730954 2.169298 0
M  V30 16 C 1.637199 1.221037 0.316062 0
M  V30 17 C 1.415538 -1.971867 -1.645021 0
M  V30 18 O 2.455718 -1.823693 -2.349332 0
M  V30 19 C 0.246098 -2.486745 -2.170107 0
M  V30 20 C 0.224253 -2.851158 -3.522802 0
M  V30 21 C -0.935694 -3.371045 -4.079848 0
M  V30 22 C -2.043483 -3.507843 -3.250077 0
M  V30 23 F -3.150985 -4.018787 -3.844248 0
M  V30 24 C -2.038620 -3.153758 -1.917297 0
M  V30 25 C -0.865266 -2.632863 -1.373158 0
M  V30 26 N -0.854479 -2.285331 -0.072664 0
M  V30 27 C -2.038837 -2.454611 0.719263 0
M  V30 28 C -2.380847 -3.572424 1.408368 0
M  V30 29 C -3.567551 -3.601953 2.143077 0
M  V30 30 C -4.332004 -2.454924 2.114064 0
M  V30 31 C -4.029007 -1.295504 1.430393 0
M  V30 32 C -2.832135 -1.304351 0.706347 0
M  V30 33 H -1.719824 -1.556130 4.568905 0
M  V30 34 H 0.073136 -1.663581 4.529350 0
M  V30 35 H -0.701285 -0.127346 4.011294 0
M  V30 36 H 3.506635 -1.374675 -0.322361 0
M  V30 37 H 2.790044 -1.578850 1.306890 0
M  V30 38 H 4.459543 1.428560 0.471343 0
M  V30 39 H 4.214327 0.266012 1.871729 0
M  V30 40 H 3.618626 3.060536 1.752361 0
M  V30 41 H 3.187500 1.862874 3.080106 0
M  V30 42 H 0.918641 1.824319 2.278002 0
M  V30 43 H -0.646112 2.693681 0.035971 0
M  V30 44 H -1.169462 4.263577 0.877963 0
M  V30 45 H -0.345449 4.308105 -0.693608 0
M  V30 46 H 0.624640 0.800585 0.197204 0
M  V30 47 H 1.778630 1.852065 -0.618659 0
M  V30 48 H 1.130692 -2.714039 -4.105941 0
M  V30 49 H -0.967741 -3.658730 -5.134634 0
M  V30 50 H -2.947116 -3.290760 -1.340852 0
M  V30 51 H -1.715908 -4.421257 1.366481 0
M  V30 52 H -3.858712 -4.480776 2.697584 0
M  V30 53 H -5.272972 -2.444439 2.681781 0
M  V30 54 H -4.670114 -0.436938 1.447554 0
M  V30 55 H -2.618151 -0.383284 0.179558 0
M  V30 END ATOM
M  V30 BEGIN BOND
M  V30 1 1 1 2
M  V30 2 1 2 3
M  V30 3 2 3 4
M  V30 4 1 3 5
M  V30 5 2 5 6
M  V30 6 1 6 7
M  V30 7 1 7 8
M  V30 8 1 8 9
M  V30 9 1 9 10
M  V30 10 1 10 11
M  V30 11 1 11 12
M  V30 12 1 12 13
M  V30 13 2 12 14
M  V30 14 2 12 15
M  V30 15 1 11 16
M  V30 16 1 6 17
M  V30 17 2 17 18
M  V30 18 1 17 19
M  V30 19 2 19 20
M  V30 20 1 20 21
M  V30 21 2 21 22
M  V30 22 1 22 23
M  V30 23 1 22 24
M  V30 24 2 24 25
M  V30 25 1 25 26
M  V30 26 1 26 27
M  V30 27 2 27 28
M  V30 28 1 28 29
M  V30 29 2 29 30
M  V30 30 1 30 31
M  V30 31 2 31 32
M  V30 32 1 26 5
M  V30 33 1 32 27
M  V30 34 1 16 8
M  V30 35 1 25 19
M  V30 36 1 1 33
M  V30 37 1 1 34
M  V30 38 1 1 35
M  V30 39 1 7 36
M  V30 40 1 7 37
M  V30 41 1 9 38
M  V30 42 1 9 39
M  V30 43 1 10 40
M  V30 44 1 10 41
M  V30 45 1 11 42 CFG=1
M  V30 46 1 13 43
M  V30 47 1 13 44
M  V30 48 1 13 45
M  V30 49 1 16 46
M  V30 50 1 16 47
M  V30 51 1 20 48
M  V30 52 1 21 49
M  V30 53 1 24 50
M  V30 54 1 28 51
M  V30 55 1 29 52
M  V30 56 1 30 53
M  V30 57 1 31 54
M  V30 58 1 32 55
M  V30 END BOND
M  V30 END CTAB
M  END
>  <Dataset>  (459) 
ChEMBL_Kinases

>  <Ligand_Instance>  (459) 
nan

>  <PDB_ID>  (459) 
nan

>  <Standardized_SMILES>  (459) 
COC(=O)c1c(CN2CC[C@@H](S(C)(=O)=O)C2)c(=O)c2ccc(F)cc2n1-c1ccccc1

>  <Name>  (459) 
nan

>  <Pocket>  (459) 
nan

>  <ATP_Site>  (459) 
nan

>  <Peripheral>  (459) 
nan

>  <Num_H_Atoms_ProtBoundConf>  (459) 
nan

>  <Num_Resolved_Atoms>  (459) 
nan

>  <Num_Not_Resolved_Atoms>  (459) 
nan

$$$$
CHEMBL3703102
     RDKit          3D

  0  0  0  0  0  0  0  0  0  0999 V3000
M  V30 BEGIN CTAB
M  V30 COUNTS 54 58 0 0 0
M  V30 BEGIN ATOM
M  V30 1 C 2.608394 -7.952615 2.251253 0
M  V30 2 C 2.258992 -6.535802 1.853886 0
M  V30 3 O 3.416619 -5.740059 1.679776 0
M  V30 4 C 3.301152 -4.389255 1.308581 0
M  V30 5 C 4.486582 -3.680261 1.158913 0
M  V30 6 C 4.359613 -2.341662 0.790539 0
M  V30 7 C 3.102099 -1.776664 0.591366 0
M  V30 8 N 2.736025 -0.516310 0.235432 0
M  V30 9 C 1.373173 -0.461222 0.171012 0
M  V30 10 C 0.491400 0.651395 -0.162435 0
M  V30 11 C 0.610103 1.726625 0.697808 0
M  V30 12 C -0.142046 2.873135 0.545929 0
M  V30 13 C -1.051285 2.986172 -0.485068 0
M  V30 14 C -1.965169 4.067445 -0.878417 0
M  V30 15 N -1.862037 4.418668 -2.298953 0
M  V30 16 C -1.942508 5.326094 -0.044848 0
M  V30 17 C -3.159765 4.862359 0.725912 0
M  V30 18 C -3.402595 3.881651 -0.427387 0
M  V30 19 C -1.170091 1.894839 -1.356107 0
M  V30 20 C -0.414719 0.748025 -1.200563 0
M  V30 21 C 0.904875 -1.722341 0.496832 0
M  V30 22 C -0.470720 -2.182705 0.571437 0
M  V30 23 C -1.114431 -3.178913 -0.139373 0
M  V30 24 C -2.443387 -3.437795 0.109139 0
M  V30 25 C -3.171873 -2.750871 1.036523 0
M  V30 26 C -2.541522 -1.762230 1.745046 0
M  V30 27 C -1.203793 -1.475248 1.520099 0
M  V30 28 N 1.982851 -2.507667 0.749453 0
M  V30 29 C 2.059335 -3.818043 1.108344 0
M  V30 30 H 3.011073 -7.980003 3.303188 0
M  V30 31 H 1.676583 -8.551818 2.268204 0
M  V30 32 H 3.273037 -8.423711 1.521277 0
M  V30 33 H 1.544195 -6.131132 2.577527 0
M  V30 34 H 1.733351 -6.611179 0.863100 0
M  V30 35 H 5.466866 -4.116872 1.313206 0
M  V30 36 H 5.253699 -1.745961 0.661113 0
M  V30 37 H 1.291053 1.769355 1.554848 0
M  V30 38 H -0.120782 3.756339 1.161404 0
M  V30 39 H -1.494918 5.390408 -2.439697 0
M  V30 40 H -2.839818 4.457019 -2.690186 0
M  V30 41 H -1.012923 5.454549 0.527732 0
M  V30 42 H -2.178246 6.256086 -0.612369 0
M  V30 43 H -2.955407 4.384647 1.697394 0
M  V30 44 H -3.963408 5.623388 0.810070 0
M  V30 45 H -3.662974 2.905064 -0.018564 0
M  V30 46 H -4.127902 4.326068 -1.147053 0
M  V30 47 H -1.827367 1.812949 -2.210155 0
M  V30 48 H -0.456233 -0.118394 -1.827905 0
M  V30 49 H -0.459300 -3.664127 -0.846848 0
M  V30 50 H -2.861195 -4.230295 -0.491414 0
M  V30 51 H -4.217350 -2.974720 1.212772 0
M  V30 52 H -3.145072 -1.223269 2.484366 0
M  V30 53 H -0.832952 -0.676805 2.143791 0
M  V30 54 H 1.161680 -4.417787 1.238773 0
M  V30 END ATOM
M  V30 BEGIN BOND
M  V30 1 1 1 2
M  V30 2 1 2 3
M  V30 3 1 3 4
M  V30 4 1 4 5
M  V30 5 2 5 6
M  V30 6 1 6 7
M  V30 7 2 7 8
M  V30 8 1 8 9
M  V30 9 1 9 10
M  V30 10 2 10 11
M  V30 11 1 11 12
M  V30 12 2 12 13
M  V30 13 1 13 14
M  V30 14 1 14 15
M  V30 15 1 14 16
M  V30 16 1 16 17
M  V30 17 1 17 18
M  V30 18 1 13 19
M  V30 19 2 19 20
M  V30 20 2 9 21
M  V30 21 1 21 22
M  V30 22 2 22 23
M  V30 23 1 23 24
M  V30 24 2 24 25
M  V30 25 1 25 26
M  V30 26 2 26 27
M  V30 27 1 21 28
M  V30 28 1 28 29
M  V30 29 2 29 4
M  V30 30 1 28 7
M  V30 31 1 20 10
M  V30 32 1 27 22
M  V30 33 1 18 14
M  V30 34 1 1 30
M  V30 35 1 1 31
M  V30 36 1 1 32
M  V30 37 1 2 33
M  V30 38 1 2 34
M  V30 39 1 5 35
M  V30 40 1 6 36
M  V30 41 1 11 37
M  V30 42 1 12 38
M  V30 43 1 15 39
M  V30 44 1 15 40
M  V30 45 1 16 41
M  V30 46 1 16 42
M  V30 47 1 17 43
M  V30 48 1 17 44
M  V30 49 1 18 45
M  V30 50 1 18 46
M  V30 51 1 19 47
M  V30 52 1 20 48
M  V30 53 1 23 49
M  V30 54 1 24 50
M  V30 55 1 25 51
M  V30 56 1 26 52
M  V30 57 1 27 53
M  V30 58 1 29 54
M  V30 END BOND
M  V30 END CTAB
M  END
>  <Dataset>  (460) 
ChEMBL_Kinases

>  <Ligand_Instance>  (460) 
nan

>  <PDB_ID>  (460) 
nan

>  <Standardized_SMILES>  (460) 
CCOc1ccc2nc(-c3ccc(C4(N)CCC4)cc3)c(-c3ccccc3)n2c1

>  <Name>  (460) 
nan

>  <Pocket>  (460) 
nan

>  <ATP_Site>  (460) 
nan

>  <Peripheral>  (460) 
nan

>  <Num_H_Atoms_ProtBoundConf>  (460) 
nan

>  <Num_Resolved_Atoms>  (460) 
nan

>  <Num_Not_Resolved_Atoms>  (460) 
nan

$$$$
CHEMBL2386745
     RDKit          3D

  0  0  0  0  0  0  0  0  0  0999 V3000
M  V30 BEGIN CTAB
M  V30 COUNTS 41 44 0 0 0
M  V30 BEGIN ATOM
M  V30 1 C 1.047780 -5.509163 2.077612 0
M  V30 2 O 1.416016 -4.796952 0.913255 0
M  V30 3 C 0.577689 -4.245433 -0.005691 0
M  V30 4 N -0.314299 -5.076012 -0.357330 0
M  V30 5 C 0.584302 -2.899262 -0.595854 0
M  V30 6 N 0.533756 -2.525009 -1.721800 0
M  V30 7 C 0.550547 -1.275444 -2.138590 0
M  V30 8 C 0.494962 -0.814951 -3.438000 0
M  V30 9 C 0.524313 0.521131 -3.704019 0
M  V30 10 C 0.608735 1.510433 -2.749174 0
M  V30 11 N 0.646783 2.841172 -2.912381 0
M  V30 12 C 0.734515 3.692908 -1.870322 0
M  V30 13 N 0.786608 3.210128 -0.613747 0
M  V30 14 C 0.754852 1.885050 -0.342440 0
M  V30 15 N 0.816521 1.406010 0.990078 0
M  V30 16 C -0.172071 1.171752 1.982516 0
M  V30 17 C -1.498282 1.430313 1.713898 0
M  V30 18 C -2.357137 1.162048 2.764621 0
M  V30 19 C -1.952991 0.673998 3.996281 0
M  V30 20 F -2.914809 0.460086 4.930246 0
M  V30 21 C -0.617263 0.445575 4.176293 0
M  V30 22 C 0.308095 0.686729 3.178871 0
M  V30 23 O 1.651423 0.434813 3.421431 0
M  V30 24 C 2.150546 -0.057336 4.630007 0
M  V30 25 C 0.664989 1.074251 -1.451432 0
M  V30 26 C 0.635923 -0.306300 -1.151777 0
M  V30 27 S 0.686135 -1.281603 0.317863 0
M  V30 28 H 1.932961 -5.910742 2.616311 0
M  V30 29 H 0.479435 -4.788093 2.736712 0
M  V30 30 H 0.311981 -6.290256 1.808122 0
M  V30 31 H -0.462777 -6.037817 -0.051891 0
M  V30 32 H 0.426038 -1.450703 -4.311991 0
M  V30 33 H 0.481124 0.905811 -4.737012 0
M  V30 34 H 0.759392 4.760629 -2.109301 0
M  V30 35 H 1.822258 1.253256 1.085905 0
M  V30 36 H -1.851350 1.810815 0.765925 0
M  V30 37 H -3.423059 1.354420 2.593101 0
M  V30 38 H -0.285422 0.057320 5.151917 0
M  V30 39 H 1.560564 -0.861733 5.094639 0
M  V30 40 H 2.263866 0.724698 5.421484 0
M  V30 41 H 3.190183 -0.442589 4.450745 0
M  V30 END ATOM
M  V30 BEGIN BOND
M  V30 1 1 1 2
M  V30 2 1 2 3
M  V30 3 2 3 4 CFG=2
M  V30 4 1 3 5
M  V30 5 2 5 6
M  V30 6 1 6 7
M  V30 7 2 7 8
M  V30 8 1 8 9
M  V30 9 2 9 10
M  V30 10 1 10 11
M  V30 11 2 11 12
M  V30 12 1 12 13
M  V30 13 2 13 14
M  V30 14 1 14 15
M  V30 15 1 15 16
M  V30 16 2 16 17
M  V30 17 1 17 18
M  V30 18 2 18 19
M  V30 19 1 19 20
M  V30 20 1 19 21
M  V30 21 2 21 22
M  V30 22 1 22 23
M  V30 23 1 23 24
M  V30 24 1 14 25
M  V30 25 2 25 26
M  V30 26 1 26 27
M  V30 27 1 27 5
M  V30 28 1 26 7
M  V30 29 1 25 10
M  V30 30 1 22 16
M  V30 31 1 1 28
M  V30 32 1 1 29
M  V30 33 1 1 30
M  V30 34 1 4 31
M  V30 35 1 8 32
M  V30 36 1 9 33
M  V30 37 1 12 34
M  V30 38 1 15 35
M  V30 39 1 17 36
M  V30 40 1 18 37
M  V30 41 1 21 38
M  V30 42 1 24 39
M  V30 43 1 24 40
M  V30 44 1 24 41
M  V30 END BOND
M  V30 END CTAB
M  END
>  <Dataset>  (461) 
ChEMBL_Kinases

>  <Ligand_Instance>  (461) 
nan

>  <PDB_ID>  (461) 
nan

>  <Standardized_SMILES>  (461) 
COC(=N)c1nc2ccc3ncnc(Nc4ccc(F)cc4OC)c3c2s1

>  <Name>  (461) 
nan

>  <Pocket>  (461) 
nan

>  <ATP_Site>  (461) 
nan

>  <Peripheral>  (461) 
nan

>  <Num_H_Atoms_ProtBoundConf>  (461) 
nan

>  <Num_Resolved_Atoms>  (461) 
nan

>  <Num_Not_Resolved_Atoms>  (461) 
nan

$$$$
CHEMBL2386746
     RDKit          3D

  0  0  0  0  0  0  0  0  0  0999 V3000
M  V30 BEGIN CTAB
M  V30 COUNTS 37 40 0 0 0
M  V30 BEGIN ATOM
M  V30 1 C 3.205044 -3.658469 4.033343 0
M  V30 2 O 3.698540 -3.448677 2.747216 0
M  V30 3 C 3.020195 -3.222395 1.595809 0
M  V30 4 N 2.553998 -4.403087 1.392471 0
M  V30 5 C 2.773930 -2.064512 0.703404 0
M  V30 6 N 3.213995 -1.489066 -0.180580 0
M  V30 7 C 2.733237 -0.429332 -0.788096 0
M  V30 8 C 3.281682 0.274602 -1.860873 0
M  V30 9 C 2.635064 1.379953 -2.364082 0
M  V30 10 C 1.432019 1.886981 -1.885234 0
M  V30 11 N 0.755342 2.942960 -2.304282 0
M  V30 12 C -0.414471 3.279829 -1.682719 0
M  V30 13 N -0.882655 2.556235 -0.658706 0
M  V30 14 C -0.253342 1.464443 -0.170358 0
M  V30 15 N -0.971799 0.894798 0.907660 0
M  V30 16 C -2.065347 0.024044 1.100285 0
M  V30 17 C -2.181351 -1.169586 1.761415 0
M  V30 18 C -3.309431 -1.929117 1.859836 0
M  V30 19 C -4.472713 -1.504207 1.257783 0
M  V30 20 F -5.558814 -2.303085 1.388304 0
M  V30 21 C -4.423023 -0.292202 0.567345 0
M  V30 22 C -3.260510 0.437669 0.495870 0
M  V30 23 Cl -3.583926 1.899682 -0.441610 0
M  V30 24 C 0.913798 1.175889 -0.831651 0
M  V30 25 C 1.551029 0.078148 -0.327050 0
M  V30 26 S 1.201524 -1.041716 0.993209 0
M  V30 27 H 4.071950 -4.022027 4.650631 0
M  V30 28 H 2.926373 -2.674352 4.497940 0
M  V30 29 H 2.358135 -4.355914 4.118550 0
M  V30 30 H 2.720436 -5.209561 2.003948 0
M  V30 31 H 4.211927 0.031453 -2.371364 0
M  V30 32 H 3.053574 1.949471 -3.213565 0
M  V30 33 H -0.891651 4.157147 -2.098676 0
M  V30 34 H -0.455758 1.312171 1.724639 0
M  V30 35 H -1.307463 -1.533771 2.259393 0
M  V30 36 H -3.275209 -2.870415 2.416442 0
M  V30 37 H -5.406678 -0.080408 0.146320 0
M  V30 END ATOM
M  V30 BEGIN BOND
M  V30 1 1 1 2
M  V30 2 1 2 3
M  V30 3 2 3 4 CFG=2
M  V30 4 1 3 5
M  V30 5 2 5 6
M  V30 6 1 6 7
M  V30 7 2 7 8
M  V30 8 1 8 9
M  V30 9 2 9 10
M  V30 10 1 10 11
M  V30 11 2 11 12
M  V30 12 1 12 13
M  V30 13 2 13 14
M  V30 14 1 14 15
M  V30 15 1 15 16
M  V30 16 2 16 17
M  V30 17 1 17 18
M  V30 18 2 18 19
M  V30 19 1 19 20
M  V30 20 1 19 21
M  V30 21 2 21 22
M  V30 22 1 22 23
M  V30 23 1 14 24
M  V30 24 2 24 25
M  V30 25 1 25 26
M  V30 26 1 26 5
M  V30 27 1 25 7
M  V30 28 1 24 10
M  V30 29 1 22 16
M  V30 30 1 1 27
M  V30 31 1 1 28
M  V30 32 1 1 29
M  V30 33 1 4 30
M  V30 34 1 8 31
M  V30 35 1 9 32
M  V30 36 1 12 33
M  V30 37 1 15 34
M  V30 38 1 17 35
M  V30 39 1 18 36
M  V30 40 1 21 37
M  V30 END BOND
M  V30 END CTAB
M  END
>  <Dataset>  (462) 
ChEMBL_Kinases

>  <Ligand_Instance>  (462) 
nan

>  <PDB_ID>  (462) 
nan

>  <Standardized_SMILES>  (462) 
COC(=N)c1nc2ccc3ncnc(Nc4ccc(F)cc4Cl)c3c2s1

>  <Name>  (462) 
nan

>  <Pocket>  (462) 
nan

>  <ATP_Site>  (462) 
nan

>  <Peripheral>  (462) 
nan

>  <Num_H_Atoms_ProtBoundConf>  (462) 
nan

>  <Num_Resolved_Atoms>  (462) 
nan

>  <Num_Not_Resolved_Atoms>  (462) 
nan

$$$$
CHEMBL3703103
     RDKit          3D

  0  0  0  0  0  0  0  0  0  0999 V3000
M  V30 BEGIN CTAB
M  V30 COUNTS 51 55 0 0 0
M  V30 BEGIN ATOM
M  V30 1 C 2.003889 -1.207520 8.325658 0
M  V30 2 C 1.409778 -1.779691 7.294073 0
M  V30 3 C 1.330277 -1.203824 5.956597 0
M  V30 4 C 1.890776 0.021882 5.666904 0
M  V30 5 C 1.827722 0.592772 4.390566 0
M  V30 6 N 1.186252 -0.110029 3.429670 0
M  V30 7 C 0.946054 0.135881 2.129173 0
M  V30 8 C 1.313399 1.270085 1.333643 0
M  V30 9 C 2.129588 1.276990 0.220886 0
M  V30 10 C 2.433985 2.418840 -0.490109 0
M  V30 11 C 1.894546 3.626777 -0.069252 0
M  V30 12 C 1.069239 3.637926 1.051543 0
M  V30 13 C 0.772378 2.476280 1.757094 0
M  V30 14 C 0.230775 -0.927870 1.574448 0
M  V30 15 C -0.287712 -1.198872 0.239509 0
M  V30 16 C 0.154262 -2.325137 -0.450474 0
M  V30 17 C -0.259610 -2.689615 -1.718753 0
M  V30 18 C -1.180865 -1.864912 -2.335464 0
M  V30 19 C -1.646625 -2.205557 -3.668599 0
M  V30 20 N -0.572591 -2.856669 -4.430595 0
M  V30 21 C -2.895368 -3.092430 -3.604196 0
M  V30 22 C -3.744653 -1.923277 -4.073466 0
M  V30 23 C -2.427786 -1.240863 -4.453517 0
M  V30 24 C -1.650352 -0.736373 -1.694201 0
M  V30 25 C -1.217164 -0.393191 -0.417953 0
M  V30 26 N 0.051244 -1.821578 2.592752 0
M  V30 27 C 0.639401 -1.305489 3.711106 0
M  V30 28 C 0.683113 -1.896279 4.956001 0
M  V30 29 H 2.048792 -1.659167 9.313232 0
M  V30 30 H 2.496192 -0.245334 8.281881 0
M  V30 31 H 0.953409 -2.755764 7.480035 0
M  V30 32 H 2.407793 0.600191 6.419927 0
M  V30 33 H 2.258611 1.552213 4.136874 0
M  V30 34 H 2.529160 0.310921 -0.072545 0
M  V30 35 H 3.074123 2.382712 -1.352495 0
M  V30 36 H 2.090382 4.573553 -0.582956 0
M  V30 37 H 0.627138 4.579745 1.408738 0
M  V30 38 H 0.113812 2.569739 2.629059 0
M  V30 39 H 0.886087 -2.999748 0.013074 0
M  V30 40 H 0.118272 -3.570791 -2.198102 0
M  V30 41 H 0.315356 -2.374313 -4.125290 0
M  V30 42 H -0.556116 -3.886138 -4.266037 0
M  V30 43 H -2.887365 -3.977624 -4.237863 0
M  V30 44 H -3.214993 -3.348825 -2.562116 0
M  V30 45 H -4.322060 -1.404847 -3.294243 0
M  V30 46 H -4.384549 -2.161799 -4.945846 0
M  V30 47 H -2.460380 -0.190239 -4.171094 0
M  V30 48 H -2.253214 -1.361367 -5.558906 0
M  V30 49 H -2.367880 -0.068020 -2.139627 0
M  V30 50 H -1.556806 0.486260 0.130317 0
M  V30 51 H 0.247988 -2.856321 5.195596 0
M  V30 END ATOM
M  V30 BEGIN BOND
M  V30 1 2 1 2
M  V30 2 1 2 3
M  V30 3 1 3 4
M  V30 4 2 4 5
M  V30 5 1 5 6
M  V30 6 1 6 7
M  V30 7 1 7 8
M  V30 8 2 8 9
M  V30 9 1 9 10
M  V30 10 2 10 11
M  V30 11 1 11 12
M  V30 12 2 12 13
M  V30 13 2 7 14
M  V30 14 1 14 15
M  V30 15 2 15 16
M  V30 16 1 16 17
M  V30 17 2 17 18
M  V30 18 1 18 19
M  V30 19 1 19 20
M  V30 20 1 19 21
M  V30 21 1 21 22
M  V30 22 1 22 23
M  V30 23 1 18 24
M  V30 24 2 24 25
M  V30 25 1 14 26
M  V30 26 2 26 27
M  V30 27 1 27 28
M  V30 28 2 28 3
M  V30 29 1 27 6
M  V30 30 1 13 8
M  V30 31 1 25 15
M  V30 32 1 23 19
M  V30 33 1 1 29
M  V30 34 1 1 30
M  V30 35 1 2 31
M  V30 36 1 4 32
M  V30 37 1 5 33
M  V30 38 1 9 34
M  V30 39 1 10 35
M  V30 40 1 11 36
M  V30 41 1 12 37
M  V30 42 1 13 38
M  V30 43 1 16 39
M  V30 44 1 17 40
M  V30 45 1 20 41
M  V30 46 1 20 42
M  V30 47 1 21 43
M  V30 48 1 21 44
M  V30 49 1 22 45
M  V30 50 1 22 46
M  V30 51 1 23 47
M  V30 52 1 23 48
M  V30 53 1 24 49
M  V30 54 1 25 50
M  V30 55 1 28 51
M  V30 END BOND
M  V30 END CTAB
M  END
>  <Dataset>  (463) 
ChEMBL_Kinases

>  <Ligand_Instance>  (463) 
nan

>  <PDB_ID>  (463) 
nan

>  <Standardized_SMILES>  (463) 
C=Cc1ccn2c(-c3ccccc3)c(-c3ccc(C4(N)CCC4)cc3)nc2c1

>  <Name>  (463) 
nan

>  <Pocket>  (463) 
nan

>  <ATP_Site>  (463) 
nan

>  <Peripheral>  (463) 
nan

>  <Num_H_Atoms_ProtBoundConf>  (463) 
nan

>  <Num_Resolved_Atoms>  (463) 
nan

>  <Num_Not_Resolved_Atoms>  (463) 
nan

$$$$
CHEMBL2386748
     RDKit          3D

  0  0  0  0  0  0  0  0  0  0999 V3000
M  V30 BEGIN CTAB
M  V30 COUNTS 37 40 0 0 0
M  V30 BEGIN ATOM
M  V30 1 C 3.015336 -4.159744 4.141661 0
M  V30 2 O 3.712154 -3.201411 3.399103 0
M  V30 3 C 3.398835 -2.813734 2.117897 0
M  V30 4 N 3.469418 -3.940113 1.475314 0
M  V30 5 C 3.052018 -1.461448 1.521368 0
M  V30 6 N 3.487216 -0.508429 1.114089 0
M  V30 7 C 2.898678 0.564301 0.637397 0
M  V30 8 C 3.446603 1.727008 0.143999 0
M  V30 9 C 2.651556 2.735381 -0.305106 0
M  V30 10 C 1.252006 2.716330 -0.320584 0
M  V30 11 N 0.448717 3.678545 -0.744112 0
M  V30 12 C -0.904767 3.496178 -0.682725 0
M  V30 13 N -1.428390 2.355039 -0.199055 0
M  V30 14 C -0.652885 1.328666 0.251699 0
M  V30 15 N -1.324589 0.157026 0.755788 0
M  V30 16 C -2.180598 -0.782311 0.107105 0
M  V30 17 C -2.049914 -2.134396 -0.077236 0
M  V30 18 C -2.998533 -2.885301 -0.734380 0
M  V30 19 C -4.142172 -2.317851 -1.248212 0
M  V30 20 F -5.015670 -3.129999 -1.876197 0
M  V30 21 C -4.308947 -0.936412 -1.077174 0
M  V30 22 C -3.340021 -0.192547 -0.411002 0
M  V30 23 F -3.731988 1.120622 -0.372169 0
M  V30 24 C 0.702444 1.552732 0.172743 0
M  V30 25 C 1.508230 0.521645 0.632180 0
M  V30 26 S 1.200194 -1.073227 1.320811 0
M  V30 27 H 3.613165 -4.343926 5.081560 0
M  V30 28 H 2.018775 -3.720333 4.422289 0
M  V30 29 H 2.876982 -5.134364 3.660383 0
M  V30 30 H 3.273657 -3.948226 0.450933 0
M  V30 31 H 4.515833 1.952223 0.065522 0
M  V30 32 H 3.045240 3.675607 -0.703595 0
M  V30 33 H -1.553218 4.297185 -1.034334 0
M  V30 34 H -1.175435 -0.062690 1.763631 0
M  V30 35 H -1.164282 -2.552876 0.324288 0
M  V30 36 H -2.785390 -3.959968 -0.821309 0
M  V30 37 H -5.232609 -0.575605 -1.509601 0
M  V30 END ATOM
M  V30 BEGIN BOND
M  V30 1 1 1 2
M  V30 2 1 2 3
M  V30 3 2 3 4 CFG=2
M  V30 4 1 3 5
M  V30 5 2 5 6
M  V30 6 1 6 7
M  V30 7 2 7 8
M  V30 8 1 8 9
M  V30 9 2 9 10
M  V30 10 1 10 11
M  V30 11 2 11 12
M  V30 12 1 12 13
M  V30 13 2 13 14
M  V30 14 1 14 15
M  V30 15 1 15 16
M  V30 16 2 16 17
M  V30 17 1 17 18
M  V30 18 2 18 19
M  V30 19 1 19 20
M  V30 20 1 19 21
M  V30 21 2 21 22
M  V30 22 1 22 23
M  V30 23 1 14 24
M  V30 24 2 24 25
M  V30 25 1 25 26
M  V30 26 1 26 5
M  V30 27 1 25 7
M  V30 28 1 24 10
M  V30 29 1 22 16
M  V30 30 1 1 27
M  V30 31 1 1 28
M  V30 32 1 1 29
M  V30 33 1 4 30
M  V30 34 1 8 31
M  V30 35 1 9 32
M  V30 36 1 12 33
M  V30 37 1 15 34
M  V30 38 1 17 35
M  V30 39 1 18 36
M  V30 40 1 21 37
M  V30 END BOND
M  V30 END CTAB
M  END
>  <Dataset>  (464) 
ChEMBL_Kinases

>  <Ligand_Instance>  (464) 
nan

>  <PDB_ID>  (464) 
nan

>  <Standardized_SMILES>  (464) 
COC(=N)c1nc2ccc3ncnc(Nc4ccc(F)cc4F)c3c2s1

>  <Name>  (464) 
nan

>  <Pocket>  (464) 
nan

>  <ATP_Site>  (464) 
nan

>  <Peripheral>  (464) 
nan

>  <Num_H_Atoms_ProtBoundConf>  (464) 
nan

>  <Num_Resolved_Atoms>  (464) 
nan

>  <Num_Not_Resolved_Atoms>  (464) 
nan

$$$$
CHEMBL3703104
     RDKit          3D

  0  0  0  0  0  0  0  0  0  0999 V3000
M  V30 BEGIN CTAB
M  V30 COUNTS 56 61 0 0 0
M  V30 BEGIN ATOM
M  V30 1 N -3.691912 -1.418182 5.238903 0
M  V30 2 C -4.241072 -1.005099 3.934879 0
M  V30 3 C -3.208873 -0.693462 2.950392 0
M  V30 4 C -2.143745 -1.598092 3.022060 0
M  V30 5 C -1.036254 -1.521463 2.192693 0
M  V30 6 C -0.950906 -0.521775 1.245547 0
M  V30 7 C 0.205404 -0.422723 0.362775 0
M  V30 8 N 1.020612 0.646112 0.378644 0
M  V30 9 C 2.012341 0.505935 -0.522540 0
M  V30 10 C 3.085150 1.291611 -0.898327 0
M  V30 11 C 3.928838 0.817202 -1.891851 0
M  V30 12 C 5.066707 1.667863 -2.279345 0
M  V30 13 C 5.613652 1.711666 -3.547051 0
M  V30 14 C 6.696241 2.564942 -3.786161 0
M  V30 15 N 7.206199 3.334216 -2.811034 0
M  V30 16 C 6.699469 3.318758 -1.562088 0
M  V30 17 C 5.631331 2.480822 -1.314476 0
M  V30 18 C 3.735665 -0.417596 -2.522822 0
M  V30 19 C 2.632230 -1.121737 -2.069882 0
M  V30 20 N 1.795587 -0.687120 -1.107545 0
M  V30 21 C 0.704858 -1.298878 -0.605884 0
M  V30 22 C 0.068072 -2.562658 -0.891903 0
M  V30 23 C -1.220345 -2.504629 -1.376971 0
M  V30 24 C -1.821996 -3.737338 -1.648709 0
M  V30 25 C -1.237177 -4.970848 -1.471926 0
M  V30 26 C 0.051806 -4.930830 -0.983126 0
M  V30 27 C 0.740545 -3.774299 -0.681122 0
M  V30 28 C -1.994567 0.377193 1.164037 0
M  V30 29 C -3.090675 0.291190 1.993992 0
M  V30 30 C -5.332696 -1.945454 3.463792 0
M  V30 31 C -6.402431 -0.987409 3.942413 0
M  V30 32 C -5.288584 0.029240 4.172374 0
M  V30 33 H -4.522080 -1.549013 5.862924 0
M  V30 34 H -3.081619 -0.613032 5.547254 0
M  V30 35 H -2.061272 -2.446226 3.719355 0
M  V30 36 H -0.202510 -2.203913 2.226184 0
M  V30 37 H 3.245048 2.243286 -0.421058 0
M  V30 38 H 5.172168 1.075753 -4.302043 0
M  V30 39 H 7.081596 2.553263 -4.805598 0
M  V30 40 H 7.124326 3.952608 -0.770365 0
M  V30 41 H 5.264725 2.505598 -0.304548 0
M  V30 42 H 4.403647 -0.754857 -3.284889 0
M  V30 43 H 2.480303 -2.093528 -2.566699 0
M  V30 44 H -1.744976 -1.582066 -1.542148 0
M  V30 45 H -2.851006 -3.678047 -2.035570 0
M  V30 46 H -1.770094 -5.875203 -1.705855 0
M  V30 47 H 0.540884 -5.902776 -0.833018 0
M  V30 48 H 1.762800 -3.795100 -0.295402 0
M  V30 49 H -1.993604 1.185163 0.445324 0
M  V30 50 H -3.938986 0.958915 1.982581 0
M  V30 51 H -5.405310 -2.888269 4.044072 0
M  V30 52 H -5.418469 -2.118690 2.392119 0
M  V30 53 H -6.881219 -1.279740 4.899056 0
M  V30 54 H -7.133694 -0.683218 3.177652 0
M  V30 55 H -5.335123 0.453426 5.200682 0
M  V30 56 H -5.345506 0.812645 3.403096 0
M  V30 END ATOM
M  V30 BEGIN BOND
M  V30 1 1 1 2
M  V30 2 1 2 3
M  V30 3 2 3 4
M  V30 4 1 4 5
M  V30 5 2 5 6
M  V30 6 1 6 7
M  V30 7 1 7 8
M  V30 8 2 8 9
M  V30 9 1 9 10
M  V30 10 2 10 11
M  V30 11 1 11 12
M  V30 12 2 12 13
M  V30 13 1 13 14
M  V30 14 2 14 15
M  V30 15 1 15 16
M  V30 16 2 16 17
M  V30 17 1 11 18
M  V30 18 2 18 19
M  V30 19 1 19 20
M  V30 20 1 20 21
M  V30 21 1 21 22
M  V30 22 2 22 23
M  V30 23 1 23 24
M  V30 24 2 24 25
M  V30 25 1 25 26
M  V30 26 2 26 27
M  V30 27 1 6 28
M  V30 28 2 28 29
M  V30 29 1 2 30
M  V30 30 1 30 31
M  V30 31 1 31 32
M  V30 32 1 32 2
M  V30 33 1 29 3
M  V30 34 2 21 7
M  V30 35 1 27 22
M  V30 36 1 20 9
M  V30 37 1 17 12
M  V30 38 1 1 33
M  V30 39 1 1 34
M  V30 40 1 4 35
M  V30 41 1 5 36
M  V30 42 1 10 37
M  V30 43 1 13 38
M  V30 44 1 14 39
M  V30 45 1 16 40
M  V30 46 1 17 41
M  V30 47 1 18 42
M  V30 48 1 19 43
M  V30 49 1 23 44
M  V30 50 1 24 45
M  V30 51 1 25 46
M  V30 52 1 26 47
M  V30 53 1 27 48
M  V30 54 1 28 49
M  V30 55 1 29 50
M  V30 56 1 30 51
M  V30 57 1 30 52
M  V30 58 1 31 53
M  V30 59 1 31 54
M  V30 60 1 32 55
M  V30 61 1 32 56
M  V30 END BOND
M  V30 END CTAB
M  END
>  <Dataset>  (465) 
ChEMBL_Kinases

>  <Ligand_Instance>  (465) 
nan

>  <PDB_ID>  (465) 
nan

>  <Standardized_SMILES>  (465) 
NC1(c2ccc(-c3nc4cc(-c5ccncc5)ccn4c3-c3ccccc3)cc2)CCC1

>  <Name>  (465) 
nan

>  <Pocket>  (465) 
nan

>  <ATP_Site>  (465) 
nan

>  <Peripheral>  (465) 
nan

>  <Num_H_Atoms_ProtBoundConf>  (465) 
nan

>  <Num_Resolved_Atoms>  (465) 
nan

>  <Num_Not_Resolved_Atoms>  (465) 
nan

$$$$
CHEMBL2204097
     RDKit          3D

  0  0  0  0  0  0  0  0  0  0999 V3000
M  V30 BEGIN CTAB
M  V30 COUNTS 50 53 0 0 0
M  V30 BEGIN ATOM
M  V30 1 C 0.771857 -4.344039 1.892122 0
M  V30 2 O 0.069438 -3.194193 1.462130 0
M  V30 3 C 0.554563 -1.905292 1.582025 0
M  V30 4 O 1.634195 -2.194306 2.117394 0
M  V30 5 C -0.126861 -0.699283 1.156896 0
M  V30 6 C 0.493373 0.508184 1.348239 0
M  V30 7 C 1.838630 0.630548 1.977202 0
M  V30 8 N 2.796998 0.233741 1.000392 0
M  V30 9 C 4.165553 0.275603 1.406360 0
M  V30 10 C 4.622114 1.683502 1.577247 0
M  V30 11 O 3.826528 2.625898 0.959218 0
M  V30 12 C 3.313604 2.226261 -0.258141 0
M  V30 13 C 2.667961 0.886480 -0.264316 0
M  V30 14 C -0.244555 1.606805 0.904806 0
M  V30 15 O 0.255092 2.764689 1.043263 0
M  V30 16 C -1.489590 1.460055 0.326984 0
M  V30 17 C -2.215480 2.548379 -0.110510 0
M  V30 18 C -3.460063 2.349905 -0.684379 0
M  V30 19 C -4.024722 1.085691 -0.844454 0
M  V30 20 F -5.242400 0.897011 -1.406679 0
M  V30 21 C -3.261491 0.018550 -0.391065 0
M  V30 22 C -2.016508 0.192712 0.184982 0
M  V30 23 N -1.333631 -0.903409 0.602023 0
M  V30 24 C -1.900346 -2.198941 0.442698 0
M  V30 25 C -2.708068 -2.894713 1.309365 0
M  V30 26 C -3.143563 -4.157102 0.934688 0
M  V30 27 C -2.798805 -4.738755 -0.268965 0
M  V30 28 C -1.989348 -4.034464 -1.130803 0
M  V30 29 C -1.536303 -2.765452 -0.783017 0
M  V30 30 H 0.932969 -4.282488 3.005457 0
M  V30 31 H 0.120057 -5.220611 1.718196 0
M  V30 32 H 1.746623 -4.433630 1.379185 0
M  V30 33 H 1.912800 1.695177 2.278316 0
M  V30 34 H 1.932047 -0.004671 2.867518 0
M  V30 35 H 4.749733 -0.259350 0.606822 0
M  V30 36 H 4.307427 -0.350538 2.312544 0
M  V30 37 H 4.620563 1.913627 2.665411 0
M  V30 38 H 5.702932 1.767447 1.261468 0
M  V30 39 H 4.070902 2.314659 -1.089698 0
M  V30 40 H 2.526588 2.982276 -0.512383 0
M  V30 41 H 3.203937 0.234736 -1.013954 0
M  V30 42 H 1.617553 0.898977 -0.629726 0
M  V30 43 H -1.827669 3.561468 -0.012317 0
M  V30 44 H -4.063749 3.164357 -1.040105 0
M  V30 45 H -3.639027 -0.986713 -0.485048 0
M  V30 46 H -2.928867 -2.379697 2.215859 0
M  V30 47 H -3.772304 -4.666669 1.639026 0
M  V30 48 H -3.191376 -5.744982 -0.481254 0
M  V30 49 H -1.730443 -4.501608 -2.064649 0
M  V30 50 H -0.907349 -2.307267 -1.537110 0
M  V30 END ATOM
M  V30 BEGIN BOND
M  V30 1 1 1 2
M  V30 2 1 2 3
M  V30 3 2 3 4
M  V30 4 1 3 5
M  V30 5 2 5 6
M  V30 6 1 6 7
M  V30 7 1 7 8
M  V30 8 1 8 9
M  V30 9 1 9 10
M  V30 10 1 10 11
M  V30 11 1 11 12
M  V30 12 1 12 13
M  V30 13 1 6 14
M  V30 14 2 14 15
M  V30 15 1 14 16
M  V30 16 2 16 17
M  V30 17 1 17 18
M  V30 18 2 18 19
M  V30 19 1 19 20
M  V30 20 1 19 21
M  V30 21 2 21 22
M  V30 22 1 22 23
M  V30 23 1 23 24
M  V30 24 2 24 25
M  V30 25 1 25 26
M  V30 26 2 26 27
M  V30 27 1 27 28
M  V30 28 2 28 29
M  V30 29 1 23 5
M  V30 30 1 29 24
M  V30 31 1 13 8
M  V30 32 1 22 16
M  V30 33 1 1 30
M  V30 34 1 1 31
M  V30 35 1 1 32
M  V30 36 1 7 33
M  V30 37 1 7 34
M  V30 38 1 9 35
M  V30 39 1 9 36
M  V30 40 1 10 37
M  V30 41 1 10 38
M  V30 42 1 12 39
M  V30 43 1 12 40
M  V30 44 1 13 41
M  V30 45 1 13 42
M  V30 46 1 17 43
M  V30 47 1 18 44
M  V30 48 1 21 45
M  V30 49 1 25 46
M  V30 50 1 26 47
M  V30 51 1 27 48
M  V30 52 1 28 49
M  V30 53 1 29 50
M  V30 END BOND
M  V30 END CTAB
M  END
>  <Dataset>  (466) 
ChEMBL_Kinases

>  <Ligand_Instance>  (466) 
nan

>  <PDB_ID>  (466) 
nan

>  <Standardized_SMILES>  (466) 
COC(=O)c1c(CN2CCOCC2)c(=O)c2ccc(F)cc2n1-c1ccccc1

>  <Name>  (466) 
nan

>  <Pocket>  (466) 
nan

>  <ATP_Site>  (466) 
nan

>  <Peripheral>  (466) 
nan

>  <Num_H_Atoms_ProtBoundConf>  (466) 
nan

>  <Num_Resolved_Atoms>  (466) 
nan

>  <Num_Not_Resolved_Atoms>  (466) 
nan

$$$$
CHEMBL3702142
     RDKit          3D

  0  0  0  0  0  0  0  0  0  0999 V3000
M  V30 BEGIN CTAB
M  V30 COUNTS 61 66 0 0 0
M  V30 BEGIN ATOM
M  V30 1 C 0.912137 -5.054914 4.980603 0
M  V30 2 C 1.585319 -3.957386 4.503902 0
M  V30 3 C 1.456983 -3.554491 3.169256 0
M  V30 4 C 1.975196 -2.541515 2.424183 0
M  V30 5 C 2.838447 -1.520552 2.745578 0
M  V30 6 N 3.135323 -0.670271 1.719992 0
M  V30 7 C 2.627308 -0.811114 0.482799 0
M  V30 8 N 3.154953 0.270334 -0.319190 0
M  V30 9 C 2.036446 1.171955 -0.158390 0
M  V30 10 C 1.794700 1.960593 0.944118 0
M  V30 11 C 0.696656 2.794063 0.993865 0
M  V30 12 C -0.203571 2.879621 -0.044762 0
M  V30 13 N -1.367160 3.706747 -0.054938 0
M  V30 14 C -1.915285 4.368393 1.109067 0
M  V30 15 C -1.906623 5.864011 0.898629 0
M  V30 16 N -2.002248 6.215571 -0.493359 0
M  V30 17 C -2.758736 5.241352 -1.252479 0
M  V30 18 C -2.058657 3.912343 -1.330470 0
M  V30 19 C 0.073023 2.076137 -1.129767 0
M  V30 20 N 1.160544 1.252666 -1.174140 0
M  V30 21 C 1.767152 -1.833051 0.172408 0
M  V30 22 C 1.443905 -2.713402 1.186889 0
M  V30 23 N 0.605864 -3.783074 1.078734 0
M  V30 24 C -0.112038 -4.256846 -0.048746 0
M  V30 25 C -1.593178 -4.248285 0.000303 0
M  V30 26 C -2.117009 -4.256764 -1.422559 0
M  V30 27 C -1.054099 -4.612695 -2.404802 0
M  V30 28 C -0.122717 -5.707051 -2.000360 0
M  V30 29 C 0.293339 -5.631040 -0.547226 0
M  V30 30 C 0.623893 -4.306679 2.344510 0
M  V30 31 C -0.036707 -5.401127 2.854235 0
M  V30 32 N 0.108538 -5.767752 4.158168 0
M  V30 33 H 1.067419 -5.302646 6.035519 0
M  V30 34 H 2.245063 -3.346408 5.118615 0
M  V30 35 H 3.225902 -1.439895 3.750730 0
M  V30 36 H 4.034457 0.412611 -0.855761 0
M  V30 37 H 2.503505 1.886900 1.752003 0
M  V30 38 H 0.541855 3.392226 1.863135 0
M  V30 39 H -2.983280 4.042364 1.268335 0
M  V30 40 H -1.351866 4.065140 2.007670 0
M  V30 41 H -2.721751 6.369119 1.497874 0
M  V30 42 H -0.923374 6.230803 1.280635 0
M  V30 43 H -1.057213 6.355199 -0.869243 0
M  V30 44 H -3.755737 5.185482 -0.789479 0
M  V30 45 H -2.836776 5.660666 -2.281258 0
M  V30 46 H -1.332047 3.894216 -2.185277 0
M  V30 47 H -2.831110 3.130210 -1.416715 0
M  V30 48 H -0.537764 2.030347 -2.018811 0
M  V30 49 H 1.453070 -1.805602 -0.855573 0
M  V30 50 H 0.172184 -3.580124 -0.911364 0
M  V30 51 H -2.049643 -3.407465 0.551258 0
M  V30 52 H -1.935156 -5.242545 0.409805 0
M  V30 53 H -2.421227 -3.194558 -1.658933 0
M  V30 54 H -3.042233 -4.857010 -1.531123 0
M  V30 55 H -0.508640 -3.715722 -2.826215 0
M  V30 56 H -1.603033 -4.994829 -3.318013 0
M  V30 57 H 0.813669 -5.554492 -2.582522 0
M  V30 58 H -0.522323 -6.675273 -2.293394 0
M  V30 59 H 1.352851 -5.874308 -0.373124 0
M  V30 60 H -0.362031 -6.368107 -0.018840 0
M  V30 61 H -0.704279 -6.042698 2.299448 0
M  V30 END ATOM
M  V30 BEGIN BOND
M  V30 1 2 1 2
M  V30 2 1 2 3
M  V30 3 1 3 4
M  V30 4 2 4 5
M  V30 5 1 5 6
M  V30 6 2 6 7
M  V30 7 1 7 8
M  V30 8 1 8 9
M  V30 9 2 9 10
M  V30 10 1 10 11
M  V30 11 2 11 12
M  V30 12 1 12 13
M  V30 13 1 13 14
M  V30 14 1 14 15
M  V30 15 1 15 16
M  V30 16 1 16 17
M  V30 17 1 17 18
M  V30 18 1 12 19
M  V30 19 2 19 20
M  V30 20 1 7 21
M  V30 21 2 21 22
M  V30 22 1 22 23
M  V30 23 1 23 24
M  V30 24 1 24 25
M  V30 25 1 25 26
M  V30 26 1 26 27
M  V30 27 1 27 28
M  V30 28 1 28 29
M  V30 29 1 23 30
M  V30 30 1 30 31
M  V30 31 2 31 32
M  V30 32 1 32 1
M  V30 33 2 30 3
M  V30 34 1 22 4
M  V30 35 1 29 24
M  V30 36 1 20 9
M  V30 37 1 18 13
M  V30 38 1 1 33
M  V30 39 1 2 34
M  V30 40 1 5 35
M  V30 41 1 8 36
M  V30 42 1 10 37
M  V30 43 1 11 38
M  V30 44 1 14 39
M  V30 45 1 14 40
M  V30 46 1 15 41
M  V30 47 1 15 42
M  V30 48 1 16 43
M  V30 49 1 17 44
M  V30 50 1 17 45
M  V30 51 1 18 46
M  V30 52 1 18 47
M  V30 53 1 19 48
M  V30 54 1 21 49
M  V30 55 1 24 50
M  V30 56 1 25 51
M  V30 57 1 25 52
M  V30 58 1 26 53
M  V30 59 1 26 54
M  V30 60 1 27 55
M  V30 61 1 27 56
M  V30 62 1 28 57
M  V30 63 1 28 58
M  V30 64 1 29 59
M  V30 65 1 29 60
M  V30 66 1 31 61
M  V30 END BOND
M  V30 END CTAB
M  END
>  <Dataset>  (467) 
ChEMBL_Kinases

>  <Ligand_Instance>  (467) 
nan

>  <PDB_ID>  (467) 
nan

>  <Standardized_SMILES>  (467) 
c1cc2c3cnc(Nc4ccc(N5CCNCC5)cn4)cc3n(C3CCCCC3)c2cn1

>  <Name>  (467) 
nan

>  <Pocket>  (467) 
nan

>  <ATP_Site>  (467) 
nan

>  <Peripheral>  (467) 
nan

>  <Num_H_Atoms_ProtBoundConf>  (467) 
nan

>  <Num_Resolved_Atoms>  (467) 
nan

>  <Num_Not_Resolved_Atoms>  (467) 
nan

$$$$
CHEMBL3698655
     RDKit          3D

  0  0  0  0  0  0  0  0  0  0999 V3000
M  V30 BEGIN CTAB
M  V30 COUNTS 55 60 0 0 0
M  V30 BEGIN ATOM
M  V30 1 O 5.176539 -3.197011 -4.974787 0
M  V30 2 C 4.483885 -2.678947 -3.909086 0 CFG=1
M  V30 3 C 4.532012 -3.544201 -2.662980 0
M  V30 4 C 4.839624 -2.528312 -1.547177 0
M  V30 5 N 4.385107 -1.267492 -2.102192 0
M  V30 6 C 3.511161 -0.296586 -1.550125 0
M  V30 7 C 2.905615 -0.593995 -0.351179 0
M  V30 8 C 2.060230 0.398986 0.153960 0
M  V30 9 C 1.807849 1.627111 -0.467797 0
M  V30 10 N 0.932221 2.569916 0.138918 0
M  V30 11 C 0.339726 2.176119 1.367304 0
M  V30 12 N 0.687269 2.437894 2.655405 0
M  V30 13 C -0.032503 1.935245 3.681130 0
M  V30 14 C -1.133587 1.146674 3.424238 0
M  V30 15 C -2.056000 0.492130 4.214246 0
M  V30 16 C -2.167918 0.424231 5.609437 0
M  V30 17 C -3.218734 -0.327010 6.118803 0
M  V30 18 N -4.090586 -0.961435 5.290080 0
M  V30 19 C -3.962398 -0.881301 3.949009 0
M  V30 20 C -2.939038 -0.150460 3.367753 0
M  V30 21 N -2.608535 0.074314 2.102471 0
M  V30 22 C -3.229099 -0.389467 0.905892 0
M  V30 23 C -4.677377 0.008695 0.896139 0
M  V30 24 C -5.487475 -1.200859 0.479679 0
M  V30 25 C -4.481574 -2.233139 0.008125 0
M  V30 26 C -3.197121 -1.893585 0.736946 0
M  V30 27 C -1.497442 0.872892 2.120987 0
M  V30 28 N -0.749839 1.395671 1.100205 0
M  V30 29 N 2.464384 1.791843 -1.637269 0
M  V30 30 N 3.266443 0.877416 -2.140026 0
M  V30 31 C 5.129539 -1.399146 -3.359530 0
M  V30 32 H 4.512958 -3.724348 -5.521258 0
M  V30 33 H 3.425913 -2.407743 -4.153496 0
M  V30 34 H 5.331905 -4.275153 -2.782941 0
M  V30 35 H 3.566674 -4.064724 -2.483328 0
M  V30 36 H 4.355816 -2.775855 -0.603437 0
M  V30 37 H 5.964145 -2.489438 -1.430687 0
M  V30 38 H 3.015494 -1.506019 0.232021 0
M  V30 39 H 1.567401 0.175561 1.113751 0
M  V30 40 H 0.806514 3.489791 -0.341133 0
M  V30 41 H 0.282077 2.171379 4.678266 0
M  V30 42 H -1.450002 0.945992 6.228567 0
M  V30 43 H -3.310861 -0.382850 7.186207 0
M  V30 44 H -4.681240 -1.406036 3.337951 0
M  V30 45 H -2.749442 0.036788 -0.008628 0
M  V30 46 H -4.878170 0.833515 0.149247 0
M  V30 47 H -5.018129 0.441166 1.857062 0
M  V30 48 H -6.259369 -0.965959 -0.264110 0
M  V30 49 H -6.043139 -1.554460 1.382856 0
M  V30 50 H -4.816055 -3.232691 0.351404 0
M  V30 51 H -4.364913 -2.182820 -1.087474 0
M  V30 52 H -2.347722 -2.224034 0.109548 0
M  V30 53 H -3.115856 -2.418839 1.705757 0
M  V30 54 H 6.199928 -1.550565 -3.131543 0
M  V30 55 H 4.958778 -0.559782 -4.035932 0
M  V30 END ATOM
M  V30 BEGIN BOND
M  V30 1 1 1 2
M  V30 2 1 2 3
M  V30 3 1 3 4
M  V30 4 1 4 5
M  V30 5 1 5 6
M  V30 6 2 6 7
M  V30 7 1 7 8
M  V30 8 2 8 9
M  V30 9 1 9 10
M  V30 10 1 10 11
M  V30 11 2 11 12
M  V30 12 1 12 13
M  V30 13 2 13 14
M  V30 14 1 14 15
M  V30 15 2 15 16
M  V30 16 1 16 17
M  V30 17 2 17 18
M  V30 18 1 18 19
M  V30 19 2 19 20
M  V30 20 1 20 21
M  V30 21 1 21 22
M  V30 22 1 22 23
M  V30 23 1 23 24
M  V30 24 1 24 25
M  V30 25 1 25 26
M  V30 26 1 21 27
M  V30 27 2 27 28
M  V30 28 1 9 29
M  V30 29 2 29 30
M  V30 30 1 5 31
M  V30 31 1 31 2
M  V30 32 1 30 6
M  V30 33 1 28 11
M  V30 34 1 27 14
M  V30 35 1 20 15
M  V30 36 1 26 22
M  V30 37 1 1 32
M  V30 38 1 2 33 CFG=3
M  V30 39 1 3 34
M  V30 40 1 3 35
M  V30 41 1 4 36
M  V30 42 1 4 37
M  V30 43 1 7 38
M  V30 44 1 8 39
M  V30 45 1 10 40
M  V30 46 1 13 41
M  V30 47 1 16 42
M  V30 48 1 17 43
M  V30 49 1 19 44
M  V30 50 1 22 45
M  V30 51 1 23 46
M  V30 52 1 23 47
M  V30 53 1 24 48
M  V30 54 1 24 49
M  V30 55 1 25 50
M  V30 56 1 25 51
M  V30 57 1 26 52
M  V30 58 1 26 53
M  V30 59 1 31 54
M  V30 60 1 31 55
M  V30 END BOND
M  V30 END CTAB
M  END
>  <Dataset>  (468) 
ChEMBL_Kinases

>  <Ligand_Instance>  (468) 
nan

>  <PDB_ID>  (468) 
nan

>  <Standardized_SMILES>  (468) 
O[C@H]1CCN(c2ccc(Nc3ncc4c5ccncc5n(C5CCCC5)c4n3)nn2)C1

>  <Name>  (468) 
nan

>  <Pocket>  (468) 
nan

>  <ATP_Site>  (468) 
nan

>  <Peripheral>  (468) 
nan

>  <Num_H_Atoms_ProtBoundConf>  (468) 
nan

>  <Num_Resolved_Atoms>  (468) 
nan

>  <Num_Not_Resolved_Atoms>  (468) 
nan

$$$$
CHEMBL3698654
     RDKit          3D

  0  0  0  0  0  0  0  0  0  0999 V3000
M  V30 BEGIN CTAB
M  V30 COUNTS 55 60 0 0 0
M  V30 BEGIN ATOM
M  V30 1 O 5.534230 -4.360300 2.951960 0
M  V30 2 C 6.328716 -4.023705 1.853041 0 CFG=2
M  V30 3 C 7.330856 -2.968991 2.304859 0
M  V30 4 C 7.089346 -1.825527 1.327215 0
M  V30 5 N 5.659363 -1.911349 1.027703 0
M  V30 6 C 4.617920 -0.967652 0.984478 0
M  V30 7 C 4.791204 0.395534 0.980302 0
M  V30 8 C 3.693396 1.229967 0.969921 0
M  V30 9 C 2.400538 0.722792 0.964191 0
M  V30 10 N 1.220952 1.558423 0.983856 0
M  V30 11 C -0.098892 1.044665 0.995544 0
M  V30 12 N -0.268541 0.423797 2.180889 0
M  V30 13 C -1.399499 -0.188606 2.569724 0
M  V30 14 C -2.481591 -0.199014 1.717717 0
M  V30 15 C -3.750301 -0.689206 1.743577 0
M  V30 16 C -4.378605 -1.402322 2.748384 0
M  V30 17 C -5.683883 -1.792369 2.525996 0
M  V30 18 N -6.277328 -1.461508 1.349194 0
M  V30 19 C -5.631071 -0.763924 0.391244 0
M  V30 20 C -4.339716 -0.339801 0.530329 0
M  V30 21 N -3.447114 0.350841 -0.220007 0
M  V30 22 C -3.756166 0.878130 -1.555021 0
M  V30 23 C -4.939259 1.817476 -1.492521 0
M  V30 24 C -5.899930 1.417649 -2.574274 0
M  V30 25 C -5.358175 0.189562 -3.251734 0
M  V30 26 C -4.078985 -0.206601 -2.512736 0
M  V30 27 C -2.313959 0.443534 0.487370 0
M  V30 28 N -1.146619 1.044808 0.149747 0
M  V30 29 N 2.281207 -0.643539 0.966910 0
M  V30 30 N 3.355852 -1.413564 0.976703 0
M  V30 31 C 5.535300 -3.343125 0.751781 0
M  V30 32 H 5.314639 -5.332930 2.938199 0
M  V30 33 H 6.875319 -4.895419 1.463036 0
M  V30 34 H 8.369118 -3.333017 2.252450 0
M  V30 35 H 7.110795 -2.600297 3.326104 0
M  V30 36 H 7.312494 -0.836696 1.763967 0
M  V30 37 H 7.651637 -1.967325 0.394401 0
M  V30 38 H 5.791426 0.801901 0.984726 0
M  V30 39 H 3.766849 2.315018 0.966031 0
M  V30 40 H 1.417018 2.581290 0.988568 0
M  V30 41 H -1.581408 -0.698685 3.506376 0
M  V30 42 H -3.911674 -1.664636 3.676189 0
M  V30 43 H -6.293874 -2.352739 3.223009 0
M  V30 44 H -6.171410 -0.551367 -0.495631 0
M  V30 45 H -2.892935 1.446726 -1.946814 0
M  V30 46 H -4.667938 2.879891 -1.647758 0
M  V30 47 H -5.358555 1.720646 -0.461280 0
M  V30 48 H -6.916752 1.219889 -2.124278 0
M  V30 49 H -6.070873 2.260094 -3.296156 0
M  V30 50 H -6.107456 -0.640239 -3.193841 0
M  V30 51 H -5.157114 0.469554 -4.310661 0
M  V30 52 H -3.305862 -0.354019 -3.290464 0
M  V30 53 H -4.178942 -1.212890 -2.032476 0
M  V30 54 H 5.898718 -3.560487 -0.261649 0
M  V30 55 H 4.462619 -3.651276 0.858857 0
M  V30 END ATOM
M  V30 BEGIN BOND
M  V30 1 1 1 2
M  V30 2 1 2 3
M  V30 3 1 3 4
M  V30 4 1 4 5
M  V30 5 1 5 6
M  V30 6 2 6 7
M  V30 7 1 7 8
M  V30 8 2 8 9
M  V30 9 1 9 10
M  V30 10 1 10 11
M  V30 11 2 11 12
M  V30 12 1 12 13
M  V30 13 2 13 14
M  V30 14 1 14 15
M  V30 15 2 15 16
M  V30 16 1 16 17
M  V30 17 2 17 18
M  V30 18 1 18 19
M  V30 19 2 19 20
M  V30 20 1 20 21
M  V30 21 1 21 22
M  V30 22 1 22 23
M  V30 23 1 23 24
M  V30 24 1 24 25
M  V30 25 1 25 26
M  V30 26 1 21 27
M  V30 27 2 27 28
M  V30 28 1 9 29
M  V30 29 2 29 30
M  V30 30 1 5 31
M  V30 31 1 31 2
M  V30 32 1 30 6
M  V30 33 1 28 11
M  V30 34 1 27 14
M  V30 35 1 20 15
M  V30 36 1 26 22
M  V30 37 1 1 32
M  V30 38 1 2 33 CFG=3
M  V30 39 1 3 34
M  V30 40 1 3 35
M  V30 41 1 4 36
M  V30 42 1 4 37
M  V30 43 1 7 38
M  V30 44 1 8 39
M  V30 45 1 10 40
M  V30 46 1 13 41
M  V30 47 1 16 42
M  V30 48 1 17 43
M  V30 49 1 19 44
M  V30 50 1 22 45
M  V30 51 1 23 46
M  V30 52 1 23 47
M  V30 53 1 24 48
M  V30 54 1 24 49
M  V30 55 1 25 50
M  V30 56 1 25 51
M  V30 57 1 26 52
M  V30 58 1 26 53
M  V30 59 1 31 54
M  V30 60 1 31 55
M  V30 END BOND
M  V30 END CTAB
M  END
>  <Dataset>  (469) 
ChEMBL_Kinases

>  <Ligand_Instance>  (469) 
nan

>  <PDB_ID>  (469) 
nan

>  <Standardized_SMILES>  (469) 
O[C@@H]1CCN(c2ccc(Nc3ncc4c5ccncc5n(C5CCCC5)c4n3)nn2)C1

>  <Name>  (469) 
nan

>  <Pocket>  (469) 
nan

>  <ATP_Site>  (469) 
nan

>  <Peripheral>  (469) 
nan

>  <Num_H_Atoms_ProtBoundConf>  (469) 
nan

>  <Num_Resolved_Atoms>  (469) 
nan

>  <Num_Not_Resolved_Atoms>  (469) 
nan

$$$$
CHEMBL2204103
     RDKit          3D

  0  0  0  0  0  0  0  0  0  0999 V3000
M  V30 BEGIN CTAB
M  V30 COUNTS 41 44 0 0 0
M  V30 BEGIN ATOM
M  V30 1 O 1.047260 -3.262261 2.372852 0
M  V30 2 C 0.931911 -2.358432 1.520168 0
M  V30 3 C 2.102866 -1.750181 1.090655 0
M  V30 4 C 3.324769 -2.162339 1.614639 0
M  V30 5 C 4.526428 -1.576987 1.209932 0
M  V30 6 C 4.521712 -0.565350 0.269917 0
M  V30 7 C 3.298929 -0.175697 -0.233269 0
M  V30 8 C 2.106460 -0.743096 0.155829 0
M  V30 9 N 0.936079 -0.360345 -0.334894 0
M  V30 10 C 0.947215 0.683728 -1.303183 0
M  V30 11 C 0.655952 0.544734 -2.655948 0
M  V30 12 C 0.701477 1.637625 -3.496327 0
M  V30 13 C 1.034319 2.911024 -3.044887 0
M  V30 14 C 1.333849 3.106314 -1.705130 0
M  V30 15 C 1.277256 1.978471 -0.887022 0
M  V30 16 C -0.204545 -0.948145 0.079134 0
M  V30 17 O -1.302361 -0.566318 -0.402346 0
M  V30 18 N -0.249138 -1.935958 0.991321 0
M  V30 19 C -1.447715 -2.580818 1.451605 0
M  V30 20 C -2.078864 -1.960491 2.619699 0
M  V30 21 C -1.790877 -2.297229 3.943417 0
M  V30 22 C -2.407354 -1.689433 5.018304 0
M  V30 23 C -3.358856 -0.697121 4.803060 0
M  V30 24 C -3.674721 -0.332160 3.502380 0
M  V30 25 C -3.034240 -0.965699 2.457468 0
M  V30 26 H 3.341228 -2.943882 2.342348 0
M  V30 27 H 5.450476 -1.947667 1.660970 0
M  V30 28 H 5.458304 -0.100850 -0.053199 0
M  V30 29 H 3.329363 0.613929 -0.963050 0
M  V30 30 H 0.401499 -0.450311 -2.979921 0
M  V30 31 H 0.468549 1.500171 -4.552325 0
M  V30 32 H 1.074524 3.777748 -3.690391 0
M  V30 33 H 1.599613 4.047560 -1.270499 0
M  V30 34 H 1.509462 2.121020 0.160241 0
M  V30 35 H -2.168607 -2.543892 0.598785 0
M  V30 36 H -1.287341 -3.672860 1.661467 0
M  V30 37 H -1.060920 -3.059042 4.127619 0
M  V30 38 H -2.163332 -1.972087 6.047601 0
M  V30 39 H -3.851975 -0.210083 5.633062 0
M  V30 40 H -4.417096 0.442304 3.325482 0
M  V30 41 H -3.328725 -0.631944 1.469519 0
M  V30 END ATOM
M  V30 BEGIN BOND
M  V30 1 2 1 2
M  V30 2 1 2 3
M  V30 3 2 3 4
M  V30 4 1 4 5
M  V30 5 2 5 6
M  V30 6 1 6 7
M  V30 7 2 7 8
M  V30 8 1 8 9
M  V30 9 1 9 10
M  V30 10 2 10 11
M  V30 11 1 11 12
M  V30 12 2 12 13
M  V30 13 1 13 14
M  V30 14 2 14 15
M  V30 15 1 9 16
M  V30 16 2 16 17
M  V30 17 1 16 18
M  V30 18 1 18 19
M  V30 19 1 19 20
M  V30 20 2 20 21
M  V30 21 1 21 22
M  V30 22 2 22 23
M  V30 23 1 23 24
M  V30 24 2 24 25
M  V30 25 1 18 2
M  V30 26 1 25 20
M  V30 27 1 8 3
M  V30 28 1 15 10
M  V30 29 1 4 26
M  V30 30 1 5 27
M  V30 31 1 6 28
M  V30 32 1 7 29
M  V30 33 1 11 30
M  V30 34 1 12 31
M  V30 35 1 13 32
M  V30 36 1 14 33
M  V30 37 1 15 34
M  V30 38 1 19 35
M  V30 39 1 19 36
M  V30 40 1 21 37
M  V30 41 1 22 38
M  V30 42 1 23 39
M  V30 43 1 24 40
M  V30 44 1 25 41
M  V30 END BOND
M  V30 END CTAB
M  END
>  <Dataset>  (470) 
ChEMBL_Kinases

>  <Ligand_Instance>  (470) 
nan

>  <PDB_ID>  (470) 
nan

>  <Standardized_SMILES>  (470) 
O=c1c2ccccc2n(-c2ccccc2)c(=O)n1Cc1ccccc1

>  <Name>  (470) 
nan

>  <Pocket>  (470) 
nan

>  <ATP_Site>  (470) 
nan

>  <Peripheral>  (470) 
nan

>  <Num_H_Atoms_ProtBoundConf>  (470) 
nan

>  <Num_Resolved_Atoms>  (470) 
nan

>  <Num_Not_Resolved_Atoms>  (470) 
nan

$$$$
CHEMBL3698653
     RDKit          3D

  0  0  0  0  0  0  0  0  0  0999 V3000
M  V30 BEGIN CTAB
M  V30 COUNTS 55 60 0 0 0
M  V30 BEGIN ATOM
M  V30 1 C 1.210068 -0.330235 -3.579681 0
M  V30 2 C 1.989413 -1.301915 -2.987569 0
M  V30 3 C 2.731937 -1.061836 -1.852568 0
M  V30 4 C 2.695035 0.207541 -1.281614 0
M  V30 5 N 3.377173 0.672245 -0.119351 0
M  V30 6 C 4.625604 1.150060 -0.069359 0
M  V30 7 C 5.628147 1.361561 -0.989553 0
M  V30 8 N 6.810467 1.869655 -0.631656 0
M  V30 9 C 7.114088 2.212102 0.643338 0
M  V30 10 C 6.160907 2.032940 1.640645 0
M  V30 11 C 4.951278 1.504162 1.224341 0
M  V30 12 C 3.850214 1.230682 2.006131 0
M  V30 13 C 3.489682 1.332607 3.331225 0
M  V30 14 N 2.270421 0.944010 3.718661 0
M  V30 15 C 1.329748 0.445125 2.906111 0
M  V30 16 N 0.073675 0.066527 3.430307 0
M  V30 17 C -1.028883 -0.473200 2.721212 0
M  V30 18 C -1.076621 -0.720428 1.371124 0
M  V30 19 C -2.154756 -1.243990 0.710041 0
M  V30 20 C -3.293494 -1.559742 1.410215 0
M  V30 21 N -4.474693 -2.107004 0.826502 0
M  V30 22 C -5.636733 -2.495649 1.629796 0
M  V30 23 C -6.460058 -3.445725 0.778959 0
M  V30 24 N -5.652248 -4.443061 0.107438 0
M  V30 25 C -4.684208 -3.851959 -0.779818 0
M  V30 26 C -4.649823 -2.329396 -0.594758 0
M  V30 27 C -3.291457 -1.329085 2.764432 0
M  V30 28 C -2.189010 -0.803356 3.383633 0
M  V30 29 N 1.724211 0.368560 1.651118 0
M  V30 30 C 2.909594 0.722724 1.142446 0
M  V30 31 C 1.894754 1.171549 -1.906170 0
M  V30 32 C 1.156023 0.929144 -3.037089 0
M  V30 33 H 0.659058 -0.590765 -4.462354 0
M  V30 34 H 2.055752 -2.314534 -3.392428 0
M  V30 35 H 3.364091 -1.751545 -1.323944 0
M  V30 36 H 5.408198 1.092381 -2.030584 0
M  V30 37 H 8.090259 2.624235 0.898674 0
M  V30 38 H 6.351004 2.287229 2.661875 0
M  V30 39 H 4.215987 1.729720 4.025218 0
M  V30 40 H -0.063282 0.199454 4.469399 0
M  V30 41 H -0.231684 -0.501081 0.762251 0
M  V30 42 H -2.133696 -1.417203 -0.355505 0
M  V30 43 H -5.325217 -2.988673 2.583616 0
M  V30 44 H -6.243985 -1.596317 1.857294 0
M  V30 45 H -7.079719 -4.034942 1.516770 0
M  V30 46 H -7.163048 -2.947320 0.113275 0
M  V30 47 H -5.149685 -4.996707 0.818931 0
M  V30 48 H -3.664324 -4.205715 -0.535648 0
M  V30 49 H -4.938454 -4.115308 -1.829565 0
M  V30 50 H -5.666868 -1.977966 -0.868179 0
M  V30 51 H -3.902468 -1.863048 -1.231924 0
M  V30 52 H -4.160490 -1.551369 3.399313 0
M  V30 53 H -2.238796 -0.637659 4.472248 0
M  V30 54 H 1.814293 2.196351 -1.514506 0
M  V30 55 H 0.547702 1.695234 -3.495463 0
M  V30 END ATOM
M  V30 BEGIN BOND
M  V30 1 2 1 2
M  V30 2 1 2 3
M  V30 3 2 3 4
M  V30 4 1 4 5
M  V30 5 1 5 6
M  V30 6 2 6 7
M  V30 7 1 7 8
M  V30 8 2 8 9
M  V30 9 1 9 10
M  V30 10 2 10 11
M  V30 11 1 11 12
M  V30 12 2 12 13
M  V30 13 1 13 14
M  V30 14 2 14 15
M  V30 15 1 15 16
M  V30 16 1 16 17
M  V30 17 2 17 18
M  V30 18 1 18 19
M  V30 19 2 19 20
M  V30 20 1 20 21
M  V30 21 1 21 22
M  V30 22 1 22 23
M  V30 23 1 23 24
M  V30 24 1 24 25
M  V30 25 1 25 26
M  V30 26 1 20 27
M  V30 27 2 27 28
M  V30 28 1 15 29
M  V30 29 2 29 30
M  V30 30 1 4 31
M  V30 31 2 31 32
M  V30 32 1 32 1
M  V30 33 1 30 5
M  V30 34 1 11 6
M  V30 35 1 30 12
M  V30 36 1 28 17
M  V30 37 1 26 21
M  V30 38 1 1 33
M  V30 39 1 2 34
M  V30 40 1 3 35
M  V30 41 1 7 36
M  V30 42 1 9 37
M  V30 43 1 10 38
M  V30 44 1 13 39
M  V30 45 1 16 40
M  V30 46 1 18 41
M  V30 47 1 19 42
M  V30 48 1 22 43
M  V30 49 1 22 44
M  V30 50 1 23 45
M  V30 51 1 23 46
M  V30 52 1 24 47
M  V30 53 1 25 48
M  V30 54 1 25 49
M  V30 55 1 26 50
M  V30 56 1 26 51
M  V30 57 1 27 52
M  V30 58 1 28 53
M  V30 59 1 31 54
M  V30 60 1 32 55
M  V30 END BOND
M  V30 END CTAB
M  END
>  <Dataset>  (471) 
ChEMBL_Kinases

>  <Ligand_Instance>  (471) 
nan

>  <PDB_ID>  (471) 
nan

>  <Standardized_SMILES>  (471) 
c1ccc(-n2c3cnccc3c3cnc(Nc4ccc(N5CCNCC5)cc4)nc32)cc1

>  <Name>  (471) 
nan

>  <Pocket>  (471) 
nan

>  <ATP_Site>  (471) 
nan

>  <Peripheral>  (471) 
nan

>  <Num_H_Atoms_ProtBoundConf>  (471) 
nan

>  <Num_Resolved_Atoms>  (471) 
nan

>  <Num_Not_Resolved_Atoms>  (471) 
nan

$$$$
CHEMBL3698652
     RDKit          3D

  0  0  0  0  0  0  0  0  0  0999 V3000
M  V30 BEGIN CTAB
M  V30 COUNTS 58 63 0 0 0
M  V30 BEGIN ATOM
M  V30 1 C 2.900084 -4.635873 1.129375 0
M  V30 2 O 2.443727 -3.540488 1.886326 0
M  V30 3 C 2.433154 -2.241662 1.441438 0
M  V30 4 C 1.948420 -1.294246 2.323997 0
M  V30 5 C 1.919560 0.038731 1.912984 0
M  V30 6 C 2.372335 0.393504 0.638405 0
M  V30 7 N 2.295166 1.795871 0.324501 0
M  V30 8 C 3.303639 2.705840 0.246059 0
M  V30 9 C 4.649945 2.535513 0.442363 0
M  V30 10 N 5.410516 3.615294 0.297713 0
M  V30 11 C 4.926709 4.842238 -0.026144 0
M  V30 12 C 3.553587 5.019570 -0.227164 0
M  V30 13 C 2.729990 3.922286 -0.086166 0
M  V30 14 C 1.374132 3.781740 -0.216043 0
M  V30 15 C 0.309951 4.611992 -0.522297 0
M  V30 16 N -0.969265 4.146681 -0.572406 0
M  V30 17 C -1.185722 2.843113 -0.314705 0
M  V30 18 N -2.503973 2.277615 -0.347457 0
M  V30 19 C -2.730126 0.899717 -0.074832 0
M  V30 20 C -3.974561 0.305679 -0.092283 0
M  V30 21 C -4.080804 -1.037747 0.186946 0
M  V30 22 C -3.024304 -1.864483 0.490865 0
M  V30 23 N -3.159886 -3.228568 0.773029 0
M  V30 24 C -4.419574 -3.935321 0.824505 0
M  V30 25 C -4.368667 -4.983549 -0.294610 0
M  V30 26 N -3.327445 -5.921771 -0.023950 0
M  V30 27 C -2.029674 -5.324942 0.136062 0
M  V30 28 C -2.053916 -4.119785 1.049673 0
M  V30 29 C -1.819665 -1.200445 0.488420 0
M  V30 30 N -1.674506 0.111349 0.220596 0
M  V30 31 N -0.147364 2.030961 -0.015460 0
M  V30 32 C 1.131430 2.448822 0.044920 0
M  V30 33 C 2.856087 -0.552755 -0.242132 0
M  V30 34 C 2.876757 -1.881419 0.188076 0
M  V30 35 H 3.749112 -4.332672 0.476534 0
M  V30 36 H 2.078515 -5.021493 0.492036 0
M  V30 37 H 3.277502 -5.463781 1.770832 0
M  V30 38 H 1.593874 -1.555852 3.316159 0
M  V30 39 H 1.532485 0.750848 2.633942 0
M  V30 40 H 5.034814 1.553488 0.701306 0
M  V30 41 H 5.572545 5.717599 -0.139920 0
M  V30 42 H 3.124852 5.986936 -0.488090 0
M  V30 43 H 0.524053 5.668718 -0.726630 0
M  V30 44 H -3.300387 2.902103 -0.577098 0
M  V30 45 H -4.815351 0.938384 -0.328673 0
M  V30 46 H -5.096211 -1.400941 0.145431 0
M  V30 47 H -5.312443 -3.303345 0.734293 0
M  V30 48 H -4.422681 -4.525613 1.778781 0
M  V30 49 H -4.227171 -4.458932 -1.241232 0
M  V30 50 H -5.332643 -5.530036 -0.211451 0
M  V30 51 H -3.571158 -6.659589 0.641288 0
M  V30 52 H -1.365709 -6.068930 0.628468 0
M  V30 53 H -1.558568 -5.058018 -0.818475 0
M  V30 54 H -2.195964 -4.540354 2.087480 0
M  V30 55 H -1.067402 -3.667830 1.031271 0
M  V30 56 H -0.889960 -1.700384 0.706754 0
M  V30 57 H 3.194728 -0.224472 -1.218281 0
M  V30 58 H 3.252036 -2.607147 -0.498064 0
M  V30 END ATOM
M  V30 BEGIN BOND
M  V30 1 1 1 2
M  V30 2 1 2 3
M  V30 3 2 3 4
M  V30 4 1 4 5
M  V30 5 2 5 6
M  V30 6 1 6 7
M  V30 7 1 7 8
M  V30 8 2 8 9
M  V30 9 1 9 10
M  V30 10 2 10 11
M  V30 11 1 11 12
M  V30 12 2 12 13
M  V30 13 1 13 14
M  V30 14 2 14 15
M  V30 15 1 15 16
M  V30 16 2 16 17
M  V30 17 1 17 18
M  V30 18 1 18 19
M  V30 19 2 19 20
M  V30 20 1 20 21
M  V30 21 2 21 22
M  V30 22 1 22 23
M  V30 23 1 23 24
M  V30 24 1 24 25
M  V30 25 1 25 26
M  V30 26 1 26 27
M  V30 27 1 27 28
M  V30 28 1 22 29
M  V30 29 2 29 30
M  V30 30 1 17 31
M  V30 31 2 31 32
M  V30 32 1 6 33
M  V30 33 2 33 34
M  V30 34 1 34 3
M  V30 35 1 32 7
M  V30 36 1 13 8
M  V30 37 1 32 14
M  V30 38 1 30 19
M  V30 39 1 28 23
M  V30 40 1 1 35
M  V30 41 1 1 36
M  V30 42 1 1 37
M  V30 43 1 4 38
M  V30 44 1 5 39
M  V30 45 1 9 40
M  V30 46 1 11 41
M  V30 47 1 12 42
M  V30 48 1 15 43
M  V30 49 1 18 44
M  V30 50 1 20 45
M  V30 51 1 21 46
M  V30 52 1 24 47
M  V30 53 1 24 48
M  V30 54 1 25 49
M  V30 55 1 25 50
M  V30 56 1 26 51
M  V30 57 1 27 52
M  V30 58 1 27 53
M  V30 59 1 28 54
M  V30 60 1 28 55
M  V30 61 1 29 56
M  V30 62 1 33 57
M  V30 63 1 34 58
M  V30 END BOND
M  V30 END CTAB
M  END
>  <Dataset>  (472) 
ChEMBL_Kinases

>  <Ligand_Instance>  (472) 
nan

>  <PDB_ID>  (472) 
nan

>  <Standardized_SMILES>  (472) 
COc1ccc(-n2c3cnccc3c3cnc(Nc4ccc(N5CCNCC5)cn4)nc32)cc1

>  <Name>  (472) 
nan

>  <Pocket>  (472) 
nan

>  <ATP_Site>  (472) 
nan

>  <Peripheral>  (472) 
nan

>  <Num_H_Atoms_ProtBoundConf>  (472) 
nan

>  <Num_Resolved_Atoms>  (472) 
nan

>  <Num_Not_Resolved_Atoms>  (472) 
nan

$$$$
CHEMBL3698651
     RDKit          3D

  0  0  0  0  0  0  0  0  0  0999 V3000
M  V30 BEGIN CTAB
M  V30 COUNTS 54 59 0 0 0
M  V30 BEGIN ATOM
M  V30 1 F 1.467722 -0.687953 -4.426888 0
M  V30 2 C 1.827126 -0.128537 -3.227773 0
M  V30 3 C 2.389535 -0.888395 -2.222584 0
M  V30 4 C 2.737467 -0.268303 -1.019936 0
M  V30 5 C 2.511866 1.095519 -0.858914 0
M  V30 6 N 2.928861 1.547967 0.427413 0
M  V30 7 C 3.955723 2.385402 0.664655 0
M  V30 8 C 4.883164 3.046729 -0.128677 0
M  V30 9 N 5.823612 3.844862 0.418738 0
M  V30 10 C 5.927455 4.052306 1.744015 0
M  V30 11 C 5.037229 3.426921 2.605141 0
M  V30 12 C 4.072480 2.606242 2.023133 0
M  V30 13 C 3.062221 1.857849 2.589973 0
M  V30 14 C 2.618702 1.626854 3.872439 0
M  V30 15 N 1.580077 0.828862 4.151491 0
M  V30 16 C 0.905259 0.203692 3.202043 0
M  V30 17 N -0.193839 -0.638920 3.516224 0
M  V30 18 C -1.024862 -1.378280 2.661265 0
M  V30 19 C -0.938266 -1.438078 1.288690 0
M  V30 20 C -1.762797 -2.169669 0.459759 0
M  V30 21 C -2.767287 -2.912164 1.039425 0
M  V30 22 N -3.693420 -3.715287 0.322208 0
M  V30 23 C -3.750472 -3.925292 -1.106519 0
M  V30 24 C -5.030336 -3.292756 -1.635656 0
M  V30 25 N -6.170920 -3.803730 -0.886601 0
M  V30 26 C -5.765766 -4.873573 0.011954 0
M  V30 27 C -4.730540 -4.440289 1.016257 0
M  V30 28 C -2.859690 -2.857038 2.411612 0
M  V30 29 N -2.023750 -2.123861 3.160492 0
M  V30 30 N 1.333784 0.425797 1.951689 0
M  V30 31 C 2.361012 1.207869 1.599746 0
M  V30 32 C 1.950760 1.846969 -1.865274 0
M  V30 33 C 1.608333 1.225326 -3.054988 0
M  V30 34 H 2.547992 -1.956942 -2.394678 0
M  V30 35 H 3.165551 -0.937363 -0.303163 0
M  V30 36 H 4.854222 2.921026 -1.217856 0
M  V30 37 H 6.692277 4.699222 2.166547 0
M  V30 38 H 5.048261 3.537363 3.683025 0
M  V30 39 H 3.142228 2.120613 4.701700 0
M  V30 40 H -0.416413 -0.718630 4.551725 0
M  V30 41 H -0.180729 -0.884663 0.781481 0
M  V30 42 H -1.646293 -2.177189 -0.609557 0
M  V30 43 H -3.681286 -4.994559 -1.389454 0
M  V30 44 H -2.931129 -3.375181 -1.608117 0
M  V30 45 H -5.118908 -3.458115 -2.729078 0
M  V30 46 H -4.981326 -2.202833 -1.435685 0
M  V30 47 H -6.680226 -3.046589 -0.380848 0
M  V30 48 H -6.682786 -5.136057 0.600397 0
M  V30 49 H -5.414983 -5.720616 -0.601925 0
M  V30 50 H -4.291491 -5.393815 1.429646 0
M  V30 51 H -5.207451 -3.852668 1.842152 0
M  V30 52 H -3.607955 -3.394996 3.012210 0
M  V30 53 H 1.836090 2.886014 -1.599131 0
M  V30 54 H 1.174872 1.875485 -3.795247 0
M  V30 END ATOM
M  V30 BEGIN BOND
M  V30 1 1 1 2
M  V30 2 2 2 3
M  V30 3 1 3 4
M  V30 4 2 4 5
M  V30 5 1 5 6
M  V30 6 1 6 7
M  V30 7 2 7 8
M  V30 8 1 8 9
M  V30 9 2 9 10
M  V30 10 1 10 11
M  V30 11 2 11 12
M  V30 12 1 12 13
M  V30 13 2 13 14
M  V30 14 1 14 15
M  V30 15 2 15 16
M  V30 16 1 16 17
M  V30 17 1 17 18
M  V30 18 2 18 19
M  V30 19 1 19 20
M  V30 20 2 20 21
M  V30 21 1 21 22
M  V30 22 1 22 23
M  V30 23 1 23 24
M  V30 24 1 24 25
M  V30 25 1 25 26
M  V30 26 1 26 27
M  V30 27 1 21 28
M  V30 28 2 28 29
M  V30 29 1 16 30
M  V30 30 2 30 31
M  V30 31 1 5 32
M  V30 32 2 32 33
M  V30 33 1 33 2
M  V30 34 1 31 6
M  V30 35 1 12 7
M  V30 36 1 31 13
M  V30 37 1 29 18
M  V30 38 1 27 22
M  V30 39 1 3 34
M  V30 40 1 4 35
M  V30 41 1 8 36
M  V30 42 1 10 37
M  V30 43 1 11 38
M  V30 44 1 14 39
M  V30 45 1 17 40
M  V30 46 1 19 41
M  V30 47 1 20 42
M  V30 48 1 23 43
M  V30 49 1 23 44
M  V30 50 1 24 45
M  V30 51 1 24 46
M  V30 52 1 25 47
M  V30 53 1 26 48
M  V30 54 1 26 49
M  V30 55 1 27 50
M  V30 56 1 27 51
M  V30 57 1 28 52
M  V30 58 1 32 53
M  V30 59 1 33 54
M  V30 END BOND
M  V30 END CTAB
M  END
>  <Dataset>  (473) 
ChEMBL_Kinases

>  <Ligand_Instance>  (473) 
nan

>  <PDB_ID>  (473) 
nan

>  <Standardized_SMILES>  (473) 
Fc1ccc(-n2c3cnccc3c3cnc(Nc4ccc(N5CCNCC5)cn4)nc32)cc1

>  <Name>  (473) 
nan

>  <Pocket>  (473) 
nan

>  <ATP_Site>  (473) 
nan

>  <Peripheral>  (473) 
nan

>  <Num_H_Atoms_ProtBoundConf>  (473) 
nan

>  <Num_Resolved_Atoms>  (473) 
nan

>  <Num_Not_Resolved_Atoms>  (473) 
nan

$$$$
CHEMBL4462395
     RDKit          3D

  0  0  0  0  0  0  0  0  0  0999 V3000
M  V30 BEGIN CTAB
M  V30 COUNTS 47 49 0 0 0
M  V30 BEGIN ATOM
M  V30 1 C 2.406969 -4.621487 -0.756707 0
M  V30 2 O 1.389832 -4.053027 -1.557569 0
M  V30 3 C 0.930259 -2.788446 -1.232673 0
M  V30 4 C 1.342535 -1.977887 -0.196694 0
M  V30 5 C 0.812791 -0.727843 0.034544 0
M  V30 6 N 1.319648 0.000515 1.136540 0
M  V30 7 C 2.342008 -0.588400 1.958769 0
M  V30 8 C 0.866212 1.288597 1.475139 0
M  V30 9 C 1.077862 2.327302 0.580315 0
M  V30 10 C 0.619714 3.566966 0.978016 0
M  V30 11 N -0.012580 3.857899 2.152800 0
M  V30 12 C -0.218190 2.830740 3.029579 0
M  V30 13 C -0.850281 3.025863 4.235819 0
M  V30 14 C -1.075899 2.000489 5.143619 0
M  V30 15 C -0.641731 0.738868 4.806221 0
M  V30 16 C -0.861418 -0.389473 5.749714 0
M  V30 17 F -0.276650 -0.151305 6.979684 0
M  V30 18 F -0.414876 -1.582842 5.225629 0
M  V30 19 F -2.214107 -0.537183 5.988281 0
M  V30 20 C -0.008274 0.535861 3.600125 0
M  V30 21 C 0.220999 1.545499 2.691514 0
M  V30 22 C -0.176115 -0.234776 -0.788271 0
M  V30 23 C -0.605809 -1.035087 -1.837394 0
M  V30 24 O -1.605555 -0.610086 -2.719614 0
M  V30 25 C -2.167847 0.662496 -2.512218 0
M  V30 26 C -0.073405 -2.307699 -2.081167 0
M  V30 27 O -0.548473 -3.063686 -3.153547 0
M  V30 28 C -1.632951 -3.976968 -3.046587 0
M  V30 29 H 3.420664 -4.295709 -1.076159 0
M  V30 30 H 2.245926 -4.420952 0.320931 0
M  V30 31 H 2.293185 -5.742917 -0.843781 0
M  V30 32 H 2.118053 -2.391412 0.430510 0
M  V30 33 H 3.300268 -0.685879 1.369115 0
M  V30 34 H 2.099830 -1.610065 2.314837 0
M  V30 35 H 2.589765 0.021485 2.840567 0
M  V30 36 H 1.563150 2.235698 -0.378991 0
M  V30 37 H 0.707362 4.481518 0.392931 0
M  V30 38 H -1.201723 4.023256 4.517953 0
M  V30 39 H -1.563282 2.119862 6.088503 0
M  V30 40 H 0.307910 -0.451947 3.380105 0
M  V30 41 H -0.604650 0.743564 -0.622191 0
M  V30 42 H -1.438696 1.495194 -2.635754 0
M  V30 43 H -2.956821 0.810615 -3.303517 0
M  V30 44 H -2.663738 0.786808 -1.545835 0
M  V30 45 H -1.168855 -5.002079 -3.014975 0
M  V30 46 H -2.284276 -3.958942 -3.926687 0
M  V30 47 H -2.118656 -3.837269 -2.069833 0
M  V30 END ATOM
M  V30 BEGIN BOND
M  V30 1 1 1 2
M  V30 2 1 2 3
M  V30 3 2 3 4
M  V30 4 1 4 5
M  V30 5 1 5 6
M  V30 6 1 6 7
M  V30 7 1 6 8
M  V30 8 2 8 9
M  V30 9 1 9 10
M  V30 10 2 10 11
M  V30 11 1 11 12
M  V30 12 2 12 13
M  V30 13 1 13 14
M  V30 14 2 14 15
M  V30 15 1 15 16
M  V30 16 1 16 17
M  V30 17 1 16 18
M  V30 18 1 16 19
M  V30 19 1 15 20
M  V30 20 2 20 21
M  V30 21 2 5 22
M  V30 22 1 22 23
M  V30 23 1 23 24
M  V30 24 1 24 25
M  V30 25 2 23 26
M  V30 26 1 26 27
M  V30 27 1 27 28
M  V30 28 1 26 3
M  V30 29 1 21 8
M  V30 30 1 21 12
M  V30 31 1 1 29
M  V30 32 1 1 30
M  V30 33 1 1 31
M  V30 34 1 4 32
M  V30 35 1 7 33
M  V30 36 1 7 34
M  V30 37 1 7 35
M  V30 38 1 9 36
M  V30 39 1 10 37
M  V30 40 1 13 38
M  V30 41 1 14 39
M  V30 42 1 20 40
M  V30 43 1 22 41
M  V30 44 1 25 42
M  V30 45 1 25 43
M  V30 46 1 25 44
M  V30 47 1 28 45
M  V30 48 1 28 46
M  V30 49 1 28 47
M  V30 END BOND
M  V30 END CTAB
M  END
>  <Dataset>  (474) 
ChEMBL_Kinases

>  <Ligand_Instance>  (474) 
nan

>  <PDB_ID>  (474) 
nan

>  <Standardized_SMILES>  (474) 
COc1cc(N(C)c2ccnc3ccc(C(F)(F)F)cc23)cc(OC)c1OC

>  <Name>  (474) 
nan

>  <Pocket>  (474) 
nan

>  <ATP_Site>  (474) 
nan

>  <Peripheral>  (474) 
nan

>  <Num_H_Atoms_ProtBoundConf>  (474) 
nan

>  <Num_Resolved_Atoms>  (474) 
nan

>  <Num_Not_Resolved_Atoms>  (474) 
nan

$$$$
CHEMBL3698650
     RDKit          3D

  0  0  0  0  0  0  0  0  0  0999 V3000
M  V30 BEGIN CTAB
M  V30 COUNTS 54 59 0 0 0
M  V30 BEGIN ATOM
M  V30 1 C -1.619200 3.015993 -1.609587 0
M  V30 2 C -1.258271 1.693235 -1.350979 0
M  V30 3 C 0.048907 1.495869 -0.962115 0
M  V30 4 C 1.026595 2.466083 -0.804481 0
M  V30 5 N 2.299160 1.990995 -0.382693 0
M  V30 6 C 3.543866 2.067895 -0.866906 0
M  V30 7 C 3.952089 2.709904 -2.016806 0
M  V30 8 N 5.282913 2.655771 -2.309246 0
M  V30 9 C 6.143158 1.991826 -1.486564 0
M  V30 10 C 5.765876 1.341499 -0.332238 0
M  V30 11 C 4.422651 1.394086 -0.033509 0
M  V30 12 C 3.675722 0.882899 1.007284 0
M  V30 13 C 3.991493 0.132675 2.120422 0
M  V30 14 N 3.038620 -0.240929 2.994648 0
M  V30 15 C 1.758239 0.119606 2.785427 0
M  V30 16 N 0.517702 -0.094994 3.466339 0
M  V30 17 C -0.332333 -1.038953 2.834928 0
M  V30 18 C 0.037407 -1.695230 1.676332 0
M  V30 19 C -0.876859 -2.580815 1.112407 0
M  V30 20 C -2.134071 -2.835721 1.652106 0
M  V30 21 N -3.072000 -3.757503 1.071205 0
M  V30 22 C -4.490707 -3.548688 1.261688 0
M  V30 23 C -5.180554 -4.892176 1.280262 0
M  V30 24 N -4.636259 -5.716005 0.250498 0
M  V30 25 C -3.260411 -6.075637 0.520273 0
M  V30 26 C -2.405983 -4.813304 0.353063 0
M  V30 27 C -2.410492 -2.140397 2.802237 0
M  V30 28 N -1.560417 -1.266257 3.395879 0
M  V30 29 N 1.414312 0.861553 1.693110 0
M  V30 30 C 2.351550 1.263328 0.777474 0
M  V30 31 C 0.615937 3.757759 -1.073611 0
M  V30 32 C -0.666642 4.034497 -1.464950 0
M  V30 33 H -2.634016 3.236989 -1.920113 0
M  V30 34 H -1.962432 0.876682 -1.450888 0
M  V30 35 H 0.285484 0.440608 -0.767460 0
M  V30 36 H 3.252658 3.232435 -2.656107 0
M  V30 37 H 7.172419 2.012871 -1.814515 0
M  V30 38 H 6.470556 0.822536 0.299138 0
M  V30 39 H 4.995540 -0.183098 2.334388 0
M  V30 40 H 0.327942 0.419366 4.326133 0
M  V30 41 H 1.010956 -1.524072 1.217923 0
M  V30 42 H -0.614313 -3.113937 0.195467 0
M  V30 43 H -4.706213 -2.974657 2.180871 0
M  V30 44 H -4.842339 -2.995514 0.351607 0
M  V30 45 H -6.265237 -4.753421 1.096106 0
M  V30 46 H -4.979732 -5.351651 2.270640 0
M  V30 47 H -4.779869 -5.385945 -0.708381 0
M  V30 48 H -3.197267 -6.425003 1.567321 0
M  V30 49 H -2.952463 -6.812532 -0.230996 0
M  V30 50 H -2.439489 -4.549307 -0.719472 0
M  V30 51 H -1.379891 -5.019865 0.717494 0
M  V30 52 H -3.330161 -2.217725 3.359019 0
M  V30 53 H 1.408921 4.499429 -0.939941 0
M  V30 54 H -0.932091 5.063494 -1.661433 0
M  V30 END ATOM
M  V30 BEGIN BOND
M  V30 1 2 1 2
M  V30 2 1 2 3
M  V30 3 2 3 4
M  V30 4 1 4 5
M  V30 5 1 5 6
M  V30 6 2 6 7
M  V30 7 1 7 8
M  V30 8 2 8 9
M  V30 9 1 9 10
M  V30 10 2 10 11
M  V30 11 1 11 12
M  V30 12 2 12 13
M  V30 13 1 13 14
M  V30 14 2 14 15
M  V30 15 1 15 16
M  V30 16 1 16 17
M  V30 17 2 17 18
M  V30 18 1 18 19
M  V30 19 2 19 20
M  V30 20 1 20 21
M  V30 21 1 21 22
M  V30 22 1 22 23
M  V30 23 1 23 24
M  V30 24 1 24 25
M  V30 25 1 25 26
M  V30 26 1 20 27
M  V30 27 2 27 28
M  V30 28 1 15 29
M  V30 29 2 29 30
M  V30 30 1 4 31
M  V30 31 2 31 32
M  V30 32 1 32 1
M  V30 33 1 30 5
M  V30 34 1 11 6
M  V30 35 1 30 12
M  V30 36 1 28 17
M  V30 37 1 26 21
M  V30 38 1 1 33
M  V30 39 1 2 34
M  V30 40 1 3 35
M  V30 41 1 7 36
M  V30 42 1 9 37
M  V30 43 1 10 38
M  V30 44 1 13 39
M  V30 45 1 16 40
M  V30 46 1 18 41
M  V30 47 1 19 42
M  V30 48 1 22 43
M  V30 49 1 22 44
M  V30 50 1 23 45
M  V30 51 1 23 46
M  V30 52 1 24 47
M  V30 53 1 25 48
M  V30 54 1 25 49
M  V30 55 1 26 50
M  V30 56 1 26 51
M  V30 57 1 27 52
M  V30 58 1 31 53
M  V30 59 1 32 54
M  V30 END BOND
M  V30 END CTAB
M  END
>  <Dataset>  (475) 
ChEMBL_Kinases

>  <Ligand_Instance>  (475) 
nan

>  <PDB_ID>  (475) 
nan

>  <Standardized_SMILES>  (475) 
c1ccc(-n2c3cnccc3c3cnc(Nc4ccc(N5CCNCC5)cn4)nc32)cc1

>  <Name>  (475) 
nan

>  <Pocket>  (475) 
nan

>  <ATP_Site>  (475) 
nan

>  <Peripheral>  (475) 
nan

>  <Num_H_Atoms_ProtBoundConf>  (475) 
nan

>  <Num_Resolved_Atoms>  (475) 
nan

>  <Num_Not_Resolved_Atoms>  (475) 
nan

$$$$
CHEMBL3698649
     RDKit          3D

  0  0  0  0  0  0  0  0  0  0999 V3000
M  V30 BEGIN CTAB
M  V30 COUNTS 65 70 0 0 0
M  V30 BEGIN ATOM
M  V30 1 C 5.500812 0.471828 3.099632 0
M  V30 2 N 4.448858 1.005701 3.938193 0
M  V30 3 C 3.878665 -0.046946 4.717405 0
M  V30 4 C 3.516143 1.708673 3.120677 0
M  V30 5 C 4.216402 2.857923 2.395934 0
M  V30 6 C 3.231775 3.584179 1.494756 0
M  V30 7 N 1.944384 2.916707 1.505682 0
M  V30 8 C 1.273230 2.343251 0.418803 0
M  V30 9 C 1.794050 2.344878 -0.857805 0
M  V30 10 C 1.085306 1.758178 -1.906637 0
M  V30 11 C -0.150212 1.181647 -1.607927 0
M  V30 12 N -0.993076 0.537582 -2.582896 0
M  V30 13 C -2.248850 -0.039593 -2.246160 0
M  V30 14 N -3.462071 0.587443 -2.285389 0
M  V30 15 C -4.589392 -0.052781 -1.943203 0
M  V30 16 C -4.577204 -1.386364 -1.532004 0
M  V30 17 C -5.523739 -2.307348 -1.125739 0
M  V30 18 C -6.895871 -2.191832 -0.986121 0
M  V30 19 C -7.538350 -3.337071 -0.548881 0
M  V30 20 N -6.878012 -4.489834 -0.275870 0
M  V30 21 C -5.540836 -4.560363 -0.424975 0
M  V30 22 C -4.813632 -3.459849 -0.859243 0
M  V30 23 N -3.499062 -3.281301 -1.082471 0
M  V30 24 C -2.421688 -4.217545 -0.928156 0
M  V30 25 C -1.657450 -4.521896 -2.171186 0
M  V30 26 C -0.180906 -4.309733 -1.868937 0
M  V30 27 C -0.116226 -3.503120 -0.613151 0
M  V30 28 C -1.412092 -3.773732 0.107119 0
M  V30 29 C -3.327748 -2.012247 -1.497749 0
M  V30 30 N -2.248035 -1.325070 -1.848335 0
M  V30 31 N -0.625961 1.204484 -0.326532 0
M  V30 32 N 0.077471 1.771281 0.640670 0
M  V30 33 C 1.402748 2.909619 2.842762 0
M  V30 34 C 2.334845 2.264318 3.843669 0
M  V30 35 H 6.430778 1.061449 3.196146 0
M  V30 36 H 5.209328 0.392337 2.024931 0
M  V30 37 H 5.771029 -0.573961 3.399493 0
M  V30 38 H 3.695240 0.224837 5.792146 0
M  V30 39 H 4.602861 -0.888355 4.761773 0
M  V30 40 H 2.954075 -0.476736 4.273038 0
M  V30 41 H 3.133089 1.016876 2.336901 0
M  V30 42 H 5.050246 2.416400 1.832245 0
M  V30 43 H 4.653919 3.579249 3.103487 0
M  V30 44 H 3.061159 4.604141 1.901852 0
M  V30 45 H 3.676676 3.664002 0.484514 0
M  V30 46 H 2.736330 2.783964 -1.088025 0
M  V30 47 H 1.390830 1.702655 -2.925284 0
M  V30 48 H -0.590556 0.535680 -3.564470 0
M  V30 49 H -5.535470 0.466813 -1.983304 0
M  V30 50 H -7.400551 -1.263747 -1.209726 0
M  V30 51 H -8.609090 -3.283808 -0.428536 0
M  V30 52 H -5.019165 -5.496830 -0.201518 0
M  V30 53 H -2.852336 -5.187771 -0.545199 0
M  V30 54 H -1.958696 -3.956846 -3.061420 0
M  V30 55 H -1.733441 -5.604661 -2.464876 0
M  V30 56 H 0.369197 -5.270463 -1.727399 0
M  V30 57 H 0.320997 -3.776716 -2.724082 0
M  V30 58 H 0.090220 -2.423561 -0.764687 0
M  V30 59 H 0.761440 -3.870151 -0.003772 0
M  V30 60 H -1.205355 -4.564873 0.869607 0
M  V30 61 H -1.746206 -2.879502 0.671491 0
M  V30 62 H 0.422971 2.367454 2.867382 0
M  V30 63 H 1.177199 3.948878 3.178898 0
M  V30 64 H 2.670643 3.033924 4.593499 0
M  V30 65 H 1.787300 1.480448 4.403745 0
M  V30 END ATOM
M  V30 BEGIN BOND
M  V30 1 1 1 2
M  V30 2 1 2 3
M  V30 3 1 2 4
M  V30 4 1 4 5
M  V30 5 1 5 6
M  V30 6 1 6 7
M  V30 7 1 7 8
M  V30 8 2 8 9
M  V30 9 1 9 10
M  V30 10 2 10 11
M  V30 11 1 11 12
M  V30 12 1 12 13
M  V30 13 2 13 14
M  V30 14 1 14 15
M  V30 15 2 15 16
M  V30 16 1 16 17
M  V30 17 2 17 18
M  V30 18 1 18 19
M  V30 19 2 19 20
M  V30 20 1 20 21
M  V30 21 2 21 22
M  V30 22 1 22 23
M  V30 23 1 23 24
M  V30 24 1 24 25
M  V30 25 1 25 26
M  V30 26 1 26 27
M  V30 27 1 27 28
M  V30 28 1 23 29
M  V30 29 2 29 30
M  V30 30 1 11 31
M  V30 31 2 31 32
M  V30 32 1 7 33
M  V30 33 1 33 34
M  V30 34 1 34 4
M  V30 35 1 32 8
M  V30 36 1 30 13
M  V30 37 1 29 16
M  V30 38 1 22 17
M  V30 39 1 28 24
M  V30 40 1 1 35
M  V30 41 1 1 36
M  V30 42 1 1 37
M  V30 43 1 3 38
M  V30 44 1 3 39
M  V30 45 1 3 40
M  V30 46 1 4 41
M  V30 47 1 5 42
M  V30 48 1 5 43
M  V30 49 1 6 44
M  V30 50 1 6 45
M  V30 51 1 9 46
M  V30 52 1 10 47
M  V30 53 1 12 48
M  V30 54 1 15 49
M  V30 55 1 18 50
M  V30 56 1 19 51
M  V30 57 1 21 52
M  V30 58 1 24 53
M  V30 59 1 25 54
M  V30 60 1 25 55
M  V30 61 1 26 56
M  V30 62 1 26 57
M  V30 63 1 27 58
M  V30 64 1 27 59
M  V30 65 1 28 60
M  V30 66 1 28 61
M  V30 67 1 33 62
M  V30 68 1 33 63
M  V30 69 1 34 64
M  V30 70 1 34 65
M  V30 END BOND
M  V30 END CTAB
M  END
>  <Dataset>  (476) 
ChEMBL_Kinases

>  <Ligand_Instance>  (476) 
nan

>  <PDB_ID>  (476) 
nan

>  <Standardized_SMILES>  (476) 
CN(C)C1CCN(c2ccc(Nc3ncc4c5ccncc5n(C5CCCC5)c4n3)nn2)CC1

>  <Name>  (476) 
nan

>  <Pocket>  (476) 
nan

>  <ATP_Site>  (476) 
nan

>  <Peripheral>  (476) 
nan

>  <Num_H_Atoms_ProtBoundConf>  (476) 
nan

>  <Num_Resolved_Atoms>  (476) 
nan

>  <Num_Not_Resolved_Atoms>  (476) 
nan

$$$$
CHEMBL3698641
     RDKit          3D

  0  0  0  0  0  0  0  0  0  0999 V3000
M  V30 BEGIN CTAB
M  V30 COUNTS 60 65 0 0 0
M  V30 BEGIN ATOM
M  V30 1 C -0.036790 -6.276942 0.044554 0
M  V30 2 C 0.058948 -4.815948 -0.204905 0
M  V30 3 C 0.808947 -4.051320 0.659146 0
M  V30 4 C 0.831262 -2.694875 0.330259 0
M  V30 5 N 1.582809 -1.830658 1.164680 0
M  V30 6 C 1.877789 -0.444796 1.251239 0
M  V30 7 N 2.956344 -0.106543 0.531370 0
M  V30 8 C 3.420193 1.151772 0.471097 0
M  V30 9 C 2.713134 2.110607 1.207434 0
M  V30 10 C 2.860666 3.485605 1.407983 0
M  V30 11 C 3.851465 4.267088 0.852405 0
M  V30 12 C 3.821392 5.605277 1.176591 0
M  V30 13 N 2.865687 6.135447 2.002249 0
M  V30 14 C 1.917961 5.300395 2.513591 0
M  V30 15 C 1.867330 3.949147 2.246001 0
M  V30 16 N 1.126208 2.869817 2.549733 0
M  V30 17 C -0.018252 3.008814 3.426136 0
M  V30 18 C -0.695357 1.632392 3.474698 0
M  V30 19 C -2.001310 2.012970 4.176941 0
M  V30 20 C -2.430304 3.207590 3.331136 0
M  V30 21 C -1.119198 3.857354 2.898412 0
M  V30 22 C 1.596186 1.761704 1.953281 0
M  V30 23 N 1.178663 0.467984 1.971385 0
M  V30 24 C 0.145155 -2.235478 -0.767868 0
M  V30 25 N -0.587416 -3.031236 -1.599025 0
M  V30 26 C -0.631297 -4.365714 -1.306868 0
M  V30 27 N -1.408314 -5.150345 -2.200443 0
M  V30 28 C -2.599638 -5.966964 -2.081617 0
M  V30 29 C -3.641887 -5.648623 -3.132688 0
M  V30 30 N -3.078195 -5.661217 -4.489740 0
M  V30 31 C -2.034967 -4.623089 -4.464128 0
M  V30 32 C -0.931232 -5.180293 -3.591302 0
M  V30 33 H 0.709932 -6.865825 -0.522899 0
M  V30 34 H 0.165378 -6.466835 1.117579 0
M  V30 35 H -1.077336 -6.651856 -0.142777 0
M  V30 36 H 1.306339 -4.506885 1.486799 0
M  V30 37 H 2.120471 -2.183612 1.985263 0
M  V30 38 H 4.270597 1.465239 -0.085312 0
M  V30 39 H 4.617350 3.874543 0.198031 0
M  V30 40 H 4.542983 6.320186 0.804552 0
M  V30 41 H 1.137454 5.685455 3.177931 0
M  V30 42 H 0.265438 3.306659 4.443946 0
M  V30 43 H -0.113302 0.888419 4.015812 0
M  V30 44 H -0.972105 1.380701 2.442317 0
M  V30 45 H -1.710574 2.300703 5.197469 0
M  V30 46 H -2.746018 1.218494 4.160795 0
M  V30 47 H -3.033345 3.852450 3.999676 0
M  V30 48 H -3.039206 2.853334 2.483782 0
M  V30 49 H -1.088347 4.841733 3.441015 0
M  V30 50 H -1.159719 3.977227 1.802484 0
M  V30 51 H 0.218409 -1.173084 -0.944689 0
M  V30 52 H -2.299516 -7.021354 -2.239205 0
M  V30 53 H -3.123894 -5.815956 -1.108141 0
M  V30 54 H -4.031453 -4.622332 -2.971867 0
M  V30 55 H -4.449919 -6.384552 -3.008828 0
M  V30 56 H -3.863069 -5.371377 -5.113921 0
M  V30 57 H -1.659322 -4.412741 -5.489246 0
M  V30 58 H -2.518112 -3.725941 -4.015430 0
M  V30 59 H -0.005947 -4.615826 -3.741070 0
M  V30 60 H -0.772476 -6.231852 -3.910935 0
M  V30 END ATOM
M  V30 BEGIN BOND
M  V30 1 1 1 2
M  V30 2 2 2 3
M  V30 3 1 3 4
M  V30 4 1 4 5
M  V30 5 1 5 6
M  V30 6 2 6 7
M  V30 7 1 7 8
M  V30 8 2 8 9
M  V30 9 1 9 10
M  V30 10 2 10 11
M  V30 11 1 11 12
M  V30 12 2 12 13
M  V30 13 1 13 14
M  V30 14 2 14 15
M  V30 15 1 15 16
M  V30 16 1 16 17
M  V30 17 1 17 18
M  V30 18 1 18 19
M  V30 19 1 19 20
M  V30 20 1 20 21
M  V30 21 1 16 22
M  V30 22 2 22 23
M  V30 23 2 4 24
M  V30 24 1 24 25
M  V30 25 2 25 26
M  V30 26 1 26 27
M  V30 27 1 27 28
M  V30 28 1 28 29
M  V30 29 1 29 30
M  V30 30 1 30 31
M  V30 31 1 31 32
M  V30 32 1 26 2
M  V30 33 1 32 27
M  V30 34 1 23 6
M  V30 35 1 22 9
M  V30 36 1 15 10
M  V30 37 1 21 17
M  V30 38 1 1 33
M  V30 39 1 1 34
M  V30 40 1 1 35
M  V30 41 1 3 36
M  V30 42 1 5 37
M  V30 43 1 8 38
M  V30 44 1 11 39
M  V30 45 1 12 40
M  V30 46 1 14 41
M  V30 47 1 17 42
M  V30 48 1 18 43
M  V30 49 1 18 44
M  V30 50 1 19 45
M  V30 51 1 19 46
M  V30 52 1 20 47
M  V30 53 1 20 48
M  V30 54 1 21 49
M  V30 55 1 21 50
M  V30 56 1 24 51
M  V30 57 1 28 52
M  V30 58 1 28 53
M  V30 59 1 29 54
M  V30 60 1 29 55
M  V30 61 1 30 56
M  V30 62 1 31 57
M  V30 63 1 31 58
M  V30 64 1 32 59
M  V30 65 1 32 60
M  V30 END BOND
M  V30 END CTAB
M  END
>  <Dataset>  (477) 
ChEMBL_Kinases

>  <Ligand_Instance>  (477) 
nan

>  <PDB_ID>  (477) 
nan

>  <Standardized_SMILES>  (477) 
Cc1cc(Nc2ncc3c4ccncc4n(C4CCCC4)c3n2)cnc1N1CCNCC1

>  <Name>  (477) 
nan

>  <Pocket>  (477) 
nan

>  <ATP_Site>  (477) 
nan

>  <Peripheral>  (477) 
nan

>  <Num_H_Atoms_ProtBoundConf>  (477) 
nan

>  <Num_Resolved_Atoms>  (477) 
nan

>  <Num_Not_Resolved_Atoms>  (477) 
nan

$$$$
CHEMBL3698645
     RDKit          3D

  0  0  0  0  0  0  0  0  0  0999 V3000
M  V30 BEGIN CTAB
M  V30 COUNTS 59 64 0 0 0
M  V30 BEGIN ATOM
M  V30 1 C 2.066621 -1.416688 7.187070 0
M  V30 2 C 2.190752 -1.038260 5.726152 0 CFG=1
M  V30 3 C 3.114282 -1.954797 4.953157 0
M  V30 4 N 2.337191 -2.489597 3.823482 0
M  V30 5 C 2.468144 -2.437865 2.395114 0
M  V30 6 C 1.962263 -1.244721 1.896026 0
M  V30 7 C 2.017867 -1.074493 0.514228 0
M  V30 8 C 2.544545 -2.038234 -0.299872 0
M  V30 9 N 2.573229 -1.868494 -1.733768 0
M  V30 10 C 2.017377 -0.647349 -2.210858 0
M  V30 11 N 2.533733 0.480249 -2.772700 0
M  V30 12 C 1.683250 1.478261 -3.088745 0
M  V30 13 C 0.325543 1.404824 -2.868169 0
M  V30 14 C -0.676873 2.318505 -3.117594 0
M  V30 15 C -0.746159 3.587024 -3.652022 0
M  V30 16 C -1.984078 4.210441 -3.737358 0
M  V30 17 N -3.068517 3.557738 -3.296684 0
M  V30 18 C -3.000630 2.315331 -2.772951 0
M  V30 19 C -1.798489 1.657448 -2.668045 0
M  V30 20 N -1.550519 0.436937 -2.177238 0
M  V30 21 C -2.317189 -0.612970 -1.599895 0
M  V30 22 C -3.789478 -0.587905 -1.816825 0
M  V30 23 C -4.143676 -2.045595 -1.410968 0
M  V30 24 C -3.054177 -2.862177 -2.072026 0
M  V30 25 C -1.921951 -1.913230 -2.311220 0
M  V30 26 C -0.199625 0.248037 -2.292264 0
M  V30 27 N 0.703155 -0.698320 -2.006678 0
M  V30 28 N 3.034563 -3.201514 0.236350 0
M  V30 29 N 2.971414 -3.340211 1.545762 0
M  V30 30 C 1.176411 -3.205464 4.383584 0
M  V30 31 C 0.220188 -2.092012 4.775764 0
M  V30 32 N 0.881399 -0.907604 5.192123 0
M  V30 33 H 1.761972 -2.452152 7.341851 0
M  V30 34 H 1.254429 -0.760684 7.599889 0
M  V30 35 H 2.985533 -1.200273 7.755012 0
M  V30 36 H 2.684339 -0.042161 5.710834 0
M  V30 37 H 4.027116 -1.459100 4.585255 0
M  V30 38 H 3.353337 -2.812601 5.613929 0
M  V30 39 H 1.523769 -0.422766 2.463216 0
M  V30 40 H 1.633124 -0.148548 0.087686 0
M  V30 41 H 2.975872 -2.599646 -2.352331 0
M  V30 42 H 2.144783 2.345136 -3.531078 0
M  V30 43 H 0.168063 4.079824 -3.999603 0
M  V30 44 H -1.997834 5.207692 -4.164549 0
M  V30 45 H -3.924001 1.876145 -2.442398 0
M  V30 46 H -2.067585 -0.794779 -0.526345 0
M  V30 47 H -4.038360 -0.430078 -2.868184 0
M  V30 48 H -4.380943 0.008150 -1.113239 0
M  V30 49 H -5.156728 -2.316551 -1.679237 0
M  V30 50 H -3.980572 -2.133633 -0.318796 0
M  V30 51 H -3.469155 -3.269798 -3.038512 0
M  V30 52 H -2.673116 -3.685737 -1.433937 0
M  V30 53 H -1.878655 -1.653739 -3.387232 0
M  V30 54 H -0.958476 -2.319141 -1.936599 0
M  V30 55 H 1.460220 -3.854777 5.208436 0
M  V30 56 H 0.783042 -3.846297 3.582351 0
M  V30 57 H -0.435732 -2.483099 5.559549 0
M  V30 58 H -0.317244 -1.836727 3.817371 0
M  V30 59 H 0.621104 -0.026890 4.753277 0
M  V30 END ATOM
M  V30 BEGIN BOND
M  V30 1 1 1 2
M  V30 2 1 2 3
M  V30 3 1 3 4
M  V30 4 1 4 5
M  V30 5 2 5 6
M  V30 6 1 6 7
M  V30 7 2 7 8
M  V30 8 1 8 9
M  V30 9 1 9 10
M  V30 10 2 10 11
M  V30 11 1 11 12
M  V30 12 2 12 13
M  V30 13 1 13 14
M  V30 14 2 14 15
M  V30 15 1 15 16
M  V30 16 2 16 17
M  V30 17 1 17 18
M  V30 18 2 18 19
M  V30 19 1 19 20
M  V30 20 1 20 21
M  V30 21 1 21 22
M  V30 22 1 22 23
M  V30 23 1 23 24
M  V30 24 1 24 25
M  V30 25 1 20 26
M  V30 26 2 26 27
M  V30 27 1 8 28
M  V30 28 2 28 29
M  V30 29 1 4 30
M  V30 30 1 30 31
M  V30 31 1 31 32
M  V30 32 1 32 2
M  V30 33 1 29 5
M  V30 34 1 27 10
M  V30 35 1 26 13
M  V30 36 1 19 14
M  V30 37 1 25 21
M  V30 38 1 1 33
M  V30 39 1 1 34
M  V30 40 1 1 35
M  V30 41 1 2 36 CFG=1
M  V30 42 1 3 37
M  V30 43 1 3 38
M  V30 44 1 6 39
M  V30 45 1 7 40
M  V30 46 1 9 41
M  V30 47 1 12 42
M  V30 48 1 15 43
M  V30 49 1 16 44
M  V30 50 1 18 45
M  V30 51 1 21 46
M  V30 52 1 22 47
M  V30 53 1 22 48
M  V30 54 1 23 49
M  V30 55 1 23 50
M  V30 56 1 24 51
M  V30 57 1 24 52
M  V30 58 1 25 53
M  V30 59 1 25 54
M  V30 60 1 30 55
M  V30 61 1 30 56
M  V30 62 1 31 57
M  V30 63 1 31 58
M  V30 64 1 32 59
M  V30 END BOND
M  V30 END CTAB
M  END
>  <Dataset>  (478) 
ChEMBL_Kinases

>  <Ligand_Instance>  (478) 
nan

>  <PDB_ID>  (478) 
nan

>  <Standardized_SMILES>  (478) 
C[C@H]1CN(c2ccc(Nc3ncc4c5ccncc5n(C5CCCC5)c4n3)nn2)CCN1

>  <Name>  (478) 
nan

>  <Pocket>  (478) 
nan

>  <ATP_Site>  (478) 
nan

>  <Peripheral>  (478) 
nan

>  <Num_H_Atoms_ProtBoundConf>  (478) 
nan

>  <Num_Resolved_Atoms>  (478) 
nan

>  <Num_Not_Resolved_Atoms>  (478) 
nan

$$$$
CHEMBL2385600
     RDKit          3D

  0  0  0  0  0  0  0  0  0  0999 V3000
M  V30 BEGIN CTAB
M  V30 COUNTS 35 38 0 0 0
M  V30 BEGIN ATOM
M  V30 1 C 0.985337 -6.772715 3.100541 0
M  V30 2 O 0.984031 -5.454767 3.645087 0
M  V30 3 C 0.761448 -4.335211 2.837405 0
M  V30 4 C 0.528772 -4.393344 1.478491 0
M  V30 5 C 0.319698 -3.229809 0.766616 0
M  V30 6 C 0.352648 -2.034848 1.456178 0
M  V30 7 C 0.134930 -0.778743 0.734490 0
M  V30 8 C 0.777447 0.374887 1.195064 0
M  V30 9 N 0.536728 1.516061 0.482308 0
M  V30 10 C -0.276651 1.467878 -0.585615 0
M  V30 11 C -0.614973 2.549198 -1.407988 0
M  V30 12 C -0.162239 3.948043 -1.284826 0
M  V30 13 C 1.055977 4.562538 -1.052746 0
M  V30 14 N 0.789538 5.901372 -1.057137 0
M  V30 15 N -0.476060 6.122337 -1.271210 0
M  V30 16 C -1.131761 4.949193 -1.422633 0
M  V30 17 C -1.466269 2.037853 -2.367434 0
M  V30 18 N -1.621785 0.723632 -2.123524 0
M  V30 19 N -0.913087 0.372288 -1.057992 0
M  V30 20 C -0.693500 -0.776647 -0.370745 0
M  V30 21 C 0.588029 -1.967838 2.834355 0
M  V30 22 C 0.798386 -3.139106 3.550273 0
M  V30 23 H 1.979767 -6.920177 2.618850 0
M  V30 24 H 0.185437 -6.889431 2.334748 0
M  V30 25 H 0.822442 -7.476218 3.927773 0
M  V30 26 H 0.515755 -5.354368 1.001356 0
M  V30 27 H 0.143455 -3.312685 -0.278789 0
M  V30 28 H 1.427496 0.400337 2.053041 0
M  V30 29 H 1.927424 3.945792 -0.919912 0
M  V30 30 H -0.671677 7.158846 -1.272768 0
M  V30 31 H -2.199925 5.027095 -1.606682 0
M  V30 32 H -1.896339 2.658385 -3.153929 0
M  V30 33 H -1.184992 -1.658898 -0.723227 0
M  V30 34 H 0.609739 -1.016483 3.357536 0
M  V30 35 H 0.978940 -3.075902 4.612337 0
M  V30 END ATOM
M  V30 BEGIN BOND
M  V30 1 1 1 2
M  V30 2 1 2 3
M  V30 3 2 3 4
M  V30 4 1 4 5
M  V30 5 2 5 6
M  V30 6 1 6 7
M  V30 7 1 7 8
M  V30 8 2 8 9
M  V30 9 1 9 10
M  V30 10 2 10 11
M  V30 11 1 11 12
M  V30 12 1 12 13
M  V30 13 2 13 14
M  V30 14 1 14 15
M  V30 15 1 15 16
M  V30 16 1 11 17
M  V30 17 2 17 18
M  V30 18 1 18 19
M  V30 19 1 19 20
M  V30 20 1 6 21
M  V30 21 2 21 22
M  V30 22 1 22 3
M  V30 23 2 20 7
M  V30 24 1 19 10
M  V30 25 2 16 12
M  V30 26 1 1 23
M  V30 27 1 1 24
M  V30 28 1 1 25
M  V30 29 1 4 26
M  V30 30 1 5 27
M  V30 31 1 8 28
M  V30 32 1 13 29
M  V30 33 1 15 30
M  V30 34 1 16 31
M  V30 35 1 17 32
M  V30 36 1 20 33
M  V30 37 1 21 34
M  V30 38 1 22 35
M  V30 END BOND
M  V30 END CTAB
M  END
>  <Dataset>  (479) 
ChEMBL_Kinases

>  <Ligand_Instance>  (479) 
nan

>  <PDB_ID>  (479) 
nan

>  <Standardized_SMILES>  (479) 
COc1ccc(-c2cnc3c(-c4cn[nH]c4)cnn3c2)cc1

>  <Name>  (479) 
nan

>  <Pocket>  (479) 
nan

>  <ATP_Site>  (479) 
nan

>  <Peripheral>  (479) 
nan

>  <Num_H_Atoms_ProtBoundConf>  (479) 
nan

>  <Num_Resolved_Atoms>  (479) 
nan

>  <Num_Not_Resolved_Atoms>  (479) 
nan

$$$$
CHEMBL4462126
     RDKit          3D

  0  0  0  0  0  0  0  0  0  0999 V3000
M  V30 BEGIN CTAB
M  V30 COUNTS 60 63 0 0 0
M  V30 BEGIN ATOM
M  V30 1 C 1.726210 -1.786314 3.551561 0
M  V30 2 C 2.696877 -1.625749 2.400256 0
M  V30 3 C 4.108613 -1.434792 2.889714 0
M  V30 4 C 4.720840 -2.532901 3.728923 0
M  V30 5 C 4.426951 -1.186875 4.307051 0
M  V30 6 N 2.328381 -0.522177 1.534975 0
M  V30 7 C 3.018955 0.653894 1.449158 0
M  V30 8 N 2.361687 1.427174 0.534682 0
M  V30 9 C 1.312570 0.701114 0.106874 0
M  V30 10 C 0.347016 1.036169 -0.814652 0
M  V30 11 N 0.254091 2.257183 -1.532370 0
M  V30 12 C -0.707766 2.710974 -2.512075 0
M  V30 13 C -2.097088 2.789790 -1.988007 0
M  V30 14 C -2.366590 4.026328 -1.390297 0
M  V30 15 C -3.591606 4.326595 -0.840995 0
M  V30 16 C -4.609530 3.397149 -0.865026 0
M  V30 17 C -4.333999 2.183972 -1.455484 0
M  V30 18 C -5.389889 1.136506 -1.514919 0
M  V30 19 F -6.447434 1.417036 -0.697622 0
M  V30 20 F -5.894447 1.039692 -2.802583 0
M  V30 21 F -4.894947 -0.100323 -1.133383 0
M  V30 22 C -3.117041 1.867187 -2.008679 0
M  V30 23 N -0.596803 0.127185 -1.064821 0
M  V30 24 C -0.674548 -1.082772 -0.488083 0
M  V30 25 N -1.687759 -2.029606 -0.770886 0
M  V30 26 C -2.026766 -3.347635 -0.345581 0
M  V30 27 C -0.980469 -4.401280 -0.624798 0
M  V30 28 N 0.262562 -4.105989 0.101628 0
M  V30 29 C 1.196250 -5.158892 -0.361958 0
M  V30 30 C 0.008375 -4.387094 1.539764 0
M  V30 31 N 0.278206 -1.379544 0.403486 0
M  V30 32 C 1.254601 -0.531497 0.710848 0
M  V30 33 H 1.770621 -0.907472 4.250169 0
M  V30 34 H 0.699675 -1.781443 3.134897 0
M  V30 35 H 1.954518 -2.723282 4.077773 0
M  V30 36 H 2.651570 -2.545967 1.801668 0
M  V30 37 H 4.795238 -0.993586 2.131073 0
M  V30 38 H 5.793361 -2.782605 3.570688 0
M  V30 39 H 4.123831 -3.372385 4.090992 0
M  V30 40 H 3.662459 -1.140553 5.103692 0
M  V30 41 H 5.306766 -0.534992 4.521750 0
M  V30 42 H 3.911603 0.904001 2.006727 0
M  V30 43 H 1.050917 2.912842 -1.265879 0
M  V30 44 H -0.366605 3.664551 -2.927990 0
M  V30 45 H -0.659995 1.928397 -3.332898 0
M  V30 46 H -1.657733 4.840314 -1.305867 0
M  V30 47 H -3.827088 5.272363 -0.373304 0
M  V30 48 H -5.579994 3.607102 -0.441234 0
M  V30 49 H -2.833857 0.944473 -2.487294 0
M  V30 50 H -2.370128 -1.638567 -1.497626 0
M  V30 51 H -2.123404 -3.337842 0.772607 0
M  V30 52 H -3.001087 -3.661750 -0.785903 0
M  V30 53 H -1.396749 -5.372302 -0.288575 0
M  V30 54 H -0.773991 -4.448938 -1.708952 0
M  V30 55 H 2.204983 -5.008365 0.043677 0
M  V30 56 H 1.196956 -5.140848 -1.468458 0
M  V30 57 H 0.753285 -6.123874 -0.007712 0
M  V30 58 H -0.510853 -3.528764 2.003631 0
M  V30 59 H 0.961037 -4.570919 2.047582 0
M  V30 60 H -0.664161 -5.289058 1.552938 0
M  V30 END ATOM
M  V30 BEGIN BOND
M  V30 1 1 1 2
M  V30 2 1 2 3
M  V30 3 1 3 4
M  V30 4 1 4 5
M  V30 5 1 2 6
M  V30 6 1 6 7
M  V30 7 2 7 8
M  V30 8 1 8 9
M  V30 9 2 9 10
M  V30 10 1 10 11
M  V30 11 1 11 12
M  V30 12 1 12 13
M  V30 13 2 13 14
M  V30 14 1 14 15
M  V30 15 2 15 16
M  V30 16 1 16 17
M  V30 17 1 17 18
M  V30 18 1 18 19
M  V30 19 1 18 20
M  V30 20 1 18 21
M  V30 21 2 17 22
M  V30 22 1 10 23
M  V30 23 2 23 24
M  V30 24 1 24 25
M  V30 25 1 25 26
M  V30 26 1 26 27
M  V30 27 1 27 28
M  V30 28 1 28 29
M  V30 29 1 28 30
M  V30 30 1 24 31
M  V30 31 2 31 32
M  V30 32 1 5 3
M  V30 33 1 32 6
M  V30 34 1 32 9
M  V30 35 1 22 13
M  V30 36 1 1 33
M  V30 37 1 1 34
M  V30 38 1 1 35
M  V30 39 1 2 36
M  V30 40 1 3 37
M  V30 41 1 4 38
M  V30 42 1 4 39
M  V30 43 1 5 40
M  V30 44 1 5 41
M  V30 45 1 7 42
M  V30 46 1 11 43
M  V30 47 1 12 44
M  V30 48 1 12 45
M  V30 49 1 14 46
M  V30 50 1 15 47
M  V30 51 1 16 48
M  V30 52 1 22 49
M  V30 53 1 25 50
M  V30 54 1 26 51
M  V30 55 1 26 52
M  V30 56 1 27 53
M  V30 57 1 27 54
M  V30 58 1 29 55
M  V30 59 1 29 56
M  V30 60 1 29 57
M  V30 61 1 30 58
M  V30 62 1 30 59
M  V30 63 1 30 60
M  V30 END BOND
M  V30 END CTAB
M  END
>  <Dataset>  (480) 
ChEMBL_Kinases

>  <Ligand_Instance>  (480) 
nan

>  <PDB_ID>  (480) 
nan

>  <Standardized_SMILES>  (480) 
CC(C1CC1)n1cnc2c(NCc3cccc(C(F)(F)F)c3)nc(NCCN(C)C)nc21

>  <Name>  (480) 
nan

>  <Pocket>  (480) 
nan

>  <ATP_Site>  (480) 
nan

>  <Peripheral>  (480) 
nan

>  <Num_H_Atoms_ProtBoundConf>  (480) 
nan

>  <Num_Resolved_Atoms>  (480) 
nan

>  <Num_Not_Resolved_Atoms>  (480) 
nan

$$$$
CHEMBL3698644
     RDKit          3D

  0  0  0  0  0  0  0  0  0  0999 V3000
M  V30 BEGIN CTAB
M  V30 COUNTS 56 61 0 0 0
M  V30 BEGIN ATOM
M  V30 1 C -2.137179 -6.602114 3.667606 0
M  V30 2 C -1.143777 -5.687264 3.863881 0
M  V30 3 C -0.720016 -4.904000 2.817370 0
M  V30 4 C 0.238216 -3.921888 2.692038 0
M  V30 5 C 1.120600 -3.387499 3.625766 0
M  V30 6 N 1.997531 -2.429619 3.310831 0
M  V30 7 C 2.020093 -1.971856 2.046036 0
M  V30 8 N 2.946122 -0.972571 1.686605 0
M  V30 9 C 2.562933 0.203098 0.991624 0
M  V30 10 C 1.206286 0.423886 0.914706 0
M  V30 11 N 0.666296 1.495249 0.303713 0
M  V30 12 C 1.451957 2.428995 -0.278106 0
M  V30 13 N 0.839288 3.550414 -0.897115 0
M  V30 14 C 1.416228 4.682034 -1.590419 0
M  V30 15 C 1.049601 5.932660 -0.847517 0
M  V30 16 N -0.326953 6.037758 -0.478899 0
M  V30 17 C -0.884832 4.840727 0.066777 0
M  V30 18 C -0.606007 3.683193 -0.882506 0
M  V30 19 N 2.777384 2.240483 -0.220730 0
M  V30 20 C 3.331739 1.176937 0.385107 0
M  V30 21 N 1.178759 -2.480117 1.155202 0
M  V30 22 C 0.262652 -3.451945 1.397688 0
M  V30 23 N -0.685427 -4.126741 0.662916 0
M  V30 24 C -0.910550 -3.879276 -0.688147 0
M  V30 25 C -2.102341 -4.097666 -1.429842 0
M  V30 26 C -2.883989 -2.783049 -1.238960 0
M  V30 27 C -1.770755 -1.865799 -1.785483 0
M  V30 28 C -0.627899 -2.374639 -0.918854 0
M  V30 29 C -1.241310 -4.973462 1.535762 0
M  V30 30 C -2.236776 -5.921902 1.428543 0
M  V30 31 N -2.688494 -6.715157 2.422630 0
M  V30 32 H -2.432019 -7.191547 4.526365 0
M  V30 33 H -0.657703 -5.534287 4.806799 0
M  V30 34 H 1.076596 -3.769419 4.615683 0
M  V30 35 H 3.995847 -0.846399 1.849521 0
M  V30 36 H 0.469508 -0.232384 1.334891 0
M  V30 37 H 2.523665 4.625084 -1.634447 0
M  V30 38 H 1.000166 4.743771 -2.620489 0
M  V30 39 H 1.262559 6.803580 -1.537675 0
M  V30 40 H 1.767022 6.100283 0.003695 0
M  V30 41 H -0.362808 6.775028 0.289381 0
M  V30 42 H -1.971898 4.978496 0.229319 0
M  V30 43 H -0.465362 4.547213 1.062763 0
M  V30 44 H -1.004506 3.940265 -1.885384 0
M  V30 45 H -1.046342 2.737262 -0.502085 0
M  V30 46 H 4.406511 0.985115 0.452497 0
M  V30 47 H -0.055723 -4.389339 -1.248395 0
M  V30 48 H -2.691239 -4.983986 -1.466149 0
M  V30 49 H -1.823512 -3.977386 -2.544532 0
M  V30 50 H -2.995162 -2.501730 -0.191419 0
M  V30 51 H -3.793323 -2.741501 -1.846894 0
M  V30 52 H -1.973713 -0.807031 -1.609636 0
M  V30 53 H -1.553948 -2.123328 -2.831186 0
M  V30 54 H 0.329665 -2.195811 -1.382467 0
M  V30 55 H -0.766958 -1.826140 0.055503 0
M  V30 56 H -2.713197 -6.070544 0.478963 0
M  V30 END ATOM
M  V30 BEGIN BOND
M  V30 1 2 1 2
M  V30 2 1 2 3
M  V30 3 1 3 4
M  V30 4 2 4 5
M  V30 5 1 5 6
M  V30 6 2 6 7
M  V30 7 1 7 8
M  V30 8 1 8 9
M  V30 9 2 9 10
M  V30 10 1 10 11
M  V30 11 2 11 12
M  V30 12 1 12 13
M  V30 13 1 13 14
M  V30 14 1 14 15
M  V30 15 1 15 16
M  V30 16 1 16 17
M  V30 17 1 17 18
M  V30 18 1 12 19
M  V30 19 2 19 20
M  V30 20 1 7 21
M  V30 21 2 21 22
M  V30 22 1 22 23
M  V30 23 1 23 24
M  V30 24 1 24 25
M  V30 25 1 25 26
M  V30 26 1 26 27
M  V30 27 1 27 28
M  V30 28 1 23 29
M  V30 29 1 29 30
M  V30 30 2 30 31
M  V30 31 1 31 1
M  V30 32 2 29 3
M  V30 33 1 22 4
M  V30 34 1 28 24
M  V30 35 1 20 9
M  V30 36 1 18 13
M  V30 37 1 1 32
M  V30 38 1 2 33
M  V30 39 1 5 34
M  V30 40 1 8 35
M  V30 41 1 10 36
M  V30 42 1 14 37
M  V30 43 1 14 38
M  V30 44 1 15 39
M  V30 45 1 15 40
M  V30 46 1 16 41
M  V30 47 1 17 42
M  V30 48 1 17 43
M  V30 49 1 18 44
M  V30 50 1 18 45
M  V30 51 1 20 46
M  V30 52 1 24 47
M  V30 53 1 25 48
M  V30 54 1 25 49
M  V30 55 1 26 50
M  V30 56 1 26 51
M  V30 57 1 27 52
M  V30 58 1 27 53
M  V30 59 1 28 54
M  V30 60 1 28 55
M  V30 61 1 30 56
M  V30 END BOND
M  V30 END CTAB
M  END
>  <Dataset>  (481) 
ChEMBL_Kinases

>  <Ligand_Instance>  (481) 
nan

>  <PDB_ID>  (481) 
nan

>  <Standardized_SMILES>  (481) 
c1cc2c3cnc(Nc4cnc(N5CCNCC5)nc4)nc3n(C3CCCC3)c2cn1

>  <Name>  (481) 
nan

>  <Pocket>  (481) 
nan

>  <ATP_Site>  (481) 
nan

>  <Peripheral>  (481) 
nan

>  <Num_H_Atoms_ProtBoundConf>  (481) 
nan

>  <Num_Resolved_Atoms>  (481) 
nan

>  <Num_Not_Resolved_Atoms>  (481) 
nan

$$$$
CHEMBL4462099
     RDKit          3D

  0  0  0  0  0  0  0  0  0  0999 V3000
M  V30 BEGIN CTAB
M  V30 COUNTS 49 52 0 0 0
M  V30 BEGIN ATOM
M  V30 1 C -2.086223 -4.725643 -2.312145 0
M  V30 2 C -0.661313 -4.465012 -1.875663 0
M  V30 3 C 0.226504 -5.465272 -2.606582 0
M  V30 4 O -0.473704 -4.623712 -0.502394 0
M  V30 5 C -0.033439 -3.606933 0.323603 0
M  V30 6 C 0.316473 -2.299293 0.107444 0
M  V30 7 C 0.730227 -1.496362 1.150587 0
M  V30 8 C 1.070341 -0.124925 0.764604 0
M  V30 9 C 1.603473 0.104501 -0.499263 0
M  V30 10 N 1.881264 1.394437 -0.755364 0
M  V30 11 C 1.661075 2.376015 0.136837 0
M  V30 12 C 1.135256 2.156781 1.385861 0
M  V30 13 C 0.882451 3.195631 2.379447 0
M  V30 14 C 1.222380 3.077918 3.719337 0
M  V30 15 N 0.847608 4.215477 4.347870 0
M  V30 16 N 0.293439 5.030068 3.465003 0
M  V30 17 C 0.291996 4.452128 2.250687 0
M  V30 18 C -0.224513 4.987334 0.958530 0
M  V30 19 C -1.637827 4.721418 0.573078 0
M  V30 20 C -1.361782 6.043802 1.139718 0
M  V30 21 C 0.830615 0.849180 1.703446 0
M  V30 22 C 0.812788 -1.959467 2.447907 0
M  V30 23 C 0.463410 -3.274576 2.680408 0
M  V30 24 C 0.041342 -4.103082 1.632489 0
M  V30 25 C -0.276599 -5.446494 2.100873 0
M  V30 26 N -0.722426 -6.435423 1.184604 0
M  V30 27 O -0.213607 -5.900936 3.274415 0
M  V30 28 H -2.829658 -4.339848 -1.600197 0
M  V30 29 H -2.292066 -4.225580 -3.286150 0
M  V30 30 H -2.278561 -5.807734 -2.490408 0
M  V30 31 H -0.431303 -3.437511 -2.216383 0
M  V30 32 H 1.235723 -5.008862 -2.783787 0
M  V30 33 H -0.262156 -5.693381 -3.566157 0
M  V30 34 H 0.304382 -6.355898 -1.953390 0
M  V30 35 H 0.219894 -2.031295 -0.932390 0
M  V30 36 H 1.763867 -0.713620 -1.185002 0
M  V30 37 H 1.908847 3.382172 -0.140920 0
M  V30 38 H 1.709764 2.208722 4.176750 0
M  V30 39 H 0.975358 4.419179 5.368180 0
M  V30 40 H 0.541252 5.317765 0.235025 0
M  V30 41 H -2.117371 3.901973 1.158107 0
M  V30 42 H -1.852993 4.626886 -0.506934 0
M  V30 43 H -1.632860 6.305122 2.179697 0
M  V30 44 H -1.379469 6.884852 0.422473 0
M  V30 45 H 0.414375 0.604123 2.667536 0
M  V30 46 H 1.144535 -1.283295 3.227316 0
M  V30 47 H 0.548838 -3.577142 3.714661 0
M  V30 48 H -0.294787 -7.390970 1.171662 0
M  V30 49 H -1.421919 -6.570671 0.410571 0
M  V30 END ATOM
M  V30 BEGIN BOND
M  V30 1 1 1 2
M  V30 2 1 2 3
M  V30 3 1 2 4
M  V30 4 1 4 5
M  V30 5 2 5 6
M  V30 6 1 6 7
M  V30 7 1 7 8
M  V30 8 2 8 9
M  V30 9 1 9 10
M  V30 10 2 10 11
M  V30 11 1 11 12
M  V30 12 1 12 13
M  V30 13 2 13 14
M  V30 14 1 14 15
M  V30 15 1 15 16
M  V30 16 2 16 17
M  V30 17 1 17 18
M  V30 18 1 18 19
M  V30 19 1 19 20
M  V30 20 2 12 21
M  V30 21 2 7 22
M  V30 22 1 22 23
M  V30 23 2 23 24
M  V30 24 1 24 25
M  V30 25 1 25 26
M  V30 26 2 25 27
M  V30 27 1 24 5
M  V30 28 1 21 8
M  V30 29 1 17 13
M  V30 30 1 20 18
M  V30 31 1 1 28
M  V30 32 1 1 29
M  V30 33 1 1 30
M  V30 34 1 2 31
M  V30 35 1 3 32
M  V30 36 1 3 33
M  V30 37 1 3 34
M  V30 38 1 6 35
M  V30 39 1 9 36
M  V30 40 1 11 37
M  V30 41 1 14 38
M  V30 42 1 15 39
M  V30 43 1 18 40
M  V30 44 1 19 41
M  V30 45 1 19 42
M  V30 46 1 20 43
M  V30 47 1 20 44
M  V30 48 1 21 45
M  V30 49 1 22 46
M  V30 50 1 23 47
M  V30 51 1 26 48
M  V30 52 1 26 49
M  V30 END BOND
M  V30 END CTAB
M  END
>  <Dataset>  (482) 
ChEMBL_Kinases

>  <Ligand_Instance>  (482) 
nan

>  <PDB_ID>  (482) 
nan

>  <Standardized_SMILES>  (482) 
CC(C)Oc1cc(-c2cncc(-c3c[nH]nc3C3CC3)c2)ccc1C(N)=O

>  <Name>  (482) 
nan

>  <Pocket>  (482) 
nan

>  <ATP_Site>  (482) 
nan

>  <Peripheral>  (482) 
nan

>  <Num_H_Atoms_ProtBoundConf>  (482) 
nan

>  <Num_Resolved_Atoms>  (482) 
nan

>  <Num_Not_Resolved_Atoms>  (482) 
nan

$$$$
CHEMBL4461850
     RDKit          3D

  0  0  0  0  0  0  0  0  0  0999 V3000
M  V30 BEGIN CTAB
M  V30 COUNTS 62 66 0 0 0
M  V30 BEGIN ATOM
M  V30 1 F -1.879969 -2.598979 6.519088 0
M  V30 2 C -1.355548 -1.904413 5.488722 0
M  V30 3 C -1.407330 -2.467930 4.212925 0
M  V30 4 C -0.890763 -1.807382 3.121142 0
M  V30 5 C -0.316523 -0.580424 3.282602 0
M  V30 6 C 0.296508 0.289220 2.252933 0
M  V30 7 N 1.552108 0.731899 2.207940 0
M  V30 8 C 1.962631 1.456064 1.313252 0
M  V30 9 C 3.261700 2.073419 0.971430 0
M  V30 10 C 3.455423 3.431220 1.571318 0
M  V30 11 C 3.336351 4.553387 0.577753 0
M  V30 12 N 2.356428 4.325284 -0.433183 0
M  V30 13 C 2.694470 3.188078 -1.221322 0
M  V30 14 C 3.530122 2.150380 -0.509921 0
M  V30 15 S 0.444144 1.669472 0.230809 0
M  V30 16 C -0.615164 0.614590 1.302367 0
M  V30 17 C -1.977165 0.428480 0.887728 0
M  V30 18 C -3.070181 0.858773 1.581733 0
M  V30 19 C -4.265414 0.549125 0.973678 0
M  V30 20 N -4.421071 -0.107267 -0.186523 0
M  V30 21 C -3.309152 -0.520799 -0.850483 0
M  V30 22 N -3.256730 -1.235499 -2.095462 0
M  V30 23 C -3.176769 -2.695038 -2.230220 0
M  V30 24 C -1.911384 -3.091922 -1.499041 0
M  V30 25 N -1.627687 -4.478575 -1.507718 0
M  V30 26 C -1.272165 -5.062138 -2.739627 0
M  V30 27 C 0.168875 -4.877352 -3.150417 0
M  V30 28 S 1.250234 -5.417643 -1.795776 0
M  V30 29 C 0.449352 -4.933878 -0.242464 0
M  V30 30 C -1.050586 -5.012891 -0.330157 0
M  V30 31 N -2.088990 -0.244184 -0.297996 0
M  V30 32 C -0.252004 0.006474 4.550391 0
M  V30 33 C -0.769344 -0.646496 5.667155 0
M  V30 34 H -1.841376 -3.429477 3.990485 0
M  V30 35 H -0.886729 -2.165929 2.095574 0
M  V30 36 H 4.038536 1.403085 1.419659 0
M  V30 37 H 2.838887 3.585422 2.488100 0
M  V30 38 H 4.516109 3.476625 1.962377 0
M  V30 39 H 3.102026 5.521941 1.096472 0
M  V30 40 H 4.317259 4.698608 0.055036 0
M  V30 41 H 1.377176 4.464555 -0.183386 0
M  V30 42 H 1.791891 2.697933 -1.662680 0
M  V30 43 H 3.321652 3.562140 -2.087281 0
M  V30 44 H 4.617203 2.439426 -0.608555 0
M  V30 45 H 3.390740 1.139215 -0.973525 0
M  V30 46 H -2.939206 1.374831 2.496947 0
M  V30 47 H -5.190469 0.868979 1.482949 0
M  V30 48 H -3.296171 -0.406275 -2.716805 0
M  V30 49 H -3.063999 -2.861681 -3.328252 0
M  V30 50 H -4.083947 -3.204983 -1.872067 0
M  V30 51 H -1.083233 -2.510512 -1.948589 0
M  V30 52 H -2.098375 -2.814414 -0.418489 0
M  V30 53 H -1.884029 -4.606889 -3.540832 0
M  V30 54 H -1.494712 -6.145041 -2.726837 0
M  V30 55 H 0.421903 -3.835632 -3.403943 0
M  V30 56 H 0.349444 -5.592169 -4.003519 0
M  V30 57 H 0.745301 -3.891172 -0.014910 0
M  V30 58 H 0.782400 -5.559474 0.615267 0
M  V30 59 H -1.452681 -4.401016 0.524094 0
M  V30 60 H -1.402859 -6.061136 -0.127991 0
M  V30 61 H 0.188897 0.986729 4.779930 0
M  V30 62 H -0.727225 -0.198986 6.671820 0
M  V30 END ATOM
M  V30 BEGIN BOND
M  V30 1 1 1 2
M  V30 2 2 2 3
M  V30 3 1 3 4
M  V30 4 2 4 5
M  V30 5 1 5 6
M  V30 6 1 6 7
M  V30 7 2 7 8
M  V30 8 1 8 9
M  V30 9 1 9 10
M  V30 10 1 10 11
M  V30 11 1 11 12
M  V30 12 1 12 13
M  V30 13 1 13 14
M  V30 14 1 8 15
M  V30 15 1 15 16
M  V30 16 1 16 17
M  V30 17 2 17 18
M  V30 18 1 18 19
M  V30 19 2 19 20
M  V30 20 1 20 21
M  V30 21 1 21 22
M  V30 22 1 22 23
M  V30 23 1 23 24
M  V30 24 1 24 25
M  V30 25 1 25 26
M  V30 26 1 26 27
M  V30 27 1 27 28
M  V30 28 1 28 29
M  V30 29 1 29 30
M  V30 30 2 21 31
M  V30 31 1 5 32
M  V30 32 2 32 33
M  V30 33 1 33 2
M  V30 34 2 16 6
M  V30 35 1 31 17
M  V30 36 1 14 9
M  V30 37 1 30 25
M  V30 38 1 3 34
M  V30 39 1 4 35
M  V30 40 1 9 36
M  V30 41 1 10 37
M  V30 42 1 10 38
M  V30 43 1 11 39
M  V30 44 1 11 40
M  V30 45 1 12 41
M  V30 46 1 13 42
M  V30 47 1 13 43
M  V30 48 1 14 44
M  V30 49 1 14 45
M  V30 50 1 18 46
M  V30 51 1 19 47
M  V30 52 1 22 48
M  V30 53 1 23 49
M  V30 54 1 23 50
M  V30 55 1 24 51
M  V30 56 1 24 52
M  V30 57 1 26 53
M  V30 58 1 26 54
M  V30 59 1 27 55
M  V30 60 1 27 56
M  V30 61 1 29 57
M  V30 62 1 29 58
M  V30 63 1 30 59
M  V30 64 1 30 60
M  V30 65 1 32 61
M  V30 66 1 33 62
M  V30 END BOND
M  V30 END CTAB
M  END
>  <Dataset>  (483) 
ChEMBL_Kinases

>  <Ligand_Instance>  (483) 
nan

>  <PDB_ID>  (483) 
nan

>  <Standardized_SMILES>  (483) 
Fc1ccc(-c2nc(C3CCNCC3)sc2-c2ccnc(NCCN3CCSCC3)n2)cc1

>  <Name>  (483) 
nan

>  <Pocket>  (483) 
nan

>  <ATP_Site>  (483) 
nan

>  <Peripheral>  (483) 
nan

>  <Num_H_Atoms_ProtBoundConf>  (483) 
nan

>  <Num_Resolved_Atoms>  (483) 
nan

>  <Num_Not_Resolved_Atoms>  (483) 
nan

$$$$
CHEMBL3698643
     RDKit          3D

  0  0  0  0  0  0  0  0  0  0999 V3000
M  V30 BEGIN CTAB
M  V30 COUNTS 57 62 0 0 0
M  V30 BEGIN ATOM
M  V30 1 C 1.494023 -6.705826 4.155702 0
M  V30 2 C 1.997510 -5.475231 3.781222 0
M  V30 3 C 1.552629 -4.868917 2.624875 0
M  V30 4 C 1.863135 -3.673359 2.011752 0
M  V30 5 C 2.723606 -2.637805 2.306063 0
M  V30 6 N 2.852731 -1.535357 1.517678 0
M  V30 7 C 2.102822 -1.459022 0.401377 0
M  V30 8 N 2.038226 -0.445147 -0.592671 0
M  V30 9 C 1.210473 0.721799 -0.493839 0
M  V30 10 C 1.155450 1.643285 -1.543236 0
M  V30 11 C 0.361884 2.773932 -1.438629 0
M  V30 12 C -0.348857 2.915273 -0.252886 0
M  V30 13 N -1.209693 4.050514 -0.024143 0
M  V30 14 C -1.919640 4.245481 1.247296 0
M  V30 15 C -1.411742 5.552988 1.822657 0
M  V30 16 N -1.479315 6.629971 0.877391 0
M  V30 17 C -2.032788 6.269676 -0.395399 0
M  V30 18 C -1.425127 5.063256 -1.037753 0
M  V30 19 N -0.279109 2.007268 0.751324 0
M  V30 20 C 0.485457 0.903392 0.668689 0
M  V30 21 N 1.246128 -2.464559 0.086051 0
M  V30 22 C 1.101010 -3.569770 0.853811 0
M  V30 23 N 0.333372 -4.690652 0.760308 0
M  V30 24 C -0.571501 -4.926446 -0.307034 0
M  V30 25 C -1.774809 -4.019337 -0.293618 0
M  V30 26 C -1.971197 -3.502650 -1.696249 0
M  V30 27 C -1.181974 -4.449301 -2.554812 0
M  V30 28 C 0.015228 -4.753942 -1.678610 0
M  V30 29 C 0.608580 -5.468577 1.827626 0
M  V30 30 C 0.125362 -6.707651 2.238027 0
M  V30 31 N 0.579967 -7.268712 3.367998 0
M  V30 32 H 1.818340 -7.218996 5.062167 0
M  V30 33 H 2.745457 -4.973407 4.388937 0
M  V30 34 H 3.332912 -2.680755 3.198146 0
M  V30 35 H 2.639730 -0.585387 -1.434052 0
M  V30 36 H 1.732250 1.477894 -2.443624 0
M  V30 37 H 0.287730 3.508867 -2.218252 0
M  V30 38 H -3.019065 4.257630 1.110400 0
M  V30 39 H -1.684711 3.390952 1.902181 0
M  V30 40 H -0.311444 5.392109 2.026315 0
M  V30 41 H -1.883126 5.756321 2.786318 0
M  V30 42 H -0.656286 7.246013 0.846778 0
M  V30 43 H -1.836897 7.144356 -1.081385 0
M  V30 44 H -3.146478 6.183587 -0.349238 0
M  V30 45 H -2.213457 4.628887 -1.721817 0
M  V30 46 H -0.503074 5.282926 -1.629591 0
M  V30 47 H 0.521827 0.191830 1.490597 0
M  V30 48 H -0.945605 -5.977594 -0.224966 0
M  V30 49 H -2.714128 -4.590897 -0.044286 0
M  V30 50 H -1.664338 -3.162714 0.382014 0
M  V30 51 H -3.027531 -3.495359 -2.020639 0
M  V30 52 H -1.583708 -2.470916 -1.807954 0
M  V30 53 H -1.739128 -5.357903 -2.856719 0
M  V30 54 H -0.858510 -3.876714 -3.471509 0
M  V30 55 H 0.682691 -3.872800 -1.755943 0
M  V30 56 H 0.465043 -5.700366 -2.030309 0
M  V30 57 H -0.618319 -7.165891 1.596555 0
M  V30 END ATOM
M  V30 BEGIN BOND
M  V30 1 2 1 2
M  V30 2 1 2 3
M  V30 3 1 3 4
M  V30 4 2 4 5
M  V30 5 1 5 6
M  V30 6 2 6 7
M  V30 7 1 7 8
M  V30 8 1 8 9
M  V30 9 2 9 10
M  V30 10 1 10 11
M  V30 11 2 11 12
M  V30 12 1 12 13
M  V30 13 1 13 14
M  V30 14 1 14 15
M  V30 15 1 15 16
M  V30 16 1 16 17
M  V30 17 1 17 18
M  V30 18 1 12 19
M  V30 19 2 19 20
M  V30 20 1 7 21
M  V30 21 2 21 22
M  V30 22 1 22 23
M  V30 23 1 23 24
M  V30 24 1 24 25
M  V30 25 1 25 26
M  V30 26 1 26 27
M  V30 27 1 27 28
M  V30 28 1 23 29
M  V30 29 1 29 30
M  V30 30 2 30 31
M  V30 31 1 31 1
M  V30 32 2 29 3
M  V30 33 1 22 4
M  V30 34 1 28 24
M  V30 35 1 20 9
M  V30 36 1 18 13
M  V30 37 1 1 32
M  V30 38 1 2 33
M  V30 39 1 5 34
M  V30 40 1 8 35
M  V30 41 1 10 36
M  V30 42 1 11 37
M  V30 43 1 14 38
M  V30 44 1 14 39
M  V30 45 1 15 40
M  V30 46 1 15 41
M  V30 47 1 16 42
M  V30 48 1 17 43
M  V30 49 1 17 44
M  V30 50 1 18 45
M  V30 51 1 18 46
M  V30 52 1 20 47
M  V30 53 1 24 48
M  V30 54 1 25 49
M  V30 55 1 25 50
M  V30 56 1 26 51
M  V30 57 1 26 52
M  V30 58 1 27 53
M  V30 59 1 27 54
M  V30 60 1 28 55
M  V30 61 1 28 56
M  V30 62 1 30 57
M  V30 END BOND
M  V30 END CTAB
M  END
>  <Dataset>  (484) 
ChEMBL_Kinases

>  <Ligand_Instance>  (484) 
nan

>  <PDB_ID>  (484) 
nan

>  <Standardized_SMILES>  (484) 
c1cc2c3cnc(Nc4ccc(N5CCNCC5)nc4)nc3n(C3CCCC3)c2cn1

>  <Name>  (484) 
nan

>  <Pocket>  (484) 
nan

>  <ATP_Site>  (484) 
nan

>  <Peripheral>  (484) 
nan

>  <Num_H_Atoms_ProtBoundConf>  (484) 
nan

>  <Num_Resolved_Atoms>  (484) 
nan

>  <Num_Not_Resolved_Atoms>  (484) 
nan

$$$$
CHEMBL4461695
     RDKit          3D

  0  0  0  0  0  0  0  0  0  0999 V3000
M  V30 BEGIN CTAB
M  V30 COUNTS 46 49 0 0 0
M  V30 BEGIN ATOM
M  V30 1 N -4.589872 -2.299123 -2.480850 0
M  V30 2 C -3.672419 -1.289880 -2.884393 0
M  V30 3 O -3.689172 -0.747794 -4.029885 0
M  V30 4 C -2.633219 -0.813563 -1.970161 0
M  V30 5 N -1.728277 0.130605 -2.268709 0
M  V30 6 C -0.926020 0.316906 -1.177977 0
M  V30 7 C 0.189104 1.248870 -1.061031 0
M  V30 8 C 1.537308 1.041070 -0.894029 0
M  V30 9 C 2.422750 2.086515 -0.804196 0
M  V30 10 C 1.930143 3.386560 -0.885853 0
M  V30 11 F 2.875629 4.357945 -0.787386 0
M  V30 12 C 0.588348 3.632760 -1.052866 0
M  V30 13 C 0.177788 5.066761 -1.130028 0
M  V30 14 F -1.197718 5.138243 -1.301045 0
M  V30 15 F 0.846322 5.642528 -2.215141 0
M  V30 16 F 0.623579 5.721724 -0.021276 0
M  V30 17 C -0.291213 2.558991 -1.141374 0
M  V30 18 C -1.353897 -0.538961 -0.183954 0
M  V30 19 C -0.870935 -0.760463 1.176136 0
M  V30 20 C -1.800497 -0.416199 2.170460 0
M  V30 21 C -1.542448 -0.551600 3.523791 0
M  V30 22 N -0.337656 -1.038484 3.903143 0
M  V30 23 C 0.588471 -1.382578 2.962028 0
M  V30 24 N 1.847118 -1.893103 3.383263 0
M  V30 25 C 1.741302 -3.302850 3.476486 0
M  V30 26 O 0.897133 -4.248089 3.306640 0
M  V30 27 C 2.634587 -4.398894 3.843173 0
M  V30 28 C 3.735574 -4.225779 4.819758 0
M  V30 29 C 4.089308 -4.326530 3.357273 0
M  V30 30 C 0.337381 -1.250396 1.619246 0
M  V30 31 N -2.399841 -1.219748 -0.694667 0
M  V30 32 H -4.708963 -3.176539 -3.043200 0
M  V30 33 H -5.185434 -2.221108 -1.614999 0
M  V30 34 H 1.770822 -0.012400 -0.849891 0
M  V30 35 H 3.454875 1.779885 -0.672858 0
M  V30 36 H -1.314638 2.892075 -1.270111 0
M  V30 37 H -2.766247 -0.026339 1.937911 0
M  V30 38 H -2.272007 -0.280511 4.270497 0
M  V30 39 H 2.824838 -1.658373 3.655237 0
M  V30 40 H 2.167534 -5.407493 3.787352 0
M  V30 41 H 4.036017 -5.141063 5.398614 0
M  V30 42 H 3.890882 -3.285615 5.363047 0
M  V30 43 H 4.535578 -5.267368 2.967580 0
M  V30 44 H 4.416503 -3.406870 2.821071 0
M  V30 45 H 1.008490 -1.500943 0.840119 0
M  V30 46 H -2.998615 -1.959248 -0.259043 0
M  V30 END ATOM
M  V30 BEGIN BOND
M  V30 1 1 1 2
M  V30 2 2 2 3
M  V30 3 1 2 4
M  V30 4 2 4 5
M  V30 5 1 5 6
M  V30 6 1 6 7
M  V30 7 2 7 8
M  V30 8 1 8 9
M  V30 9 2 9 10
M  V30 10 1 10 11
M  V30 11 1 10 12
M  V30 12 1 12 13
M  V30 13 1 13 14
M  V30 14 1 13 15
M  V30 15 1 13 16
M  V30 16 2 12 17
M  V30 17 2 6 18
M  V30 18 1 18 19
M  V30 19 2 19 20
M  V30 20 1 20 21
M  V30 21 2 21 22
M  V30 22 1 22 23
M  V30 23 1 23 24
M  V30 24 1 24 25
M  V30 25 2 25 26
M  V30 26 1 25 27
M  V30 27 1 27 28
M  V30 28 1 28 29
M  V30 29 2 23 30
M  V30 30 1 18 31
M  V30 31 1 31 4
M  V30 32 1 17 7
M  V30 33 1 30 19
M  V30 34 1 29 27
M  V30 35 1 1 32
M  V30 36 1 1 33
M  V30 37 1 8 34
M  V30 38 1 9 35
M  V30 39 1 17 36
M  V30 40 1 20 37
M  V30 41 1 21 38
M  V30 42 1 24 39
M  V30 43 1 27 40
M  V30 44 1 28 41
M  V30 45 1 28 42
M  V30 46 1 29 43
M  V30 47 1 29 44
M  V30 48 1 30 45
M  V30 49 1 31 46
M  V30 END BOND
M  V30 END CTAB
M  END
>  <Dataset>  (485) 
ChEMBL_Kinases

>  <Ligand_Instance>  (485) 
nan

>  <PDB_ID>  (485) 
nan

>  <Standardized_SMILES>  (485) 
NC(=O)c1nc(-c2ccc(F)c(C(F)(F)F)c2)c(-c2ccnc(NC(=O)C3CC3)c2)[nH]1

>  <Name>  (485) 
nan

>  <Pocket>  (485) 
nan

>  <ATP_Site>  (485) 
nan

>  <Peripheral>  (485) 
nan

>  <Num_H_Atoms_ProtBoundConf>  (485) 
nan

>  <Num_Resolved_Atoms>  (485) 
nan

>  <Num_Not_Resolved_Atoms>  (485) 
nan

$$$$
CHEMBL3698642
     RDKit          3D

  0  0  0  0  0  0  0  0  0  0999 V3000
M  V30 BEGIN CTAB
M  V30 COUNTS 56 61 0 0 0
M  V30 BEGIN ATOM
M  V30 1 C -2.414246 -5.558624 4.169875 0
M  V30 2 C -1.441631 -4.572949 4.143754 0
M  V30 3 C -0.906049 -4.193857 2.952387 0
M  V30 4 C 0.072535 -3.239616 2.656039 0
M  V30 5 C 0.817962 -2.373774 3.429140 0
M  V30 6 N 1.715076 -1.541365 2.852888 0
M  V30 7 C 1.854671 -1.588065 1.496815 0
M  V30 8 N 2.815617 -0.684881 0.953230 0
M  V30 9 C 2.287606 0.601197 0.582549 0
M  V30 10 C 0.946409 0.891599 0.757478 0
M  V30 11 C 0.412430 2.116286 0.410149 0
M  V30 12 C 1.258239 3.078275 -0.130711 0
M  V30 13 N 0.926258 4.394606 -0.556473 0
M  V30 14 C 1.864673 5.357587 -1.113853 0
M  V30 15 C 1.543784 6.755139 -0.662075 0
M  V30 16 N 0.836184 6.824353 0.591031 0
M  V30 17 C -0.345549 6.015084 0.627857 0
M  V30 18 C -0.394341 4.994834 -0.508118 0
M  V30 19 N 2.555598 2.757931 -0.285009 0
M  V30 20 N 3.061665 1.583378 0.049352 0
M  V30 21 N 1.132867 -2.428627 0.732989 0
M  V30 22 C 0.218997 -3.281480 1.284336 0
M  V30 23 N -0.590154 -4.185982 0.698526 0
M  V30 24 C -0.718846 -4.508071 -0.683551 0
M  V30 25 C -0.634227 -5.940820 -1.055280 0
M  V30 26 C -1.831132 -6.183558 -1.973796 0
M  V30 27 C -1.964244 -4.801518 -2.621424 0
M  V30 28 C -1.965167 -3.946359 -1.346269 0
M  V30 29 C -1.263269 -4.727671 1.726751 0
M  V30 30 C -2.243352 -5.709434 1.835639 0
M  V30 31 N -2.797491 -6.112825 2.987972 0
M  V30 32 H -2.839314 -5.858687 5.120667 0
M  V30 33 H -1.090239 -4.087729 5.062701 0
M  V30 34 H 0.623736 -2.423465 4.493861 0
M  V30 35 H 3.841047 -0.823196 0.787096 0
M  V30 36 H 0.262873 0.165402 1.175292 0
M  V30 37 H -0.603130 2.423718 0.509512 0
M  V30 38 H 1.699232 5.345063 -2.222145 0
M  V30 39 H 2.920711 5.085665 -0.918599 0
M  V30 40 H 1.037387 7.366594 -1.464524 0
M  V30 41 H 2.533752 7.269821 -0.485206 0
M  V30 42 H 0.573761 7.832721 0.714527 0
M  V30 43 H -1.273880 6.634464 0.647000 0
M  V30 44 H -0.315470 5.400078 1.553638 0
M  V30 45 H -1.137135 4.242249 -0.234058 0
M  V30 46 H -0.660148 5.486131 -1.466625 0
M  V30 47 H 0.127556 -3.988502 -1.224504 0
M  V30 48 H -0.555986 -6.664048 -0.238991 0
M  V30 49 H 0.247943 -6.181009 -1.721002 0
M  V30 50 H -1.665574 -6.984222 -2.698086 0
M  V30 51 H -2.766118 -6.362496 -1.451075 0
M  V30 52 H -2.865573 -4.684998 -3.218876 0
M  V30 53 H -1.007609 -4.619637 -3.144789 0
M  V30 54 H -1.792191 -2.877749 -1.624718 0
M  V30 55 H -2.883019 -4.095650 -0.766705 0
M  V30 56 H -2.599981 -6.197175 0.936258 0
M  V30 END ATOM
M  V30 BEGIN BOND
M  V30 1 2 1 2
M  V30 2 1 2 3
M  V30 3 1 3 4
M  V30 4 2 4 5
M  V30 5 1 5 6
M  V30 6 2 6 7
M  V30 7 1 7 8
M  V30 8 1 8 9
M  V30 9 2 9 10
M  V30 10 1 10 11
M  V30 11 2 11 12
M  V30 12 1 12 13
M  V30 13 1 13 14
M  V30 14 1 14 15
M  V30 15 1 15 16
M  V30 16 1 16 17
M  V30 17 1 17 18
M  V30 18 1 12 19
M  V30 19 2 19 20
M  V30 20 1 7 21
M  V30 21 2 21 22
M  V30 22 1 22 23
M  V30 23 1 23 24
M  V30 24 1 24 25
M  V30 25 1 25 26
M  V30 26 1 26 27
M  V30 27 1 27 28
M  V30 28 1 23 29
M  V30 29 1 29 30
M  V30 30 2 30 31
M  V30 31 1 31 1
M  V30 32 2 29 3
M  V30 33 1 22 4
M  V30 34 1 28 24
M  V30 35 1 20 9
M  V30 36 1 18 13
M  V30 37 1 1 32
M  V30 38 1 2 33
M  V30 39 1 5 34
M  V30 40 1 8 35
M  V30 41 1 10 36
M  V30 42 1 11 37
M  V30 43 1 14 38
M  V30 44 1 14 39
M  V30 45 1 15 40
M  V30 46 1 15 41
M  V30 47 1 16 42
M  V30 48 1 17 43
M  V30 49 1 17 44
M  V30 50 1 18 45
M  V30 51 1 18 46
M  V30 52 1 24 47
M  V30 53 1 25 48
M  V30 54 1 25 49
M  V30 55 1 26 50
M  V30 56 1 26 51
M  V30 57 1 27 52
M  V30 58 1 27 53
M  V30 59 1 28 54
M  V30 60 1 28 55
M  V30 61 1 30 56
M  V30 END BOND
M  V30 END CTAB
M  END
>  <Dataset>  (486) 
ChEMBL_Kinases

>  <Ligand_Instance>  (486) 
nan

>  <PDB_ID>  (486) 
nan

>  <Standardized_SMILES>  (486) 
c1cc2c3cnc(Nc4ccc(N5CCNCC5)nn4)nc3n(C3CCCC3)c2cn1

>  <Name>  (486) 
nan

>  <Pocket>  (486) 
nan

>  <ATP_Site>  (486) 
nan

>  <Peripheral>  (486) 
nan

>  <Num_H_Atoms_ProtBoundConf>  (486) 
nan

>  <Num_Resolved_Atoms>  (486) 
nan

>  <Num_Not_Resolved_Atoms>  (486) 
nan

$$$$
CHEMBL3698647
     RDKit          3D

  0  0  0  0  0  0  0  0  0  0999 V3000
M  V30 BEGIN CTAB
M  V30 COUNTS 60 65 0 0 0
M  V30 BEGIN ATOM
M  V30 1 N 0.856723 -4.942954 3.543528 0
M  V30 2 C 2.058999 -5.235200 4.259382 0
M  V30 3 C 2.654919 -4.062818 4.976022 0
M  V30 4 C 3.160956 -3.047502 4.015255 0
M  V30 5 N 3.244430 -3.491037 2.638240 0
M  V30 6 C 2.786138 -2.765117 1.510350 0
M  V30 7 C 2.290290 -1.483812 1.552280 0
M  V30 8 C 1.847317 -0.811503 0.432740 0
M  V30 9 C 1.881039 -1.406049 -0.812126 0
M  V30 10 N 1.432838 -0.749303 -1.991781 0
M  V30 11 C 0.919229 0.572819 -1.890901 0
M  V30 12 N 1.566417 1.749242 -1.949554 0
M  V30 13 C 0.963848 2.932736 -1.842349 0
M  V30 14 C -0.408065 2.873115 -1.661772 0
M  V30 15 C -1.310695 3.932529 -1.517939 0
M  V30 16 C -1.180591 5.326301 -1.502921 0
M  V30 17 C -2.309120 6.068621 -1.336637 0
M  V30 18 N -3.541503 5.514595 -1.186600 0
M  V30 19 C -3.682630 4.166183 -1.199068 0
M  V30 20 C -2.549964 3.360745 -1.367395 0
M  V30 21 N -2.434328 2.009557 -1.413850 0
M  V30 22 C -3.515572 1.064323 -1.294970 0
M  V30 23 C -3.332465 0.045024 -0.210334 0
M  V30 24 C -4.273978 -1.066551 -0.624001 0
M  V30 25 C -4.657699 -0.816115 -2.066097 0
M  V30 26 C -3.583332 0.152632 -2.528643 0
M  V30 27 C -1.132888 1.721609 -1.592359 0
M  V30 28 N -0.426841 0.567768 -1.712588 0
M  V30 29 N 2.367242 -2.660241 -0.849406 0
M  V30 30 C 2.797061 -3.308619 0.247551 0
M  V30 31 C 3.868119 -4.782901 2.596428 0
M  V30 32 C 3.069310 -5.842990 3.308450 0
M  V30 33 H 0.058050 -4.626563 4.106697 0
M  V30 34 H 0.652482 -5.570735 2.762064 0
M  V30 35 H 1.821221 -6.015297 5.014442 0
M  V30 36 H 3.471727 -4.436664 5.627699 0
M  V30 37 H 1.830789 -3.606449 5.569350 0
M  V30 38 H 4.163112 -2.704731 4.369508 0
M  V30 39 H 2.525472 -2.130824 4.062245 0
M  V30 40 H 2.230172 -0.944882 2.483085 0
M  V30 41 H 1.461121 0.195932 0.488021 0
M  V30 42 H 1.493947 -1.255053 -2.889920 0
M  V30 43 H 1.561207 3.832049 -1.900642 0
M  V30 44 H -0.191376 5.757138 -1.623891 0
M  V30 45 H -2.160399 7.145607 -1.331226 0
M  V30 46 H -4.634879 3.685567 -1.084212 0
M  V30 47 H -4.485129 1.563192 -1.186908 0
M  V30 48 H -2.295510 -0.339077 -0.306230 0
M  V30 49 H -3.548748 0.419444 0.812483 0
M  V30 50 H -3.805258 -2.068660 -0.565556 0
M  V30 51 H -5.159915 -1.016266 0.050129 0
M  V30 52 H -4.694375 -1.740851 -2.678603 0
M  V30 53 H -5.644215 -0.297372 -2.062236 0
M  V30 54 H -2.635187 -0.430007 -2.611696 0
M  V30 55 H -3.850048 0.679821 -3.441233 0
M  V30 56 H 3.146891 -4.297055 0.025838 0
M  V30 57 H 4.152951 -5.064613 1.575058 0
M  V30 58 H 4.852614 -4.694166 3.145275 0
M  V30 59 H 3.735436 -6.586366 3.785772 0
M  V30 60 H 2.479316 -6.383170 2.540619 0
M  V30 END ATOM
M  V30 BEGIN BOND
M  V30 1 1 1 2
M  V30 2 1 2 3
M  V30 3 1 3 4
M  V30 4 1 4 5
M  V30 5 1 5 6
M  V30 6 2 6 7
M  V30 7 1 7 8
M  V30 8 2 8 9
M  V30 9 1 9 10
M  V30 10 1 10 11
M  V30 11 2 11 12
M  V30 12 1 12 13
M  V30 13 2 13 14
M  V30 14 1 14 15
M  V30 15 2 15 16
M  V30 16 1 16 17
M  V30 17 2 17 18
M  V30 18 1 18 19
M  V30 19 2 19 20
M  V30 20 1 20 21
M  V30 21 1 21 22
M  V30 22 1 22 23
M  V30 23 1 23 24
M  V30 24 1 24 25
M  V30 25 1 25 26
M  V30 26 1 21 27
M  V30 27 2 27 28
M  V30 28 1 9 29
M  V30 29 2 29 30
M  V30 30 1 5 31
M  V30 31 1 31 32
M  V30 32 1 32 2
M  V30 33 1 30 6
M  V30 34 1 28 11
M  V30 35 1 27 14
M  V30 36 1 20 15
M  V30 37 1 26 22
M  V30 38 1 1 33
M  V30 39 1 1 34
M  V30 40 1 2 35
M  V30 41 1 3 36
M  V30 42 1 3 37
M  V30 43 1 4 38
M  V30 44 1 4 39
M  V30 45 1 7 40
M  V30 46 1 8 41
M  V30 47 1 10 42
M  V30 48 1 13 43
M  V30 49 1 16 44
M  V30 50 1 17 45
M  V30 51 1 19 46
M  V30 52 1 22 47
M  V30 53 1 23 48
M  V30 54 1 23 49
M  V30 55 1 24 50
M  V30 56 1 24 51
M  V30 57 1 25 52
M  V30 58 1 25 53
M  V30 59 1 26 54
M  V30 60 1 26 55
M  V30 61 1 30 56
M  V30 62 1 31 57
M  V30 63 1 31 58
M  V30 64 1 32 59
M  V30 65 1 32 60
M  V30 END BOND
M  V30 END CTAB
M  END
>  <Dataset>  (487) 
ChEMBL_Kinases

>  <Ligand_Instance>  (487) 
nan

>  <PDB_ID>  (487) 
nan

>  <Standardized_SMILES>  (487) 
NC1CCN(c2ccc(Nc3ncc4c5ccncc5n(C5CCCC5)c4n3)nc2)CC1

>  <Name>  (487) 
nan

>  <Pocket>  (487) 
nan

>  <ATP_Site>  (487) 
nan

>  <Peripheral>  (487) 
nan

>  <Num_H_Atoms_ProtBoundConf>  (487) 
nan

>  <Num_Resolved_Atoms>  (487) 
nan

>  <Num_Not_Resolved_Atoms>  (487) 
nan

$$$$
CHEMBL3581150
     RDKit          3D

  0  0  0  0  0  0  0  0  0  0999 V3000
M  V30 BEGIN CTAB
M  V30 COUNTS 45 47 0 0 0
M  V30 BEGIN ATOM
M  V30 1 C 3.633825 -3.911947 0.647571 0
M  V30 2 S 3.741760 -4.503593 -1.001412 0
M  V30 3 O 5.079382 -4.188179 -1.599630 0
M  V30 4 O 3.614009 -5.987962 -0.967430 0
M  V30 5 N 2.550656 -3.775743 -2.009487 0
M  V30 6 C 2.491734 -2.380185 -2.254511 0
M  V30 7 C 2.294241 -2.086046 -3.608444 0
M  V30 8 C 2.211428 -0.778106 -4.039578 0
M  V30 9 C 2.320703 0.264127 -3.151700 0
M  V30 10 C 2.516225 -0.019559 -1.810230 0
M  V30 11 C 2.656244 0.980387 -0.710627 0
M  V30 12 C 1.281605 1.219207 -0.217034 0
M  V30 13 O 1.067669 0.378609 -1.128554 0
M  V30 14 N 1.004882 2.107848 0.828827 0
M  V30 15 C -0.460169 2.233316 1.209569 0
M  V30 16 C -1.116344 1.512629 2.106712 0
M  V30 17 C -2.430512 1.775276 2.307330 0
M  V30 18 C -3.276028 1.041012 3.281063 0
M  V30 19 C -4.623078 0.846389 3.060581 0
M  V30 20 C -5.314846 0.145767 4.038350 0
M  V30 21 N -4.757343 -0.338300 5.155061 0
M  V30 22 C -3.434927 -0.161517 5.397454 0
M  V30 23 N -2.821075 -0.662200 6.568243 0
M  V30 24 C -2.723976 0.532091 4.440618 0
M  V30 25 C -3.009943 2.789527 1.555352 0
M  V30 26 S -1.516442 3.352571 0.521310 0
M  V30 27 C 2.599516 -1.324508 -1.375313 0
M  V30 28 H 4.275781 -3.032128 0.857553 0
M  V30 29 H 3.950859 -4.703259 1.363829 0
M  V30 30 H 2.585149 -3.663569 0.915458 0
M  V30 31 H 1.837883 -4.424647 -2.456562 0
M  V30 32 H 2.190337 -2.795414 -4.421041 0
M  V30 33 H 2.059152 -0.485464 -5.075995 0
M  V30 34 H 2.274234 1.324004 -3.355481 0
M  V30 35 H 3.375128 0.649216 0.036100 0
M  V30 36 H 3.083518 1.883730 -1.209382 0
M  V30 37 H 1.812179 2.585358 1.234800 0
M  V30 38 H -0.577514 0.736449 2.649827 0
M  V30 39 H -5.090064 1.232163 2.160973 0
M  V30 40 H -6.374960 -0.010035 3.869658 0
M  V30 41 H -2.813191 -1.711847 6.654324 0
M  V30 42 H -2.363927 -0.197695 7.383035 0
M  V30 43 H -1.653896 0.678145 4.631238 0
M  V30 44 H -4.070851 3.138373 1.589391 0
M  V30 45 H 2.749822 -1.637296 -0.351673 0
M  V30 END ATOM
M  V30 BEGIN BOND
M  V30 1 1 1 2
M  V30 2 2 2 3
M  V30 3 2 2 4
M  V30 4 1 2 5
M  V30 5 1 5 6
M  V30 6 2 6 7
M  V30 7 1 7 8
M  V30 8 2 8 9
M  V30 9 1 9 10
M  V30 10 1 10 11
M  V30 11 1 11 12
M  V30 12 2 12 13
M  V30 13 1 12 14
M  V30 14 1 14 15
M  V30 15 2 15 16
M  V30 16 1 16 17
M  V30 17 1 17 18
M  V30 18 2 18 19
M  V30 19 1 19 20
M  V30 20 2 20 21
M  V30 21 1 21 22
M  V30 22 1 22 23
M  V30 23 2 22 24
M  V30 24 2 17 25
M  V30 25 1 25 26
M  V30 26 2 10 27
M  V30 27 1 27 6
M  V30 28 1 26 15
M  V30 29 1 24 18
M  V30 30 1 1 28
M  V30 31 1 1 29
M  V30 32 1 1 30
M  V30 33 1 5 31
M  V30 34 1 7 32
M  V30 35 1 8 33
M  V30 36 1 9 34
M  V30 37 1 11 35
M  V30 38 1 11 36
M  V30 39 1 14 37
M  V30 40 1 16 38
M  V30 41 1 19 39
M  V30 42 1 20 40
M  V30 43 1 23 41
M  V30 44 1 23 42
M  V30 45 1 24 43
M  V30 46 1 25 44
M  V30 47 1 27 45
M  V30 END BOND
M  V30 END CTAB
M  END
>  <Dataset>  (488) 
ChEMBL_Kinases

>  <Ligand_Instance>  (488) 
nan

>  <PDB_ID>  (488) 
nan

>  <Standardized_SMILES>  (488) 
CS(=O)(=O)Nc1cccc(CC(=O)Nc2cc(-c3ccnc(N)c3)cs2)c1

>  <Name>  (488) 
nan

>  <Pocket>  (488) 
nan

>  <ATP_Site>  (488) 
nan

>  <Peripheral>  (488) 
nan

>  <Num_H_Atoms_ProtBoundConf>  (488) 
nan

>  <Num_Resolved_Atoms>  (488) 
nan

>  <Num_Not_Resolved_Atoms>  (488) 
nan

$$$$
CHEMBL384829
     RDKit          3D

  0  0  0  0  0  0  0  0  0  0999 V3000
M  V30 BEGIN CTAB
M  V30 COUNTS 40 44 0 0 0
M  V30 BEGIN ATOM
M  V30 1 C 1.910377 -3.329758 1.521427 0
M  V30 2 C 1.935116 -3.450283 0.035143 0
M  V30 3 C 2.522993 -4.562121 -0.569785 0
M  V30 4 C 2.557590 -4.695317 -1.948195 0
M  V30 5 C 1.994882 -3.700239 -2.739796 0
M  V30 6 C 1.405869 -2.588555 -2.179411 0
M  V30 7 C 1.379879 -2.470542 -0.788050 0
M  V30 8 C 0.773277 -1.321286 -0.124032 0
M  V30 9 C 1.553461 -0.216714 0.152440 0
M  V30 10 C 0.982350 0.870759 0.779987 0
M  V30 11 N 1.519120 2.047190 1.152504 0
M  V30 12 C 0.504682 2.755959 1.731917 0
M  V30 13 C 0.610378 4.026048 2.259782 0
M  V30 14 C -0.493336 4.635979 2.819590 0
M  V30 15 C -1.706030 3.935695 2.834841 0
M  V30 16 O -2.819525 4.542773 3.395998 0
M  V30 17 C -1.723074 2.674670 2.287420 0
M  V30 18 C -0.665150 2.029528 1.724350 0
M  V30 19 C -0.350362 0.848264 1.123771 0
M  V30 20 C -1.133104 -0.230329 0.859351 0
M  V30 21 C -0.574539 -1.318944 0.234631 0
M  V30 22 C -1.553676 -2.405490 0.018845 0
M  V30 23 O -1.345158 -3.516724 -0.522890 0
M  V30 24 N -2.766255 -1.863240 0.577952 0
M  V30 25 C -2.503784 -0.566777 1.075790 0
M  V30 26 O -3.463349 0.007743 1.581886 0
M  V30 27 H 2.826692 -3.816325 1.924248 0
M  V30 28 H 1.980350 -2.256673 1.831392 0
M  V30 29 H 1.036044 -3.815089 1.983807 0
M  V30 30 H 2.951241 -5.316674 0.087081 0
M  V30 31 H 3.024216 -5.576974 -2.411175 0
M  V30 32 H 2.001405 -3.766898 -3.822928 0
M  V30 33 H 0.960388 -1.798770 -2.766309 0
M  V30 34 H 2.586984 -0.224032 -0.124999 0
M  V30 35 H 2.515779 2.308136 1.002265 0
M  V30 36 H 1.521642 4.575107 2.258322 0
M  V30 37 H -0.401509 5.632230 3.231280 0
M  V30 38 H -3.058234 4.327632 4.341387 0
M  V30 39 H -2.675178 2.209247 2.336329 0
M  V30 40 H -3.618974 -2.467650 0.539661 0
M  V30 END ATOM
M  V30 BEGIN BOND
M  V30 1 1 1 2
M  V30 2 2 2 3
M  V30 3 1 3 4
M  V30 4 2 4 5
M  V30 5 1 5 6
M  V30 6 2 6 7
M  V30 7 1 7 8
M  V30 8 2 8 9
M  V30 9 1 9 10
M  V30 10 1 10 11
M  V30 11 1 11 12
M  V30 12 2 12 13
M  V30 13 1 13 14
M  V30 14 2 14 15
M  V30 15 1 15 16
M  V30 16 1 15 17
M  V30 17 2 17 18
M  V30 18 1 18 19
M  V30 19 1 19 20
M  V30 20 2 20 21
M  V30 21 1 21 22
M  V30 22 2 22 23
M  V30 23 1 22 24
M  V30 24 1 24 25
M  V30 25 2 25 26
M  V30 26 1 7 2
M  V30 27 1 21 8
M  V30 28 2 19 10
M  V30 29 1 25 20
M  V30 30 1 18 12
M  V30 31 1 1 27
M  V30 32 1 1 28
M  V30 33 1 1 29
M  V30 34 1 3 30
M  V30 35 1 4 31
M  V30 36 1 5 32
M  V30 37 1 6 33
M  V30 38 1 9 34
M  V30 39 1 11 35
M  V30 40 1 13 36
M  V30 41 1 14 37
M  V30 42 1 16 38
M  V30 43 1 17 39
M  V30 44 1 24 40
M  V30 END BOND
M  V30 END CTAB
M  END
>  <Dataset>  (489) 
ChEMBL_Kinases

>  <Ligand_Instance>  (489) 
nan

>  <PDB_ID>  (489) 
nan

>  <Standardized_SMILES>  (489) 
Cc1ccccc1-c1cc2[nH]c3ccc(O)cc3c2c2c1C(=O)NC2=O

>  <Name>  (489) 
nan

>  <Pocket>  (489) 
nan

>  <ATP_Site>  (489) 
nan

>  <Peripheral>  (489) 
nan

>  <Num_H_Atoms_ProtBoundConf>  (489) 
nan

>  <Num_Resolved_Atoms>  (489) 
nan

>  <Num_Not_Resolved_Atoms>  (489) 
nan

$$$$
CHEMBL384951
     RDKit          3D

  0  0  0  0  0  0  0  0  0  0999 V3000
M  V30 BEGIN CTAB
M  V30 COUNTS 49 50 0 0 0
M  V30 BEGIN ATOM
M  V30 1 C 0.202470 -4.041369 4.195560 0
M  V30 2 O 1.384632 -3.258487 4.277130 0
M  V30 3 C 1.695768 -3.114182 2.844490 0
M  V30 4 C 2.856253 -2.208543 2.707500 0
M  V30 5 N 3.202165 -1.926652 1.330444 0
M  V30 6 C 2.232938 -2.275128 0.361424 0
M  V30 7 N 2.543480 -0.989505 -0.182548 0
M  V30 8 C 2.010208 -0.412634 -1.254662 0
M  V30 9 C 1.796868 1.039576 -1.634360 0
M  V30 10 O 1.640670 2.010975 -2.391240 0
M  V30 11 N 1.648138 1.750055 -0.349008 0
M  V30 12 C 1.427087 2.725459 0.809206 0
M  V30 13 C -0.081261 2.420249 1.061126 0
M  V30 14 C -0.464505 1.557695 1.984962 0
M  V30 15 C -1.745052 1.109245 1.991039 0
M  V30 16 C -2.699165 1.449668 1.140225 0
M  V30 17 S -4.317419 0.979678 0.668248 0
M  V30 18 C -4.286769 0.431647 -1.060178 0
M  V30 19 O -4.627925 -0.279274 1.432298 0
M  V30 20 O -5.326808 2.054171 0.873539 0
M  V30 21 C -2.310483 2.412292 0.107401 0
M  V30 22 C -0.954850 2.905985 0.076576 0
M  V30 23 C 1.047630 -0.948025 -2.096179 0
M  V30 24 C 0.667844 -2.222598 -1.666376 0
M  V30 25 N -0.266697 -3.191868 -2.070015 0
M  V30 26 C 1.344879 -2.591192 -0.540203 0
M  V30 27 C 1.299148 -4.003421 -0.078205 0
M  V30 28 N 1.269664 -5.207568 0.293510 0
M  V30 29 H -0.175661 -4.298199 5.212310 0
M  V30 30 H 0.371184 -4.981409 3.653719 0
M  V30 31 H -0.622349 -3.404904 3.743497 0
M  V30 32 H 0.777141 -2.807735 2.423876 0
M  V30 33 H 2.057901 -4.184131 2.587100 0
M  V30 34 H 3.737965 -2.601625 3.307082 0
M  V30 35 H 2.648271 -1.209739 3.182797 0
M  V30 36 H 4.150832 -1.549056 1.446699 0
M  V30 37 H 1.817662 1.082601 0.473389 0
M  V30 38 H 1.536153 3.699313 0.345038 0
M  V30 39 H 2.045839 2.539583 1.608388 0
M  V30 40 H 0.151433 1.174707 2.796134 0
M  V30 41 H -2.217115 0.407865 2.670113 0
M  V30 42 H -3.213941 0.597419 -1.424033 0
M  V30 43 H -4.864928 1.163947 -1.691844 0
M  V30 44 H -4.548057 -0.599280 -1.215725 0
M  V30 45 H -2.832663 2.857559 -0.685739 0
M  V30 46 H -0.551741 3.622270 -0.618123 0
M  V30 47 H 0.464954 -0.722903 -2.949340 0
M  V30 48 H -0.116914 -4.218627 -2.108412 0
M  V30 49 H -1.211975 -2.851354 -2.343031 0
M  V30 END ATOM
M  V30 BEGIN BOND
M  V30 1 1 1 2
M  V30 2 1 2 3
M  V30 3 1 3 4
M  V30 4 1 4 5
M  V30 5 1 5 6
M  V30 6 2 6 7
M  V30 7 1 7 8
M  V30 8 1 8 9
M  V30 9 2 9 10
M  V30 10 1 9 11
M  V30 11 1 11 12
M  V30 12 1 12 13
M  V30 13 2 13 14
M  V30 14 1 14 15
M  V30 15 2 15 16
M  V30 16 1 16 17
M  V30 17 1 17 18
M  V30 18 2 17 19
M  V30 19 2 17 20
M  V30 20 1 16 21
M  V30 21 2 21 22
M  V30 22 2 8 23
M  V30 23 1 23 24
M  V30 24 1 24 25
M  V30 25 2 24 26
M  V30 26 1 26 27
M  V30 27 3 27 28
M  V30 28 1 26 6
M  V30 29 1 22 13
M  V30 30 1 1 29
M  V30 31 1 1 30
M  V30 32 1 1 31
M  V30 33 1 3 32
M  V30 34 1 3 33
M  V30 35 1 4 34
M  V30 36 1 4 35
M  V30 37 1 5 36
M  V30 38 1 11 37
M  V30 39 1 12 38
M  V30 40 1 12 39
M  V30 41 1 14 40
M  V30 42 1 15 41
M  V30 43 1 18 42
M  V30 44 1 18 43
M  V30 45 1 18 44
M  V30 46 1 21 45
M  V30 47 1 22 46
M  V30 48 1 23 47
M  V30 49 1 25 48
M  V30 50 1 25 49
M  V30 END BOND
M  V30 END CTAB
M  END
>  <Dataset>  (490) 
ChEMBL_Kinases

>  <Ligand_Instance>  (490) 
nan

>  <PDB_ID>  (490) 
nan

>  <Standardized_SMILES>  (490) 
COCCNc1nc(C(=O)NCc2ccc(S(C)(=O)=O)cc2)cc(N)c1C#N

>  <Name>  (490) 
nan

>  <Pocket>  (490) 
nan

>  <ATP_Site>  (490) 
nan

>  <Peripheral>  (490) 
nan

>  <Num_H_Atoms_ProtBoundConf>  (490) 
nan

>  <Num_Resolved_Atoms>  (490) 
nan

>  <Num_Not_Resolved_Atoms>  (490) 
nan

$$$$
CHEMBL408564
     RDKit          3D

  0  0  0  0  0  0  0  0  0  0999 V3000
M  V30 BEGIN CTAB
M  V30 COUNTS 32 35 0 0 0
M  V30 BEGIN ATOM
M  V30 1 O -1.613747 -3.458069 1.929806 0
M  V30 2 C -1.522330 -2.456477 2.686386 0
M  V30 3 N -0.782127 -1.303644 3.069611 0
M  V30 4 C 0.398577 -1.181978 2.263381 0
M  V30 5 N 1.552952 -1.775654 2.675890 0
M  V30 6 N 2.510044 -1.527590 1.770497 0
M  V30 7 C 1.978560 -0.780292 0.781934 0
M  V30 8 N 2.427093 -0.232664 -0.369277 0
M  V30 9 C 1.631786 0.490467 -1.182798 0
M  V30 10 C 2.185882 1.053933 -2.414475 0
M  V30 11 C 3.488285 0.923276 -2.857753 0
M  V30 12 C 3.553747 1.612862 -4.053053 0
M  V30 13 C 2.280648 2.133445 -4.281729 0
M  V30 14 O 1.508118 1.774752 -3.283807 0
M  V30 15 C 0.298056 0.720058 -0.890468 0
M  V30 16 Br -0.855872 1.739519 -2.020642 0
M  V30 17 C -0.241833 0.184083 0.287622 0
M  V30 18 C 0.643958 -0.542442 1.060782 0
M  V30 19 C -2.795206 -2.862896 3.328331 0
M  V30 20 C -3.129835 -2.568674 4.720227 0
M  V30 21 C -3.848606 -1.829928 3.648510 0
M  V30 22 H -1.236561 -0.780676 3.850227 0
M  V30 23 H 3.517618 -1.815315 1.742242 0
M  V30 24 H 4.266404 0.375928 -2.331861 0
M  V30 25 H 4.485853 1.674688 -4.632046 0
M  V30 26 H 2.157360 2.709136 -5.188964 0
M  V30 27 H -1.269025 0.306768 0.604035 0
M  V30 28 H -3.228996 -3.789293 2.896658 0
M  V30 29 H -2.426166 -1.964022 5.334795 0
M  V30 30 H -3.693330 -3.341366 5.299568 0
M  V30 31 H -3.615403 -0.761842 3.452410 0
M  V30 32 H -4.928017 -2.070390 3.511334 0
M  V30 END ATOM
M  V30 BEGIN BOND
M  V30 1 2 1 2
M  V30 2 1 2 3
M  V30 3 1 3 4
M  V30 4 2 4 5
M  V30 5 1 5 6
M  V30 6 1 6 7
M  V30 7 2 7 8
M  V30 8 1 8 9
M  V30 9 1 9 10
M  V30 10 2 10 11
M  V30 11 1 11 12
M  V30 12 2 12 13
M  V30 13 1 13 14
M  V30 14 2 9 15
M  V30 15 1 15 16
M  V30 16 1 15 17
M  V30 17 2 17 18
M  V30 18 1 2 19
M  V30 19 1 19 20
M  V30 20 1 20 21
M  V30 21 1 18 4
M  V30 22 1 21 19
M  V30 23 1 18 7
M  V30 24 1 14 10
M  V30 25 1 3 22
M  V30 26 1 6 23
M  V30 27 1 11 24
M  V30 28 1 12 25
M  V30 29 1 13 26
M  V30 30 1 17 27
M  V30 31 1 19 28
M  V30 32 1 20 29
M  V30 33 1 20 30
M  V30 34 1 21 31
M  V30 35 1 21 32
M  V30 END BOND
M  V30 END CTAB
M  END
>  <Dataset>  (491) 
ChEMBL_Kinases

>  <Ligand_Instance>  (491) 
nan

>  <PDB_ID>  (491) 
nan

>  <Standardized_SMILES>  (491) 
O=C(Nc1n[nH]c2nc(-c3ccco3)c(Br)cc12)C1CC1

>  <Name>  (491) 
nan

>  <Pocket>  (491) 
nan

>  <ATP_Site>  (491) 
nan

>  <Peripheral>  (491) 
nan

>  <Num_H_Atoms_ProtBoundConf>  (491) 
nan

>  <Num_Resolved_Atoms>  (491) 
nan

>  <Num_Not_Resolved_Atoms>  (491) 
nan

$$$$
CHEMBL4085557
     RDKit          3D

  0  0  0  0  0  0  0  0  0  0999 V3000
M  V30 BEGIN CTAB
M  V30 COUNTS 39 41 0 0 0
M  V30 BEGIN ATOM
M  V30 1 C -1.743810 -6.314841 3.439704 0
M  V30 2 O -0.536681 -5.818813 3.989141 0
M  V30 3 C 0.154108 -4.720875 3.445087 0
M  V30 4 C 1.309923 -4.387209 4.119189 0
M  V30 5 C 2.020880 -3.317115 3.622446 0
M  V30 6 C 1.498554 -2.682771 2.490161 0
M  V30 7 S 2.151420 -1.230722 1.539609 0
M  V30 8 C 0.829995 -1.230090 0.366212 0
M  V30 9 C 0.806155 -0.238935 -0.699382 0
M  V30 10 O 1.814324 -0.266816 -1.459792 0
M  V30 11 N -0.275667 0.664641 -0.839269 0
M  V30 12 C -1.400246 0.621782 0.089016 0
M  V30 13 C -0.252325 1.639940 -1.922533 0
M  V30 14 C 0.403479 2.881211 -1.456624 0
M  V30 15 C -0.374421 3.874627 -0.882726 0
M  V30 16 C 0.200154 5.039984 -0.438396 0
M  V30 17 C 1.550154 5.268734 -0.541671 0
M  V30 18 C 2.359113 4.292568 -1.112557 0
M  V30 19 C 1.764595 3.129063 -1.552926 0
M  V30 20 C 0.042156 -2.239802 0.730921 0
M  V30 21 C 0.340709 -3.017407 1.815215 0
M  V30 22 C -0.354216 -4.092359 2.331498 0
M  V30 23 H -1.704180 -6.386654 2.323095 0
M  V30 24 H -1.956745 -7.310896 3.878781 0
M  V30 25 H -2.529484 -5.552132 3.664143 0
M  V30 26 H 1.699748 -4.875505 4.979606 0
M  V30 27 H 2.925422 -2.944094 4.032206 0
M  V30 28 H -2.087875 -0.158097 -0.260940 0
M  V30 29 H -1.070280 0.378241 1.120473 0
M  V30 30 H -1.930850 1.588787 0.133234 0
M  V30 31 H -1.307057 1.902189 -2.204438 0
M  V30 32 H 0.251479 1.163875 -2.779559 0
M  V30 33 H -1.432271 3.757274 -0.773677 0
M  V30 34 H -0.382560 5.828298 0.012037 0
M  V30 35 H 2.085062 6.142759 -0.224216 0
M  V30 36 H 3.432752 4.422148 -1.218592 0
M  V30 37 H 2.386693 2.367745 -1.996898 0
M  V30 38 H -0.826835 -2.373730 0.100821 0
M  V30 39 H -1.274408 -4.445808 1.887714 0
M  V30 END ATOM
M  V30 BEGIN BOND
M  V30 1 1 1 2
M  V30 2 1 2 3
M  V30 3 2 3 4
M  V30 4 1 4 5
M  V30 5 2 5 6
M  V30 6 1 6 7
M  V30 7 1 7 8
M  V30 8 1 8 9
M  V30 9 2 9 10
M  V30 10 1 9 11
M  V30 11 1 11 12
M  V30 12 1 11 13
M  V30 13 1 13 14
M  V30 14 2 14 15
M  V30 15 1 15 16
M  V30 16 2 16 17
M  V30 17 1 17 18
M  V30 18 2 18 19
M  V30 19 2 8 20
M  V30 20 1 20 21
M  V30 21 2 21 22
M  V30 22 1 22 3
M  V30 23 1 21 6
M  V30 24 1 19 14
M  V30 25 1 1 23
M  V30 26 1 1 24
M  V30 27 1 1 25
M  V30 28 1 4 26
M  V30 29 1 5 27
M  V30 30 1 12 28
M  V30 31 1 12 29
M  V30 32 1 12 30
M  V30 33 1 13 31
M  V30 34 1 13 32
M  V30 35 1 15 33
M  V30 36 1 16 34
M  V30 37 1 17 35
M  V30 38 1 18 36
M  V30 39 1 19 37
M  V30 40 1 20 38
M  V30 41 1 22 39
M  V30 END BOND
M  V30 END CTAB
M  END
>  <Dataset>  (492) 
ChEMBL_Kinases

>  <Ligand_Instance>  (492) 
nan

>  <PDB_ID>  (492) 
nan

>  <Standardized_SMILES>  (492) 
COc1ccc2sc(C(=O)N(C)Cc3ccccc3)cc2c1

>  <Name>  (492) 
nan

>  <Pocket>  (492) 
nan

>  <ATP_Site>  (492) 
nan

>  <Peripheral>  (492) 
nan

>  <Num_H_Atoms_ProtBoundConf>  (492) 
nan

>  <Num_Resolved_Atoms>  (492) 
nan

>  <Num_Not_Resolved_Atoms>  (492) 
nan

$$$$
CHEMBL4085536
     RDKit          3D

  0  0  0  0  0  0  0  0  0  0999 V3000
M  V30 BEGIN CTAB
M  V30 COUNTS 71 75 0 0 0
M  V30 BEGIN ATOM
M  V30 1 C 4.585392 -8.191056 0.693092 0
M  V30 2 C 5.843073 -7.823199 -0.081265 0
M  V30 3 C 5.649846 -6.447926 -0.630414 0
M  V30 4 O 4.477684 -6.146880 -0.256720 0
M  V30 5 N 6.401314 -5.527299 -1.382293 0
M  V30 6 C 5.535649 -4.400828 -1.522926 0
M  V30 7 C 5.636702 -3.471607 -0.495637 0
M  V30 8 C 4.830322 -2.365211 -0.562369 0
M  V30 9 C 3.968794 -2.225296 -1.627693 0
M  V30 10 C 3.142956 -1.022221 -1.597729 0
M  V30 11 O 3.271118 -0.160619 -0.671592 0
M  V30 12 N 2.134720 -0.652170 -2.534074 0
M  V30 13 C 1.582739 0.602429 -2.106959 0
M  V30 14 C 1.882838 1.899235 -2.441387 0
M  V30 15 C 1.195337 2.946178 -1.867642 0
M  V30 16 C 0.193905 2.687410 -0.945962 0
M  V30 17 N -0.533712 3.767961 -0.367385 0
M  V30 18 C -1.372756 3.513103 0.751917 0
M  V30 19 C -2.613448 2.936093 0.744719 0
M  V30 20 C -3.256980 2.801103 1.955613 0
M  V30 21 C -4.574916 2.175769 2.029090 0
M  V30 22 C -4.483802 0.807579 1.785756 0
M  V30 23 C -3.485375 -0.212741 1.476206 0
M  V30 24 C -3.469165 -1.041556 0.379482 0
M  V30 25 C -2.489236 -1.975753 0.164211 0
M  V30 26 C -1.465170 -2.108348 1.072506 0
M  V30 27 F -0.462126 -3.012524 0.921577 0
M  V30 28 C -1.500714 -1.275580 2.152382 0
M  V30 29 C -2.460020 -0.308915 2.432921 0
M  V30 30 N -5.742932 0.294491 1.872562 0
M  V30 31 C -6.600425 1.302400 2.160377 0
M  V30 32 S -8.367089 1.392496 2.416814 0
M  V30 33 C -9.140704 1.696269 0.792519 0
M  V30 34 N -5.873345 2.449059 2.253161 0
M  V30 35 C -6.137795 3.851119 2.525020 0
M  V30 36 C -2.654113 3.238645 3.115219 0
M  V30 37 C -1.396620 3.821175 3.102686 0
M  V30 38 N -0.782713 3.942608 1.898138 0
M  V30 39 C -0.117088 1.384580 -0.601308 0
M  V30 40 C 0.575366 0.308799 -1.178286 0
M  V30 41 C 3.837427 -3.121947 -2.666845 0
M  V30 42 C 4.659815 -4.220728 -2.570285 0
M  V30 43 H 4.514494 -7.523192 1.598210 0
M  V30 44 H 3.698659 -7.974556 0.076442 0
M  V30 45 H 4.615115 -9.257908 0.972182 0
M  V30 46 H 5.947768 -8.576250 -0.914965 0
M  V30 47 H 6.723574 -7.895871 0.565509 0
M  V30 48 H 7.325469 -5.962080 -1.586782 0
M  V30 49 H 6.315460 -3.593725 0.333514 0
M  V30 50 H 4.904305 -1.635559 0.236836 0
M  V30 51 H 1.984861 -1.328951 -3.331104 0
M  V30 52 H 2.682081 1.930398 -3.167187 0
M  V30 53 H 1.488118 3.934149 -2.183945 0
M  V30 54 H -0.467351 4.733334 -0.740253 0
M  V30 55 H -3.006900 2.627510 -0.187940 0
M  V30 56 H -4.301033 -0.901000 -0.315139 0
M  V30 57 H -2.499846 -2.615832 -0.704286 0
M  V30 58 H -0.694675 -1.374096 2.875362 0
M  V30 59 H -2.414592 0.308329 3.308218 0
M  V30 60 H -8.414489 1.675847 -0.039259 0
M  V30 61 H -9.887685 0.888173 0.569771 0
M  V30 62 H -9.646433 2.682682 0.766637 0
M  V30 63 H -7.221439 3.976807 2.780970 0
M  V30 64 H -5.590034 4.139270 3.444104 0
M  V30 65 H -5.847669 4.519856 1.717271 0
M  V30 66 H -3.138473 3.146277 4.099729 0
M  V30 67 H -0.935240 4.163354 4.027863 0
M  V30 68 H -0.910990 1.267394 0.126330 0
M  V30 69 H 0.219216 -0.631774 -0.809495 0
M  V30 70 H 3.150549 -2.983999 -3.489026 0
M  V30 71 H 4.619703 -4.974115 -3.347167 0
M  V30 END ATOM
M  V30 BEGIN BOND
M  V30 1 1 1 2
M  V30 2 1 2 3
M  V30 3 2 3 4
M  V30 4 1 3 5
M  V30 5 1 5 6
M  V30 6 2 6 7
M  V30 7 1 7 8
M  V30 8 2 8 9
M  V30 9 1 9 10
M  V30 10 2 10 11
M  V30 11 1 10 12
M  V30 12 1 12 13
M  V30 13 2 13 14
M  V30 14 1 14 15
M  V30 15 2 15 16
M  V30 16 1 16 17
M  V30 17 1 17 18
M  V30 18 2 18 19
M  V30 19 1 19 20
M  V30 20 1 20 21
M  V30 21 2 21 22
M  V30 22 1 22 23
M  V30 23 2 23 24
M  V30 24 1 24 25
M  V30 25 2 25 26
M  V30 26 1 26 27
M  V30 27 1 26 28
M  V30 28 2 28 29
M  V30 29 1 22 30
M  V30 30 2 30 31
M  V30 31 1 31 32
M  V30 32 1 32 33
M  V30 33 1 31 34
M  V30 34 1 34 35
M  V30 35 2 20 36
M  V30 36 1 36 37
M  V30 37 2 37 38
M  V30 38 1 16 39
M  V30 39 2 39 40
M  V30 40 1 9 41
M  V30 41 2 41 42
M  V30 42 1 42 6
M  V30 43 1 40 13
M  V30 44 1 38 18
M  V30 45 1 34 21
M  V30 46 1 29 23
M  V30 47 1 1 43
M  V30 48 1 1 44
M  V30 49 1 1 45
M  V30 50 1 2 46
M  V30 51 1 2 47
M  V30 52 1 5 48
M  V30 53 1 7 49
M  V30 54 1 8 50
M  V30 55 1 12 51
M  V30 56 1 14 52
M  V30 57 1 15 53
M  V30 58 1 17 54
M  V30 59 1 19 55
M  V30 60 1 24 56
M  V30 61 1 25 57
M  V30 62 1 28 58
M  V30 63 1 29 59
M  V30 64 1 33 60
M  V30 65 1 33 61
M  V30 66 1 33 62
M  V30 67 1 35 63
M  V30 68 1 35 64
M  V30 69 1 35 65
M  V30 70 1 36 66
M  V30 71 1 37 67
M  V30 72 1 39 68
M  V30 73 1 40 69
M  V30 74 1 41 70
M  V30 75 1 42 71
M  V30 END BOND
M  V30 END CTAB
M  END
>  <Dataset>  (493) 
ChEMBL_Kinases

>  <Ligand_Instance>  (493) 
nan

>  <PDB_ID>  (493) 
nan

>  <Standardized_SMILES>  (493) 
CCC(=O)Nc1ccc(C(=O)Nc2ccc(Nc3cc(-c4c(-c5ccc(F)cc5)nc(SC)n4C)ccn3)cc2)cc1

>  <Name>  (493) 
nan

>  <Pocket>  (493) 
nan

>  <ATP_Site>  (493) 
nan

>  <Peripheral>  (493) 
nan

>  <Num_H_Atoms_ProtBoundConf>  (493) 
nan

>  <Num_Resolved_Atoms>  (493) 
nan

>  <Num_Not_Resolved_Atoms>  (493) 
nan

$$$$
CHEMBL385047
     RDKit          3D

  0  0  0  0  0  0  0  0  0  0999 V3000
M  V30 BEGIN CTAB
M  V30 COUNTS 47 52 0 0 0
M  V30 BEGIN ATOM
M  V30 1 O 4.209529 -0.534399 -0.164695 0
M  V30 2 C 3.363035 -1.446378 0.023894 0
M  V30 3 N 3.496335 -2.868917 -0.016953 0
M  V30 4 C 2.236908 -3.451005 0.269192 0
M  V30 5 O 2.213143 -4.684574 0.265821 0
M  V30 6 C 1.250414 -2.432347 0.503793 0
M  V30 7 C 1.933409 -1.247646 0.354766 0
M  V30 8 C 1.272878 -0.019349 0.515566 0
M  V30 9 C 1.941280 1.242749 0.370821 0
M  V30 10 C 2.074604 2.173560 1.402521 0
M  V30 11 C 2.731101 3.391639 1.229763 0
M  V30 12 C 3.252860 3.629414 -0.047928 0
M  V30 13 C 3.143426 2.737000 -1.095188 0
M  V30 14 C 2.482238 1.546828 -0.863761 0
M  V30 15 C -0.073448 -0.031391 0.825531 0
M  V30 16 C -0.829360 1.212939 1.007797 0
M  V30 17 C -1.048977 2.177032 0.044765 0
M  V30 18 C -1.779449 3.311667 0.332200 0
M  V30 19 C -2.321397 3.537300 1.583426 0
M  V30 20 C -2.116014 2.599899 2.544609 0
M  V30 21 C -1.385653 1.464435 2.258794 0
M  V30 22 C -0.712103 -1.233191 0.964193 0
M  V30 23 N -1.994109 -1.504060 1.257686 0
M  V30 24 C -2.140234 -2.856333 1.281923 0
M  V30 25 C -3.295042 -3.568731 1.542843 0
M  V30 26 C -3.277780 -4.929309 1.529222 0
M  V30 27 C -2.066835 -5.565208 1.245909 0
M  V30 28 O -2.071184 -6.950848 1.237323 0
M  V30 29 C -0.961551 -4.790092 0.996849 0
M  V30 30 C -0.920323 -3.428414 0.996923 0
M  V30 31 C -0.057528 -2.419881 0.805133 0
M  V30 32 H 4.439736 -3.255412 -0.236994 0
M  V30 33 H 1.651593 1.937692 2.369969 0
M  V30 34 H 2.830780 4.106820 2.033000 0
M  V30 35 H 3.776778 4.573477 -0.231294 0
M  V30 36 H 3.571068 2.979701 -2.066923 0
M  V30 37 H 2.434958 0.889205 -1.739964 0
M  V30 38 H -0.619898 1.988182 -0.927381 0
M  V30 39 H -1.895449 4.005722 -0.487686 0
M  V30 40 H -2.886198 4.443405 1.755474 0
M  V30 41 H -2.537167 2.759154 3.545604 0
M  V30 42 H -1.268450 0.757233 3.095866 0
M  V30 43 H -2.743450 -0.796337 1.435029 0
M  V30 44 H -4.226451 -3.072339 1.760842 0
M  V30 45 H -4.178638 -5.472273 1.733138 0
M  V30 46 H -2.214158 -7.479573 2.087356 0
M  V30 47 H -0.095140 -5.371317 0.792823 0
M  V30 END ATOM
M  V30 BEGIN BOND
M  V30 1 2 1 2
M  V30 2 1 2 3
M  V30 3 1 3 4
M  V30 4 2 4 5
M  V30 5 1 4 6
M  V30 6 2 6 7
M  V30 7 1 7 8
M  V30 8 1 8 9
M  V30 9 2 9 10
M  V30 10 1 10 11
M  V30 11 2 11 12
M  V30 12 1 12 13
M  V30 13 2 13 14
M  V30 14 2 8 15
M  V30 15 1 15 16
M  V30 16 2 16 17
M  V30 17 1 17 18
M  V30 18 2 18 19
M  V30 19 1 19 20
M  V30 20 2 20 21
M  V30 21 1 15 22
M  V30 22 1 22 23
M  V30 23 1 23 24
M  V30 24 2 24 25
M  V30 25 1 25 26
M  V30 26 2 26 27
M  V30 27 1 27 28
M  V30 28 1 27 29
M  V30 29 2 29 30
M  V30 30 1 30 31
M  V30 31 1 7 2
M  V30 32 1 14 9
M  V30 33 1 21 16
M  V30 34 2 31 22
M  V30 35 1 31 6
M  V30 36 1 30 24
M  V30 37 1 3 32
M  V30 38 1 10 33
M  V30 39 1 11 34
M  V30 40 1 12 35
M  V30 41 1 13 36
M  V30 42 1 14 37
M  V30 43 1 17 38
M  V30 44 1 18 39
M  V30 45 1 19 40
M  V30 46 1 20 41
M  V30 47 1 21 42
M  V30 48 1 23 43
M  V30 49 1 25 44
M  V30 50 1 26 45
M  V30 51 1 28 46
M  V30 52 1 29 47
M  V30 END BOND
M  V30 END CTAB
M  END
>  <Dataset>  (494) 
ChEMBL_Kinases

>  <Ligand_Instance>  (494) 
nan

>  <PDB_ID>  (494) 
nan

>  <Standardized_SMILES>  (494) 
O=C1NC(=O)c2c1c(-c1ccccc1)c(-c1ccccc1)c1[nH]c3ccc(O)cc3c21

>  <Name>  (494) 
nan

>  <Pocket>  (494) 
nan

>  <ATP_Site>  (494) 
nan

>  <Peripheral>  (494) 
nan

>  <Num_H_Atoms_ProtBoundConf>  (494) 
nan

>  <Num_Resolved_Atoms>  (494) 
nan

>  <Num_Not_Resolved_Atoms>  (494) 
nan

$$$$
CHEMBL4085317
     RDKit          3D

  0  0  0  0  0  0  0  0  0  0999 V3000
M  V30 BEGIN CTAB
M  V30 COUNTS 39 41 0 0 0
M  V30 BEGIN ATOM
M  V30 1 C 0.430357 -4.719297 3.289984 0
M  V30 2 C -0.357586 -4.101276 2.204545 0
M  V30 3 O -1.595885 -4.311912 2.251474 0
M  V30 4 N 0.295380 -3.334320 1.207239 0
M  V30 5 C -0.573038 -2.788527 0.211613 0
M  V30 6 C -0.784631 -3.586642 -0.892316 0
M  V30 7 C -1.620198 -3.072228 -1.860063 0
M  V30 8 C -2.236473 -1.844623 -1.789424 0
M  V30 9 C -2.015731 -1.042747 -0.666566 0
M  V30 10 N -2.611967 0.230859 -0.489496 0
M  V30 11 C -2.480900 1.205057 0.573133 0
M  V30 12 C -1.081903 1.725180 0.541764 0
M  V30 13 N 0.109451 1.486204 1.069892 0
M  V30 14 C 1.061539 2.330075 0.644628 0
M  V30 15 C 2.432992 2.215998 1.121197 0
M  V30 16 C 2.654963 1.977784 2.454736 0
M  V30 17 C 3.874854 1.840552 3.083477 0
M  V30 18 N 4.942654 1.961735 2.254142 0
M  V30 19 C 4.816232 2.194251 0.940982 0
M  V30 20 C 3.565285 2.326386 0.345451 0
M  V30 21 N 0.411440 3.163262 -0.218989 0
M  V30 22 N -0.864728 2.784330 -0.264848 0
M  V30 23 C -1.180519 -1.556875 0.301434 0
M  V30 24 H 0.002481 -5.734352 3.511505 0
M  V30 25 H 1.518216 -4.785846 3.076307 0
M  V30 26 H 0.318851 -4.160795 4.249028 0
M  V30 27 H 1.323091 -3.163943 1.175151 0
M  V30 28 H -0.378666 -4.566779 -1.097475 0
M  V30 29 H -1.854938 -3.628017 -2.779804 0
M  V30 30 H -2.892387 -1.471205 -2.576957 0
M  V30 31 H -3.259024 0.497202 -1.279135 0
M  V30 32 H -3.231248 1.987425 0.473165 0
M  V30 33 H -2.650753 0.622184 1.520592 0
M  V30 34 H 1.780156 1.882350 3.112518 0
M  V30 35 H 3.935441 1.652985 4.147967 0
M  V30 36 H 5.698510 2.283239 0.319524 0
M  V30 37 H 3.419117 2.515910 -0.718954 0
M  V30 38 H -1.408548 3.402864 -0.922991 0
M  V30 39 H -0.924924 -1.057251 1.221683 0
M  V30 END ATOM
M  V30 BEGIN BOND
M  V30 1 1 1 2
M  V30 2 2 2 3
M  V30 3 1 2 4
M  V30 4 1 4 5
M  V30 5 2 5 6
M  V30 6 1 6 7
M  V30 7 2 7 8
M  V30 8 1 8 9
M  V30 9 1 9 10
M  V30 10 1 10 11
M  V30 11 1 11 12
M  V30 12 2 12 13
M  V30 13 1 13 14
M  V30 14 1 14 15
M  V30 15 2 15 16
M  V30 16 1 16 17
M  V30 17 2 17 18
M  V30 18 1 18 19
M  V30 19 2 19 20
M  V30 20 2 14 21
M  V30 21 1 21 22
M  V30 22 2 9 23
M  V30 23 1 23 5
M  V30 24 1 22 12
M  V30 25 1 20 15
M  V30 26 1 1 24
M  V30 27 1 1 25
M  V30 28 1 1 26
M  V30 29 1 4 27
M  V30 30 1 6 28
M  V30 31 1 7 29
M  V30 32 1 8 30
M  V30 33 1 10 31
M  V30 34 1 11 32
M  V30 35 1 11 33
M  V30 36 1 16 34
M  V30 37 1 17 35
M  V30 38 1 19 36
M  V30 39 1 20 37
M  V30 40 1 22 38
M  V30 41 1 23 39
M  V30 END BOND
M  V30 END CTAB
M  END
>  <Dataset>  (495) 
ChEMBL_Kinases

>  <Ligand_Instance>  (495) 
nan

>  <PDB_ID>  (495) 
nan

>  <Standardized_SMILES>  (495) 
CC(=O)Nc1cccc(NCc2nc(-c3ccncc3)n[nH]2)c1

>  <Name>  (495) 
nan

>  <Pocket>  (495) 
nan

>  <ATP_Site>  (495) 
nan

>  <Peripheral>  (495) 
nan

>  <Num_H_Atoms_ProtBoundConf>  (495) 
nan

>  <Num_Resolved_Atoms>  (495) 
nan

>  <Num_Not_Resolved_Atoms>  (495) 
nan

$$$$
CHEMBL4085284
     RDKit          3D

  0  0  0  0  0  0  0  0  0  0999 V3000
M  V30 BEGIN CTAB
M  V30 COUNTS 48 50 0 0 0
M  V30 BEGIN ATOM
M  V30 1 C 0.109333 -0.696553 -4.187849 0
M  V30 2 N 1.115394 -1.758736 -4.265102 0
M  V30 3 C 0.997264 -2.939489 -3.471696 0
M  V30 4 C 0.846950 -2.761626 -2.108324 0
M  V30 5 C 0.729946 -3.714295 -1.089048 0
M  V30 6 O 0.584778 -3.238341 0.237834 0
M  V30 7 C 0.578578 -1.826020 0.412025 0
M  V30 8 C 1.640326 -0.999792 0.707536 0
M  V30 9 C 1.364104 0.364042 0.812705 0
M  V30 10 C 0.085937 0.843530 0.624173 0
M  V30 11 N -0.025300 2.257825 0.721304 0
M  V30 12 C 0.015850 3.283055 1.703048 0
M  V30 13 S -0.168716 4.845973 1.320734 0
M  V30 14 N 0.237948 2.934534 3.027138 0
M  V30 15 C 0.457494 1.691715 3.718045 0
M  V30 16 C 1.590049 1.089945 4.211417 0
M  V30 17 C 1.478974 -0.131884 4.830181 0
M  V30 18 C 0.287723 -0.762066 4.968193 0
M  V30 19 Cl 0.271591 -2.303583 5.786588 0
M  V30 20 C -0.898317 -0.201527 4.486254 0
M  V30 21 C -2.197731 -0.897342 4.622552 0
M  V30 22 F -2.111746 -2.102064 3.939289 0
M  V30 23 F -2.514056 -1.205341 5.943091 0
M  V30 24 F -3.194459 -0.115676 4.106028 0
M  V30 25 C -0.775125 1.039559 3.860152 0
M  V30 26 C -0.973804 -0.002255 0.327688 0
M  V30 27 C -2.331088 0.563345 0.137823 0
M  V30 28 C -0.732795 -1.372356 0.217228 0
M  V30 29 N 0.774538 -5.007436 -1.543301 0
M  V30 30 C 0.920995 -5.208972 -2.892020 0
M  V30 31 N 1.031773 -4.243018 -3.849432 0
M  V30 32 H 0.474090 0.242890 -4.649508 0
M  V30 33 H -0.854976 -1.022187 -4.583261 0
M  V30 34 H -0.043705 -0.496609 -3.089181 0
M  V30 35 H 1.907160 -1.562229 -4.926319 0
M  V30 36 H 0.798342 -1.729147 -1.789187 0
M  V30 37 H 2.570952 -1.533175 0.818198 0
M  V30 38 H 2.234654 0.956732 1.050700 0
M  V30 39 H -0.198869 2.471911 -0.307952 0
M  V30 40 H 0.288736 3.565876 3.852252 0
M  V30 41 H 2.459491 1.714301 4.021091 0
M  V30 42 H 2.418479 -0.530546 5.187876 0
M  V30 43 H -1.744246 1.404055 3.512628 0
M  V30 44 H -2.440002 1.548530 0.646343 0
M  V30 45 H -2.568768 0.679599 -0.939951 0
M  V30 46 H -3.106355 -0.100142 0.594516 0
M  V30 47 H -1.601784 -1.944209 -0.011970 0
M  V30 48 H 0.954419 -6.258014 -3.205805 0
M  V30 END ATOM
M  V30 BEGIN BOND
M  V30 1 1 1 2
M  V30 2 1 2 3
M  V30 3 2 3 4
M  V30 4 1 4 5
M  V30 5 1 5 6
M  V30 6 1 6 7
M  V30 7 2 7 8
M  V30 8 1 8 9
M  V30 9 2 9 10
M  V30 10 1 10 11
M  V30 11 1 11 12
M  V30 12 2 12 13
M  V30 13 1 12 14
M  V30 14 1 14 15
M  V30 15 2 15 16
M  V30 16 1 16 17
M  V30 17 2 17 18
M  V30 18 1 18 19
M  V30 19 1 18 20
M  V30 20 1 20 21
M  V30 21 1 21 22
M  V30 22 1 21 23
M  V30 23 1 21 24
M  V30 24 2 20 25
M  V30 25 1 10 26
M  V30 26 1 26 27
M  V30 27 2 26 28
M  V30 28 2 5 29
M  V30 29 1 29 30
M  V30 30 2 30 31
M  V30 31 1 31 3
M  V30 32 1 28 7
M  V30 33 1 25 15
M  V30 34 1 1 32
M  V30 35 1 1 33
M  V30 36 1 1 34
M  V30 37 1 2 35
M  V30 38 1 4 36
M  V30 39 1 8 37
M  V30 40 1 9 38
M  V30 41 1 11 39
M  V30 42 1 14 40
M  V30 43 1 16 41
M  V30 44 1 17 42
M  V30 45 1 25 43
M  V30 46 1 27 44
M  V30 47 1 27 45
M  V30 48 1 27 46
M  V30 49 1 28 47
M  V30 50 1 30 48
M  V30 END BOND
M  V30 END CTAB
M  END
>  <Dataset>  (496) 
ChEMBL_Kinases

>  <Ligand_Instance>  (496) 
nan

>  <PDB_ID>  (496) 
nan

>  <Standardized_SMILES>  (496) 
CNc1cc(Oc2ccc(NC(=S)Nc3ccc(Cl)c(C(F)(F)F)c3)c(C)c2)ncn1

>  <Name>  (496) 
nan

>  <Pocket>  (496) 
nan

>  <ATP_Site>  (496) 
nan

>  <Peripheral>  (496) 
nan

>  <Num_H_Atoms_ProtBoundConf>  (496) 
nan

>  <Num_Resolved_Atoms>  (496) 
nan

>  <Num_Not_Resolved_Atoms>  (496) 
nan

$$$$
CHEMBL4226806
     RDKit          3D

  0  0  0  0  0  0  0  0  0  0999 V3000
M  V30 BEGIN CTAB
M  V30 COUNTS 35 37 0 0 0
M  V30 BEGIN ATOM
M  V30 1 N -0.287633 -2.769319 5.229565 0
M  V30 2 C 0.515008 -2.816902 4.387019 0
M  V30 3 C 1.505446 -2.853434 3.348515 0
M  V30 4 C 2.688604 -3.532948 3.539966 0
M  V30 5 C 3.639554 -3.570065 2.542992 0
M  V30 6 C 3.337048 -2.903061 1.379040 0
M  V30 7 N 4.253978 -2.937987 0.409654 0
M  V30 8 C 4.107076 -2.343978 -0.771700 0
M  V30 9 N 2.983982 -1.668869 -1.020156 0
M  V30 10 C 1.998846 -1.565543 -0.127859 0
M  V30 11 N 0.749211 -0.914817 -0.162151 0
M  V30 12 C -0.496781 -0.265932 -0.196470 0
M  V30 13 C -0.448625 1.235201 -0.431985 0
M  V30 14 C -1.781983 1.836008 -0.450909 0
M  V30 15 C -2.434062 2.331593 0.654380 0
M  V30 16 C -3.708609 2.896520 0.567882 0
M  V30 17 C -4.256237 2.917580 -0.702965 0
M  V30 18 C -3.639460 2.432195 -1.840812 0
M  V30 19 C -2.367856 1.878562 -1.698529 0
M  V30 20 C 2.192586 -2.197183 1.084507 0
M  V30 21 C 1.289472 -2.214183 2.149194 0
M  V30 22 H 2.904507 -4.048202 4.458766 0
M  V30 23 H 4.594647 -4.094896 2.643542 0
M  V30 24 H 4.809889 -2.336401 -1.592583 0
M  V30 25 H 0.859514 -0.539538 -1.160518 0
M  V30 26 H -1.226999 -0.784919 -0.880437 0
M  V30 27 H -1.051752 -0.353554 0.805144 0
M  V30 28 H 0.123059 1.703369 0.392781 0
M  V30 29 H 0.133183 1.418727 -1.358896 0
M  V30 30 H -1.945830 2.282393 1.617591 0
M  V30 31 H -4.242092 3.293296 1.422691 0
M  V30 32 H -5.230944 3.335603 -0.850269 0
M  V30 33 H -4.132290 2.482908 -2.808107 0
M  V30 34 H -1.905360 1.505061 -2.604769 0
M  V30 35 H 0.365067 -1.708741 2.055176 0
M  V30 END ATOM
M  V30 BEGIN BOND
M  V30 1 3 1 2
M  V30 2 1 2 3
M  V30 3 2 3 4
M  V30 4 1 4 5
M  V30 5 2 5 6
M  V30 6 1 6 7
M  V30 7 2 7 8
M  V30 8 1 8 9
M  V30 9 2 9 10
M  V30 10 1 10 11
M  V30 11 1 11 12
M  V30 12 1 12 13
M  V30 13 1 13 14
M  V30 14 2 14 15
M  V30 15 1 15 16
M  V30 16 2 16 17
M  V30 17 1 17 18
M  V30 18 2 18 19
M  V30 19 1 10 20
M  V30 20 2 20 21
M  V30 21 1 21 3
M  V30 22 1 20 6
M  V30 23 1 19 14
M  V30 24 1 4 22
M  V30 25 1 5 23
M  V30 26 1 8 24
M  V30 27 1 11 25
M  V30 28 1 12 26
M  V30 29 1 12 27
M  V30 30 1 13 28
M  V30 31 1 13 29
M  V30 32 1 15 30
M  V30 33 1 16 31
M  V30 34 1 17 32
M  V30 35 1 18 33
M  V30 36 1 19 34
M  V30 37 1 21 35
M  V30 END BOND
M  V30 END CTAB
M  END
>  <Dataset>  (497) 
ChEMBL_Kinases

>  <Ligand_Instance>  (497) 
nan

>  <PDB_ID>  (497) 
nan

>  <Standardized_SMILES>  (497) 
N#Cc1ccc2ncnc(NCCc3ccccc3)c2c1

>  <Name>  (497) 
nan

>  <Pocket>  (497) 
nan

>  <ATP_Site>  (497) 
nan

>  <Peripheral>  (497) 
nan

>  <Num_H_Atoms_ProtBoundConf>  (497) 
nan

>  <Num_Resolved_Atoms>  (497) 
nan

>  <Num_Not_Resolved_Atoms>  (497) 
nan

$$$$
CHEMBL385049
     RDKit          3D

  0  0  0  0  0  0  0  0  0  0999 V3000
M  V30 BEGIN CTAB
M  V30 COUNTS 72 76 0 0 0
M  V30 BEGIN ATOM
M  V30 1 C 2.487197 -2.258926 3.747162 0
M  V30 2 O 1.762749 -2.776293 2.811856 0
M  V30 3 C 1.107537 -3.290991 1.904889 0
M  V30 4 C 1.189295 -4.157187 0.817090 0
M  V30 5 C 0.099994 -4.576893 -0.077096 0
M  V30 6 C 0.404529 -5.525717 -0.895282 0
M  V30 7 N 1.773072 -5.091521 -1.465722 0
M  V30 8 C 1.161536 -4.082880 -2.384311 0
M  V30 9 C 0.851154 -2.767186 -1.973838 0
M  V30 10 C 0.114946 -1.910522 -2.856380 0
M  V30 11 C -0.374482 -0.580600 -2.728424 0
M  V30 12 C -1.786775 -0.306428 -2.942987 0
M  V30 13 O -2.621715 -0.515585 -3.824531 0
M  V30 14 N -2.418147 0.427312 -1.842297 0
M  V30 15 C -3.744023 1.013439 -1.604378 0
M  V30 16 C -3.971486 1.667459 -0.416326 0
M  V30 17 C -5.165047 2.322175 -0.143427 0
M  V30 18 C -6.168107 2.343570 -1.046855 0
M  V30 19 C -5.994535 1.714683 -2.241987 0
M  V30 20 F -7.023243 1.782308 -3.098634 0
M  V30 21 C -4.785696 1.055975 -2.486108 0
M  V30 22 F -4.753039 0.479972 -3.688440 0
M  V30 23 N 0.021888 -2.857072 -3.882934 0
M  V30 24 N 0.575485 -4.016527 -3.641814 0
M  V30 25 N -0.400048 -6.368668 -1.681082 0
M  V30 26 C -1.758922 -5.847964 -1.314831 0
M  V30 27 N -1.991935 -4.875276 -0.520512 0
M  V30 28 C -1.165894 -4.055195 0.220620 0
M  V30 29 C -1.428157 -3.212155 1.179538 0
M  V30 30 C -0.312084 -2.904896 1.876598 0
M  V30 31 O -0.186813 -1.776271 2.815737 0
M  V30 32 C -1.214338 -0.828091 2.253648 0
M  V30 33 C -0.927013 0.557825 2.831968 0
M  V30 34 C 0.544150 0.902764 2.719508 0
M  V30 35 N 1.246039 1.022919 1.557365 0
M  V30 36 C 0.998491 2.177542 0.719872 0
M  V30 37 C 1.795035 3.315759 1.350200 0
M  V30 38 C 2.732715 2.686146 2.318893 0
M  V30 39 C 2.645534 1.214623 1.900345 0 CFG=2
M  V30 40 C 3.641789 0.975262 0.818476 0
M  V30 41 O 4.907923 1.208111 1.379595 0
M  V30 42 H 1.754256 -1.927575 4.679479 0
M  V30 43 H 3.065366 -2.978764 4.475390 0
M  V30 44 H 3.164595 -1.422766 3.683957 0
M  V30 45 H 2.166548 -4.563420 0.677517 0
M  V30 46 H 2.765918 -4.981904 -1.675181 0
M  V30 47 H 1.163251 -2.238694 -1.018932 0
M  V30 48 H 0.222341 0.078538 -3.455895 0
M  V30 49 H -0.013497 -0.161981 -1.738231 0
M  V30 50 H -1.789968 0.569976 -0.950635 0
M  V30 51 H -3.251812 1.751030 0.378485 0
M  V30 52 H -5.302158 2.821241 0.805022 0
M  V30 53 H -7.098477 2.873886 -0.776204 0
M  V30 54 H -0.452269 -2.708425 -4.769702 0
M  V30 55 H -2.434212 -6.433943 -1.913788 0
M  V30 56 H -2.351886 -2.857494 1.330388 0
M  V30 57 H -2.145103 -1.240431 2.448888 0
M  V30 58 H -0.917458 -0.783581 1.159495 0
M  V30 59 H -1.459100 1.247699 2.067456 0
M  V30 60 H -1.360170 0.751568 3.767482 0
M  V30 61 H 1.048411 0.059563 3.336676 0
M  V30 62 H 0.679220 1.776746 3.420306 0
M  V30 63 H -0.014221 2.425596 0.506458 0
M  V30 64 H 1.519776 2.009302 -0.277196 0
M  V30 65 H 1.090781 4.033425 1.769405 0
M  V30 66 H 2.371852 3.896985 0.569300 0
M  V30 67 H 3.750146 3.084382 2.139385 0
M  V30 68 H 2.374469 2.829471 3.354501 0
M  V30 69 H 2.832241 0.635113 2.803920 0
M  V30 70 H 3.484197 1.750885 0.031594 0
M  V30 71 H 3.590124 -0.016500 0.386837 0
M  V30 72 H 5.559549 0.516941 1.189297 0
M  V30 END ATOM
M  V30 BEGIN BOND
M  V30 1 1 1 2
M  V30 2 1 2 3
M  V30 3 2 3 4
M  V30 4 1 4 5
M  V30 5 2 5 6
M  V30 6 1 6 7
M  V30 7 1 7 8
M  V30 8 1 8 9
M  V30 9 2 9 10
M  V30 10 1 10 11
M  V30 11 1 11 12
M  V30 12 2 12 13
M  V30 13 1 12 14
M  V30 14 1 14 15
M  V30 15 2 15 16
M  V30 16 1 16 17
M  V30 17 2 17 18
M  V30 18 1 18 19
M  V30 19 1 19 20
M  V30 20 2 19 21
M  V30 21 1 21 22
M  V30 22 1 10 23
M  V30 23 1 23 24
M  V30 24 1 6 25
M  V30 25 2 25 26
M  V30 26 1 26 27
M  V30 27 2 27 28
M  V30 28 1 28 29
M  V30 29 2 29 30
M  V30 30 1 30 31
M  V30 31 1 31 32
M  V30 32 1 32 33
M  V30 33 1 33 34
M  V30 34 1 34 35
M  V30 35 1 35 36
M  V30 36 1 36 37
M  V30 37 1 37 38
M  V30 38 1 38 39
M  V30 39 1 39 40
M  V30 40 1 40 41
M  V30 41 1 30 3
M  V30 42 1 39 35
M  V30 43 1 28 5
M  V30 44 2 24 8
M  V30 45 1 21 15
M  V30 46 1 1 42
M  V30 47 1 1 43
M  V30 48 1 1 44
M  V30 49 1 4 45
M  V30 50 1 7 46
M  V30 51 1 9 47
M  V30 52 1 11 48
M  V30 53 1 11 49
M  V30 54 1 14 50
M  V30 55 1 16 51
M  V30 56 1 17 52
M  V30 57 1 18 53
M  V30 58 1 23 54
M  V30 59 1 26 55
M  V30 60 1 29 56
M  V30 61 1 32 57
M  V30 62 1 32 58
M  V30 63 1 33 59
M  V30 64 1 33 60
M  V30 65 1 34 61
M  V30 66 1 34 62
M  V30 67 1 36 63
M  V30 68 1 36 64
M  V30 69 1 37 65
M  V30 70 1 37 66
M  V30 71 1 38 67
M  V30 72 1 38 68
M  V30 73 1 39 69 CFG=1
M  V30 74 1 40 70
M  V30 75 1 40 71
M  V30 76 1 41 72
M  V30 END BOND
M  V30 END CTAB
M  END
>  <Dataset>  (498) 
ChEMBL_Kinases

>  <Ligand_Instance>  (498) 
nan

>  <PDB_ID>  (498) 
nan

>  <Standardized_SMILES>  (498) 
COc1cc2c(Nc3cc(CC(=O)Nc4cccc(F)c4F)[nH]n3)ncnc2cc1OCCCN1CCC[C@@H]1CO

>  <Name>  (498) 
nan

>  <Pocket>  (498) 
nan

>  <ATP_Site>  (498) 
nan

>  <Peripheral>  (498) 
nan

>  <Num_H_Atoms_ProtBoundConf>  (498) 
nan

>  <Num_Resolved_Atoms>  (498) 
nan

>  <Num_Not_Resolved_Atoms>  (498) 
nan

$$$$
CHEMBL4084955
     RDKit          3D

  0  0  0  0  0  0  0  0  0  0999 V3000
M  V30 BEGIN CTAB
M  V30 COUNTS 24 26 0 0 0
M  V30 BEGIN ATOM
M  V30 1 C 1.669232 -0.147665 4.300975 0
M  V30 2 C 1.072043 -0.716221 3.182779 0
M  V30 3 C 1.247837 -0.145810 1.940022 0
M  V30 4 C 0.620023 -0.751555 0.795731 0
M  V30 5 C 0.655238 -2.116310 0.588892 0
M  V30 6 N -0.004803 -2.373223 -0.540593 0
M  V30 7 C -0.482649 -1.258702 -1.106307 0
M  V30 8 C -1.214463 -0.903425 -2.234645 0
M  V30 9 N -1.514801 0.371915 -2.478866 0
M  V30 10 C -1.132115 1.358055 -1.661772 0
M  V30 11 C -0.402102 1.069957 -0.523378 0
M  V30 12 C -0.093403 -0.236874 -0.271569 0
M  V30 13 C 2.022368 0.981694 1.868855 0
M  V30 14 C 2.595920 1.518336 2.979541 0
M  V30 15 N 2.423804 0.965048 4.176019 0
M  V30 16 H 1.533567 -0.592371 5.277346 0
M  V30 17 H 0.476202 -1.616294 3.365438 0
M  V30 18 H 1.117819 -2.894540 1.194731 0
M  V30 19 H -0.151941 -3.316853 -0.964027 0
M  V30 20 H -1.506198 -1.726756 -2.871498 0
M  V30 21 H -1.389779 2.395465 -1.882200 0
M  V30 22 H -0.087126 1.861775 0.145292 0
M  V30 23 H 2.191451 1.466627 0.921956 0
M  V30 24 H 3.206016 2.399473 2.951289 0
M  V30 END ATOM
M  V30 BEGIN BOND
M  V30 1 2 1 2
M  V30 2 1 2 3
M  V30 3 1 3 4
M  V30 4 2 4 5
M  V30 5 1 5 6
M  V30 6 1 6 7
M  V30 7 2 7 8
M  V30 8 1 8 9
M  V30 9 2 9 10
M  V30 10 1 10 11
M  V30 11 2 11 12
M  V30 12 2 3 13
M  V30 13 1 13 14
M  V30 14 2 14 15
M  V30 15 1 15 1
M  V30 16 1 12 4
M  V30 17 1 12 7
M  V30 18 1 1 16
M  V30 19 1 2 17
M  V30 20 1 5 18
M  V30 21 1 6 19
M  V30 22 1 8 20
M  V30 23 1 10 21
M  V30 24 1 11 22
M  V30 25 1 13 23
M  V30 26 1 14 24
M  V30 END BOND
M  V30 END CTAB
M  END
>  <Dataset>  (499) 
ChEMBL_Kinases

>  <Ligand_Instance>  (499) 
nan

>  <PDB_ID>  (499) 
nan

>  <Standardized_SMILES>  (499) 
c1cc(-c2c[nH]c3cnccc23)ccn1

>  <Name>  (499) 
nan

>  <Pocket>  (499) 
nan

>  <ATP_Site>  (499) 
nan

>  <Peripheral>  (499) 
nan

>  <Num_H_Atoms_ProtBoundConf>  (499) 
nan

>  <Num_Resolved_Atoms>  (499) 
nan

>  <Num_Not_Resolved_Atoms>  (499) 
nan

$$$$
CHEMBL4084953
     RDKit          3D

  0  0  0  0  0  0  0  0  0  0999 V3000
M  V30 BEGIN CTAB
M  V30 COUNTS 51 55 0 0 0
M  V30 BEGIN ATOM
M  V30 1 C -1.907058 -6.325406 4.802103 0
M  V30 2 C -1.039111 -5.416790 3.993965 0
M  V30 3 C -0.083976 -4.704153 4.669624 0
M  V30 4 C 0.781045 -3.827262 4.023936 0
M  V30 5 C 0.623554 -3.711842 2.646432 0
M  V30 6 C 1.240757 -2.988118 1.658361 0
M  V30 7 C 2.343361 -2.073296 1.918392 0
M  V30 8 C 2.495614 -0.917747 1.289195 0
M  V30 9 O 1.634712 -0.434594 0.313163 0
M  V30 10 C 2.036978 0.793877 -0.170453 0
M  V30 11 C 3.192289 1.143136 0.494546 0
M  V30 12 C 3.875345 2.325170 0.257105 0
M  V30 13 C 3.301432 3.149984 -0.718278 0
M  V30 14 C 2.146519 2.839078 -1.407713 0
M  V30 15 O 1.627256 3.700823 -2.365728 0
M  V30 16 C 1.501405 1.648033 -1.135225 0
M  V30 17 C 0.280571 1.202638 -1.797228 0
M  V30 18 N -0.927107 1.279723 -1.057920 0
M  V30 19 C -1.349197 2.543627 -0.591102 0
M  V30 20 C -2.724986 2.856057 -1.073465 0
M  V30 21 N -3.642333 1.860070 -0.577228 0
M  V30 22 C -3.260659 0.515658 -0.914104 0
M  V30 23 C -1.923438 0.423480 -1.594128 0
M  V30 24 C 3.563419 0.087695 1.462643 0
M  V30 25 O 4.496879 -0.040747 2.265242 0
M  V30 26 C 0.629330 -3.305402 0.473413 0
M  V30 27 N -0.367764 -4.214943 0.664218 0
M  V30 28 C -0.349770 -4.445822 1.999763 0
M  V30 29 N -1.174696 -5.291252 2.665706 0
M  V30 30 H -2.873213 -5.799691 4.967143 0
M  V30 31 H -2.075041 -7.249500 4.188786 0
M  V30 32 H -1.389495 -6.617843 5.728083 0
M  V30 33 H 0.080675 -4.757334 5.740349 0
M  V30 34 H 1.553151 -3.238742 4.502070 0
M  V30 35 H 3.100302 -2.325160 2.666378 0
M  V30 36 H 4.772370 2.599415 0.770664 0
M  V30 37 H 3.767802 4.109449 -0.978077 0
M  V30 38 H 1.326529 4.621938 -2.007987 0
M  V30 39 H 0.399597 0.115418 -2.086047 0
M  V30 40 H 0.187183 1.712451 -2.790452 0
M  V30 41 H -0.610522 3.326880 -0.854987 0
M  V30 42 H -1.429777 2.459131 0.534649 0
M  V30 43 H -3.104492 3.834450 -0.648068 0
M  V30 44 H -2.839436 2.968585 -2.160616 0
M  V30 45 H -4.619086 2.093714 -0.775730 0
M  V30 46 H -3.322778 -0.104670 0.004800 0
M  V30 47 H -4.018251 0.114562 -1.618703 0
M  V30 48 H -2.033966 0.469197 -2.690286 0
M  V30 49 H -1.569725 -0.631177 -1.392429 0
M  V30 50 H 0.905903 -2.882138 -0.504114 0
M  V30 51 H -0.980395 -4.617316 -0.065999 0
M  V30 END ATOM
M  V30 BEGIN BOND
M  V30 1 1 1 2
M  V30 2 2 2 3
M  V30 3 1 3 4
M  V30 4 2 4 5
M  V30 5 1 5 6
M  V30 6 1 6 7
M  V30 7 2 7 8
M  V30 8 1 8 9
M  V30 9 1 9 10
M  V30 10 2 10 11
M  V30 11 1 11 12
M  V30 12 2 12 13
M  V30 13 1 13 14
M  V30 14 1 14 15
M  V30 15 2 14 16
M  V30 16 1 16 17
M  V30 17 1 17 18
M  V30 18 1 18 19
M  V30 19 1 19 20
M  V30 20 1 20 21
M  V30 21 1 21 22
M  V30 22 1 22 23
M  V30 23 1 11 24
M  V30 24 2 24 25
M  V30 25 2 6 26
M  V30 26 1 26 27
M  V30 27 1 27 28
M  V30 28 2 28 29
M  V30 29 1 29 2
M  V30 30 1 28 5
M  V30 31 1 24 8
M  V30 32 1 16 10
M  V30 33 1 23 18
M  V30 34 1 1 30
M  V30 35 1 1 31
M  V30 36 1 1 32
M  V30 37 1 3 33
M  V30 38 1 4 34
M  V30 39 1 7 35
M  V30 40 1 12 36
M  V30 41 1 13 37
M  V30 42 1 15 38
M  V30 43 1 17 39
M  V30 44 1 17 40
M  V30 45 1 19 41
M  V30 46 1 19 42
M  V30 47 1 20 43
M  V30 48 1 20 44
M  V30 49 1 21 45
M  V30 50 1 22 46
M  V30 51 1 22 47
M  V30 52 1 23 48
M  V30 53 1 23 49
M  V30 54 1 26 50
M  V30 55 1 27 51
M  V30 END BOND
M  V30 END CTAB
M  END
>  <Dataset>  (500) 
ChEMBL_Kinases

>  <Ligand_Instance>  (500) 
nan

>  <PDB_ID>  (500) 
nan

>  <Standardized_SMILES>  (500) 
Cc1ccc2c(/C=C3\Oc4c(ccc(O)c4CN4CCNCC4)C3=O)c[nH]c2n1

>  <Name>  (500) 
nan

>  <Pocket>  (500) 
nan

>  <ATP_Site>  (500) 
nan

>  <Peripheral>  (500) 
nan

>  <Num_H_Atoms_ProtBoundConf>  (500) 
nan

>  <Num_Resolved_Atoms>  (500) 
nan

>  <Num_Not_Resolved_Atoms>  (500) 
nan

$$$$
CHEMBL385177
     RDKit          3D

  0  0  0  0  0  0  0  0  0  0999 V3000
M  V30 BEGIN CTAB
M  V30 COUNTS 51 53 0 0 0
M  V30 BEGIN ATOM
M  V30 1 C -0.157799 0.193127 7.470800 0
M  V30 2 S 1.557162 -0.230666 7.471114 0
M  V30 3 O 2.319892 0.743325 8.336255 0
M  V30 4 O 1.729190 -1.632805 7.994032 0
M  V30 5 C 2.140282 -0.206445 5.824759 0
M  V30 6 C 2.661652 0.916136 5.217660 0
M  V30 7 C 3.118600 0.914840 3.916742 0
M  V30 8 C 3.072665 -0.230082 3.153921 0
M  V30 9 C 3.523275 -0.392057 1.741730 0
M  V30 10 N 2.419375 -0.120256 0.839889 0
M  V30 11 C 1.913479 1.141647 0.494557 0
M  V30 12 O 2.400585 2.187297 0.962102 0
M  V30 13 C 0.793049 1.269734 -0.429781 0
M  V30 14 C 0.263193 2.479093 -0.800465 0
M  V30 15 C -0.792841 2.575178 -1.675304 0
M  V30 16 N -1.328191 3.833920 -2.047055 0
M  V30 17 C -1.280677 1.390413 -2.151490 0
M  V30 18 C -2.376241 1.482781 -3.064486 0
M  V30 19 N -3.256282 1.576449 -3.807080 0
M  V30 20 C -0.791025 0.155124 -1.815458 0
M  V30 21 C -1.243142 -1.134898 -2.264689 0
M  V30 22 C -2.116554 -1.702309 -3.015230 0
M  V30 23 C -2.415947 -3.088870 -3.345185 0
M  V30 24 C -1.697214 -4.142092 -2.820454 0
M  V30 25 C -1.986415 -5.452170 -3.137429 0
M  V30 26 C -3.025178 -5.707979 -4.004415 0
M  V30 27 C -3.726527 -4.642966 -4.514090 0
M  V30 28 C -3.457308 -3.329373 -4.213125 0
M  V30 29 N 0.239500 0.181216 -0.954907 0
M  V30 30 C 2.544640 -1.354847 3.778000 0
M  V30 31 C 2.082430 -1.371605 5.079871 0
M  V30 32 H -0.335843 1.038450 8.175970 0
M  V30 33 H -0.508306 0.424985 6.449036 0
M  V30 34 H -0.767850 -0.681782 7.827428 0
M  V30 35 H 2.713499 1.834135 5.786975 0
M  V30 36 H 3.530711 1.784517 3.426631 0
M  V30 37 H 4.357757 0.333116 1.527107 0
M  V30 38 H 3.885978 -1.421614 1.612825 0
M  V30 39 H 1.941111 -0.954974 0.392718 0
M  V30 40 H 0.688325 3.375906 -0.393183 0
M  V30 41 H -0.937117 4.079192 -2.994368 0
M  V30 42 H -1.961914 4.581850 -1.710856 0
M  V30 43 H -0.698337 -2.007249 -1.873455 0
M  V30 44 H -2.708322 -0.916853 -3.450123 0
M  V30 45 H -0.874319 -3.997067 -2.137226 0
M  V30 46 H -1.438431 -6.303332 -2.739971 0
M  V30 47 H -3.327746 -6.695743 -4.312588 0
M  V30 48 H -4.562782 -4.812271 -5.209786 0
M  V30 49 H -4.031912 -2.522158 -4.635504 0
M  V30 50 H 2.477984 -2.285767 3.239772 0
M  V30 51 H 1.677589 -2.280910 5.522467 0
M  V30 END ATOM
M  V30 BEGIN BOND
M  V30 1 1 1 2
M  V30 2 2 2 3
M  V30 3 2 2 4
M  V30 4 1 2 5
M  V30 5 2 5 6
M  V30 6 1 6 7
M  V30 7 2 7 8
M  V30 8 1 8 9
M  V30 9 1 9 10
M  V30 10 1 10 11
M  V30 11 2 11 12
M  V30 12 1 11 13
M  V30 13 2 13 14
M  V30 14 1 14 15
M  V30 15 1 15 16
M  V30 16 2 15 17
M  V30 17 1 17 18
M  V30 18 3 18 19
M  V30 19 1 17 20
M  V30 20 1 20 21
M  V30 21 2 21 22
M  V30 22 1 22 23
M  V30 23 2 23 24
M  V30 24 1 24 25
M  V30 25 2 25 26
M  V30 26 1 26 27
M  V30 27 2 27 28
M  V30 28 2 20 29
M  V30 29 1 8 30
M  V30 30 2 30 31
M  V30 31 1 31 5
M  V30 32 1 29 13
M  V30 33 1 28 23
M  V30 34 1 1 32
M  V30 35 1 1 33
M  V30 36 1 1 34
M  V30 37 1 6 35
M  V30 38 1 7 36
M  V30 39 1 9 37
M  V30 40 1 9 38
M  V30 41 1 10 39
M  V30 42 1 14 40
M  V30 43 1 16 41
M  V30 44 1 16 42
M  V30 45 1 21 43
M  V30 46 1 22 44
M  V30 47 1 24 45
M  V30 48 1 25 46
M  V30 49 1 26 47
M  V30 50 1 27 48
M  V30 51 1 28 49
M  V30 52 1 30 50
M  V30 53 1 31 51
M  V30 END BOND
M  V30 END CTAB
M  END
>  <Dataset>  (501) 
ChEMBL_Kinases

>  <Ligand_Instance>  (501) 
nan

>  <PDB_ID>  (501) 
nan

>  <Standardized_SMILES>  (501) 
CS(=O)(=O)c1ccc(CNC(=O)c2cc(N)c(C#N)c(/C=C/c3ccccc3)n2)cc1

>  <Name>  (501) 
nan

>  <Pocket>  (501) 
nan

>  <ATP_Site>  (501) 
nan

>  <Peripheral>  (501) 
nan

>  <Num_H_Atoms_ProtBoundConf>  (501) 
nan

>  <Num_Resolved_Atoms>  (501) 
nan

>  <Num_Not_Resolved_Atoms>  (501) 
nan

$$$$
CHEMBL385190
     RDKit          3D

  0  0  0  0  0  0  0  0  0  0999 V3000
M  V30 BEGIN CTAB
M  V30 COUNTS 54 56 0 0 0
M  V30 BEGIN ATOM
M  V30 1 C 2.548463 0.274040 6.743418 0
M  V30 2 C 2.826476 0.080125 5.255756 0
M  V30 3 S 3.201077 -1.643037 5.040470 0
M  V30 4 O 1.966695 -2.388154 5.503474 0
M  V30 5 O 4.306055 -2.000150 5.989542 0
M  V30 6 N 3.545651 -2.111432 3.473868 0
M  V30 7 C 4.647903 -1.554681 2.810348 0
M  V30 8 C 4.352898 -1.030505 1.420169 0
M  V30 9 C 2.860552 -1.080832 1.242556 0
M  V30 10 N 2.410597 -0.473609 0.018206 0
M  V30 11 C 1.052465 -0.368651 -0.401489 0
M  V30 12 N 0.751057 0.231332 -1.593008 0
M  V30 13 C -0.535870 0.336621 -1.999035 0
M  V30 14 C -1.537830 -0.167294 -1.198466 0
M  V30 15 C -2.948524 -0.101257 -1.553180 0
M  V30 16 O -3.801456 -0.597661 -0.773646 0
M  V30 17 C -3.633263 0.454275 -2.696106 0
M  V30 18 C -3.366766 1.697308 -3.229198 0
M  V30 19 C -3.993957 2.268910 -4.313483 0
M  V30 20 C -4.989643 1.529601 -4.933391 0
M  V30 21 C -5.308098 0.276698 -4.451656 0
M  V30 22 C -4.643959 -0.263214 -3.347176 0
M  V30 23 O -4.926291 -1.517494 -2.823811 0
M  V30 24 C -5.919999 -2.334369 -3.389393 0
M  V30 25 C -1.261418 -0.777107 0.007629 0
M  V30 26 N -2.193025 -1.336445 0.924459 0
M  V30 27 N 0.056561 -0.852552 0.361662 0
M  V30 28 C 2.463219 -2.537711 1.351763 0
M  V30 29 C 2.632861 -2.923971 2.798634 0
M  V30 30 H 2.186293 -0.687324 7.205188 0
M  V30 31 H 1.751064 1.050997 6.894459 0
M  V30 32 H 3.454558 0.635815 7.267390 0
M  V30 33 H 1.967510 0.420802 4.667517 0
M  V30 34 H 3.770227 0.639881 5.022737 0
M  V30 35 H 5.442657 -2.324325 2.698826 0
M  V30 36 H 5.081832 -0.757378 3.456033 0
M  V30 37 H 4.862538 -1.602306 0.640729 0
M  V30 38 H 4.656297 0.035511 1.389269 0
M  V30 39 H 2.403754 -0.547866 2.101552 0
M  V30 40 H 3.160012 -0.084042 -0.598694 0
M  V30 41 H -0.762629 0.805395 -2.932550 0
M  V30 42 H -2.602209 2.318260 -2.784486 0
M  V30 43 H -3.740679 3.245868 -4.683763 0
M  V30 44 H -5.539581 1.890971 -5.790746 0
M  V30 45 H -6.083901 -0.318133 -4.921856 0
M  V30 46 H -6.262410 -3.116213 -2.676825 0
M  V30 47 H -6.822981 -1.785530 -3.712448 0
M  V30 48 H -5.572173 -2.891491 -4.292212 0
M  V30 49 H -2.252085 -2.378291 1.107358 0
M  V30 50 H -2.711362 -0.482037 1.290027 0
M  V30 51 H 3.059716 -3.179136 0.671384 0
M  V30 52 H 1.412809 -2.677521 1.047208 0
M  V30 53 H 1.629189 -2.812230 3.285958 0
M  V30 54 H 2.840081 -4.011915 2.817728 0
M  V30 END ATOM
M  V30 BEGIN BOND
M  V30 1 1 1 2
M  V30 2 1 2 3
M  V30 3 2 3 4
M  V30 4 2 3 5
M  V30 5 1 3 6
M  V30 6 1 6 7
M  V30 7 1 7 8
M  V30 8 1 8 9
M  V30 9 1 9 10
M  V30 10 1 10 11
M  V30 11 2 11 12
M  V30 12 1 12 13
M  V30 13 2 13 14
M  V30 14 1 14 15
M  V30 15 2 15 16
M  V30 16 1 15 17
M  V30 17 2 17 18
M  V30 18 1 18 19
M  V30 19 2 19 20
M  V30 20 1 20 21
M  V30 21 2 21 22
M  V30 22 1 22 23
M  V30 23 1 23 24
M  V30 24 1 14 25
M  V30 25 1 25 26
M  V30 26 2 25 27
M  V30 27 1 9 28
M  V30 28 1 28 29
M  V30 29 1 29 6
M  V30 30 1 27 11
M  V30 31 1 22 17
M  V30 32 1 1 30
M  V30 33 1 1 31
M  V30 34 1 1 32
M  V30 35 1 2 33
M  V30 36 1 2 34
M  V30 37 1 7 35
M  V30 38 1 7 36
M  V30 39 1 8 37
M  V30 40 1 8 38
M  V30 41 1 9 39
M  V30 42 1 10 40
M  V30 43 1 13 41
M  V30 44 1 18 42
M  V30 45 1 19 43
M  V30 46 1 20 44
M  V30 47 1 21 45
M  V30 48 1 24 46
M  V30 49 1 24 47
M  V30 50 1 24 48
M  V30 51 1 26 49
M  V30 52 1 26 50
M  V30 53 1 28 51
M  V30 54 1 28 52
M  V30 55 1 29 53
M  V30 56 1 29 54
M  V30 END BOND
M  V30 END CTAB
M  END
>  <Dataset>  (502) 
ChEMBL_Kinases

>  <Ligand_Instance>  (502) 
nan

>  <PDB_ID>  (502) 
nan

>  <Standardized_SMILES>  (502) 
CCS(=O)(=O)N1CCC(Nc2ncc(C(=O)c3ccccc3OC)c(N)n2)CC1

>  <Name>  (502) 
nan

>  <Pocket>  (502) 
nan

>  <ATP_Site>  (502) 
nan

>  <Peripheral>  (502) 
nan

>  <Num_H_Atoms_ProtBoundConf>  (502) 
nan

>  <Num_Resolved_Atoms>  (502) 
nan

>  <Num_Not_Resolved_Atoms>  (502) 
nan

$$$$
CHEMBL385266
     RDKit          3D

  0  0  0  0  0  0  0  0  0  0999 V3000
M  V30 BEGIN CTAB
M  V30 COUNTS 61 65 0 0 0
M  V30 BEGIN ATOM
M  V30 1 C 6.503395 -4.189761 3.565323 0
M  V30 2 N 6.051810 -2.866713 3.949214 0
M  V30 3 C 6.293391 -1.881485 2.938998 0
M  V30 4 C 5.221051 -1.984671 1.858731 0
M  V30 5 N 4.009761 -1.432539 2.433044 0
M  V30 6 C 3.033641 -0.682192 1.719505 0
M  V30 7 C 1.919298 -0.199051 2.376364 0
M  V30 8 C 0.956429 0.538755 1.679824 0
M  V30 9 C 1.163955 0.760783 0.326308 0
M  V30 10 C 0.134582 1.534469 -0.359760 0
M  V30 11 O -0.850782 1.944248 0.291020 0
M  V30 12 N 0.153292 1.871139 -1.733385 0
M  V30 13 C -0.999923 2.632693 -2.085937 0
M  V30 14 N -1.307228 3.924958 -2.121445 0
M  V30 15 N -2.547148 4.114356 -2.534470 0
M  V30 16 C -3.135542 2.935513 -2.798577 0
M  V30 17 C -2.150978 1.982711 -2.513691 0
M  V30 18 C -2.799480 0.653592 -2.806624 0
M  V30 19 N -4.183902 0.913944 -2.580051 0
M  V30 20 C -5.130532 0.143560 -1.873015 0
M  V30 21 O -4.146830 -0.621342 -1.696370 0
M  V30 22 C -6.115520 -0.640736 -1.147402 0 CFG=2
M  V30 23 F -6.653639 0.161303 -0.145976 0
M  V30 24 C -5.621538 -1.893338 -0.552375 0
M  V30 25 C -6.089160 -3.175526 -0.763216 0
M  V30 26 C -5.530065 -4.261903 -0.136969 0
M  V30 27 C -4.482615 -4.091568 0.721226 0
M  V30 28 C -3.985639 -2.809953 0.956865 0
M  V30 29 C -4.549855 -1.718829 0.325635 0
M  V30 30 C -4.354940 2.171072 -3.255588 0
M  V30 31 C 2.277357 0.278324 -0.331066 0
M  V30 32 C 3.231361 -0.455930 0.371846 0
M  V30 33 C 3.867859 -1.717725 3.845963 0
M  V30 34 C 4.660797 -2.931396 4.264008 0
M  V30 35 H 5.899623 -4.936326 4.131771 0
M  V30 36 H 6.212866 -4.345906 2.499784 0
M  V30 37 H 7.593088 -4.322192 3.723017 0
M  V30 38 H 7.313233 -1.967134 2.522924 0
M  V30 39 H 6.181990 -0.879463 3.411704 0
M  V30 40 H 5.098164 -2.989766 1.459661 0
M  V30 41 H 5.619901 -1.360011 1.012498 0
M  V30 42 H 1.732640 -0.356932 3.429242 0
M  V30 43 H 0.083180 0.908880 2.227956 0
M  V30 44 H 0.960704 1.546052 -2.309440 0
M  V30 45 H -3.027665 5.033509 -2.649198 0
M  V30 46 H -2.584123 0.314927 -3.835779 0
M  V30 47 H -2.339633 -0.081657 -2.104528 0
M  V30 48 H -6.959127 -0.899477 -1.820699 0
M  V30 49 H -6.912350 -3.251389 -1.445930 0
M  V30 50 H -5.960527 -5.236406 -0.360518 0
M  V30 51 H -4.091375 -4.988346 1.178951 0
M  V30 52 H -3.156751 -2.797768 1.653455 0
M  V30 53 H -4.033862 -0.810583 0.630588 0
M  V30 54 H -5.278576 2.697847 -2.889790 0
M  V30 55 H -4.306740 2.074170 -4.341088 0
M  V30 56 H 2.422122 0.461973 -1.389045 0
M  V30 57 H 4.077187 -0.804491 -0.198874 0
M  V30 58 H 4.060345 -0.832342 4.475707 0
M  V30 59 H 2.788041 -2.001219 4.011337 0
M  V30 60 H 4.177763 -3.841572 3.852247 0
M  V30 61 H 4.559406 -3.001757 5.371522 0
M  V30 END ATOM
M  V30 BEGIN BOND
M  V30 1 1 1 2
M  V30 2 1 2 3
M  V30 3 1 3 4
M  V30 4 1 4 5
M  V30 5 1 5 6
M  V30 6 2 6 7
M  V30 7 1 7 8
M  V30 8 2 8 9
M  V30 9 1 9 10
M  V30 10 2 10 11
M  V30 11 1 10 12
M  V30 12 1 12 13
M  V30 13 2 13 14
M  V30 14 1 14 15
M  V30 15 1 15 16
M  V30 16 2 16 17
M  V30 17 1 17 18
M  V30 18 1 18 19
M  V30 19 1 19 20
M  V30 20 2 20 21
M  V30 21 1 20 22
M  V30 22 1 22 23
M  V30 23 1 22 24
M  V30 24 2 24 25
M  V30 25 1 25 26
M  V30 26 2 26 27
M  V30 27 1 27 28
M  V30 28 2 28 29
M  V30 29 1 19 30
M  V30 30 1 9 31
M  V30 31 2 31 32
M  V30 32 1 5 33
M  V30 33 1 33 34
M  V30 34 1 34 2
M  V30 35 1 32 6
M  V30 36 1 17 13
M  V30 37 1 29 24
M  V30 38 1 30 16
M  V30 39 1 1 35
M  V30 40 1 1 36
M  V30 41 1 1 37
M  V30 42 1 3 38
M  V30 43 1 3 39
M  V30 44 1 4 40
M  V30 45 1 4 41
M  V30 46 1 7 42
M  V30 47 1 8 43
M  V30 48 1 12 44
M  V30 49 1 15 45
M  V30 50 1 18 46
M  V30 51 1 18 47
M  V30 52 1 22 48 CFG=3
M  V30 53 1 25 49
M  V30 54 1 26 50
M  V30 55 1 27 51
M  V30 56 1 28 52
M  V30 57 1 29 53
M  V30 58 1 30 54
M  V30 59 1 30 55
M  V30 60 1 31 56
M  V30 61 1 32 57
M  V30 62 1 33 58
M  V30 63 1 33 59
M  V30 64 1 34 60
M  V30 65 1 34 61
M  V30 END BOND
M  V30 END CTAB
M  END
>  <Dataset>  (503) 
ChEMBL_Kinases

>  <Ligand_Instance>  (503) 
nan

>  <PDB_ID>  (503) 
nan

>  <Standardized_SMILES>  (503) 
CN1CCN(c2ccc(C(=O)Nc3n[nH]c4c3CN(C(=O)[C@H](F)c3ccccc3)C4)cc2)CC1

>  <Name>  (503) 
nan

>  <Pocket>  (503) 
nan

>  <ATP_Site>  (503) 
nan

>  <Peripheral>  (503) 
nan

>  <Num_H_Atoms_ProtBoundConf>  (503) 
nan

>  <Num_Resolved_Atoms>  (503) 
nan

>  <Num_Not_Resolved_Atoms>  (503) 
nan

$$$$
CHEMBL385349
     RDKit          3D

  0  0  0  0  0  0  0  0  0  0999 V3000
M  V30 BEGIN CTAB
M  V30 COUNTS 41 45 0 0 0
M  V30 BEGIN ATOM
M  V30 1 O 3.511073 1.027673 1.020172 0
M  V30 2 C 2.845736 0.114755 1.570429 0
M  V30 3 N 3.224764 -0.660699 2.726530 0
M  V30 4 C 2.184754 -1.577618 3.005690 0
M  V30 5 O 2.371438 -2.316437 3.979583 0
M  V30 6 C 1.122746 -1.424887 2.056291 0
M  V30 7 C 1.538976 -0.418854 1.220845 0
M  V30 8 C 0.745129 -0.009861 0.168578 0
M  V30 9 C 0.979156 1.041875 -0.813122 0
M  V30 10 C 0.829574 0.690446 -2.160348 0
M  V30 11 C 0.994797 1.539917 -3.234248 0
M  V30 12 C 1.336266 2.842261 -2.936317 0
M  V30 13 C 1.497086 3.246566 -1.629778 0
M  V30 14 C 1.864957 4.653797 -1.326841 0
M  V30 15 O 0.679374 5.391305 -1.178835 0
M  V30 16 C 1.320294 2.358954 -0.594203 0
M  V30 17 C -0.492653 -0.635074 -0.038503 0
M  V30 18 C -0.898307 -1.645678 0.809504 0
M  V30 19 N -2.024412 -2.405514 0.838630 0
M  V30 20 C -1.881692 -3.236412 1.889176 0
M  V30 21 C -2.798972 -4.192091 2.295971 0
M  V30 22 C -2.544847 -4.990518 3.392395 0
M  V30 23 C -1.338919 -4.808845 4.079860 0
M  V30 24 O -1.074393 -5.603894 5.180175 0
M  V30 25 C -0.480710 -3.839653 3.613897 0
M  V30 26 C -0.685577 -3.028590 2.539585 0
M  V30 27 C -0.079158 -2.024939 1.847918 0
M  V30 28 H 4.160831 -0.468486 3.192891 0
M  V30 29 H 0.561188 -0.330126 -2.411347 0
M  V30 30 H 0.861027 1.190167 -4.242060 0
M  V30 31 H 1.483606 3.568833 -3.726142 0
M  V30 32 H 2.369848 4.665627 -0.342619 0
M  V30 33 H 2.506551 5.080659 -2.124866 0
M  V30 34 H -0.122473 4.819811 -1.377935 0
M  V30 35 H 1.429109 2.644258 0.440381 0
M  V30 36 H -1.198265 -0.385154 -0.845805 0
M  V30 37 H -2.831410 -2.337713 0.163284 0
M  V30 38 H -3.735721 -4.352045 1.783374 0
M  V30 39 H -3.273153 -5.730238 3.693680 0
M  V30 40 H -1.814766 -5.788905 5.844230 0
M  V30 41 H 0.409984 -3.760724 4.184985 0
M  V30 END ATOM
M  V30 BEGIN BOND
M  V30 1 2 1 2
M  V30 2 1 2 3
M  V30 3 1 3 4
M  V30 4 2 4 5
M  V30 5 1 4 6
M  V30 6 2 6 7
M  V30 7 1 7 8
M  V30 8 1 8 9
M  V30 9 2 9 10
M  V30 10 1 10 11
M  V30 11 2 11 12
M  V30 12 1 12 13
M  V30 13 1 13 14
M  V30 14 1 14 15
M  V30 15 2 13 16
M  V30 16 2 8 17
M  V30 17 1 17 18
M  V30 18 1 18 19
M  V30 19 1 19 20
M  V30 20 2 20 21
M  V30 21 1 21 22
M  V30 22 2 22 23
M  V30 23 1 23 24
M  V30 24 1 23 25
M  V30 25 2 25 26
M  V30 26 1 26 27
M  V30 27 1 7 2
M  V30 28 1 16 9
M  V30 29 2 27 18
M  V30 30 1 27 6
M  V30 31 1 26 20
M  V30 32 1 3 28
M  V30 33 1 10 29
M  V30 34 1 11 30
M  V30 35 1 12 31
M  V30 36 1 14 32
M  V30 37 1 14 33
M  V30 38 1 15 34
M  V30 39 1 16 35
M  V30 40 1 17 36
M  V30 41 1 19 37
M  V30 42 1 21 38
M  V30 43 1 22 39
M  V30 44 1 24 40
M  V30 45 1 25 41
M  V30 END BOND
M  V30 END CTAB
M  END
>  <Dataset>  (504) 
ChEMBL_Kinases

>  <Ligand_Instance>  (504) 
nan

>  <PDB_ID>  (504) 
nan

>  <Standardized_SMILES>  (504) 
O=C1NC(=O)c2c1c(-c1cccc(CO)c1)cc1[nH]c3ccc(O)cc3c21

>  <Name>  (504) 
nan

>  <Pocket>  (504) 
nan

>  <ATP_Site>  (504) 
nan

>  <Peripheral>  (504) 
nan

>  <Num_H_Atoms_ProtBoundConf>  (504) 
nan

>  <Num_Resolved_Atoms>  (504) 
nan

>  <Num_Not_Resolved_Atoms>  (504) 
nan

$$$$
CHEMBL385373
     RDKit          3D

  0  0  0  0  0  0  0  0  0  0999 V3000
M  V30 BEGIN CTAB
M  V30 COUNTS 51 53 0 0 0
M  V30 BEGIN ATOM
M  V30 1 C 0.747197 3.994034 -0.262874 0
M  V30 2 O 1.681330 2.943089 -0.120016 0
M  V30 3 C 2.904468 3.005524 -0.770630 0
M  V30 4 C 3.203650 4.098316 -1.554846 0
M  V30 5 C 4.420474 4.161379 -2.199366 0
M  V30 6 C 5.345781 3.147505 -2.072580 0
M  V30 7 Cl 6.898188 3.181406 -2.867080 0
M  V30 8 C 4.977295 2.100621 -1.280723 0
M  V30 9 C 3.770197 1.945069 -0.587863 0
M  V30 10 C 3.528422 0.749210 0.198235 0
M  V30 11 O 4.542589 0.547553 0.949922 0
M  V30 12 C 2.441662 -0.189219 0.287777 0
M  V30 13 C 1.304276 -0.198825 -0.485262 0
M  V30 14 N 0.356956 -1.140389 -0.315561 0
M  V30 15 C 0.480498 -2.104933 0.609354 0
M  V30 16 N -0.524181 -3.095609 0.781921 0
M  V30 17 C -1.713849 -3.112507 -0.021364 0
M  V30 18 C -2.605903 -4.274796 0.376165 0
M  V30 19 C -2.857492 -4.211714 1.884939 0
M  V30 20 N -3.027762 -2.862792 2.266565 0
M  V30 21 S -3.697452 -2.620036 3.813254 0
M  V30 22 C -5.319581 -3.349512 3.814329 0
M  V30 23 O -3.866697 -1.184042 4.165293 0
M  V30 24 O -2.840370 -3.235176 4.883127 0
M  V30 25 C -3.476939 -1.968579 1.262746 0
M  V30 26 C -2.537800 -1.846804 0.087655 0
M  V30 27 N 1.586543 -2.108256 1.371566 0
M  V30 28 C 2.569427 -1.176309 1.234913 0
M  V30 29 N 3.653877 -1.362371 2.141298 0
M  V30 30 H -0.164931 3.745382 0.293880 0
M  V30 31 H 1.163756 4.935684 0.193012 0
M  V30 32 H 0.570907 4.207674 -1.330273 0
M  V30 33 H 2.486145 4.899514 -1.661761 0
M  V30 34 H 4.655858 5.019454 -2.815476 0
M  V30 35 H 5.702612 1.292602 -1.173559 0
M  V30 36 H 1.178714 0.543640 -1.230523 0
M  V30 37 H -0.390814 -3.830183 1.513862 0
M  V30 38 H -1.480917 -3.264455 -1.110333 0
M  V30 39 H -2.116230 -5.218027 0.085051 0
M  V30 40 H -3.566102 -4.170189 -0.164529 0
M  V30 41 H -2.082443 -4.765349 2.437933 0
M  V30 42 H -3.817715 -4.758675 2.043610 0
M  V30 43 H -5.941889 -2.962094 4.645508 0
M  V30 44 H -5.160551 -4.459662 3.918550 0
M  V30 45 H -5.756502 -3.188923 2.817832 0
M  V30 46 H -3.640879 -0.981054 1.724815 0
M  V30 47 H -4.499670 -2.312496 0.928058 0
M  V30 48 H -1.948230 -0.940475 0.235244 0
M  V30 49 H -3.170867 -1.747485 -0.822181 0
M  V30 50 H 4.377249 -1.772634 1.481128 0
M  V30 51 H 3.905398 -1.230794 3.123918 0
M  V30 END ATOM
M  V30 BEGIN BOND
M  V30 1 1 1 2
M  V30 2 1 2 3
M  V30 3 2 3 4
M  V30 4 1 4 5
M  V30 5 2 5 6
M  V30 6 1 6 7
M  V30 7 1 6 8
M  V30 8 2 8 9
M  V30 9 1 9 10
M  V30 10 2 10 11
M  V30 11 1 10 12
M  V30 12 2 12 13
M  V30 13 1 13 14
M  V30 14 2 14 15
M  V30 15 1 15 16
M  V30 16 1 16 17
M  V30 17 1 17 18
M  V30 18 1 18 19
M  V30 19 1 19 20
M  V30 20 1 20 21
M  V30 21 1 21 22
M  V30 22 2 21 23
M  V30 23 2 21 24
M  V30 24 1 20 25
M  V30 25 1 25 26
M  V30 26 1 15 27
M  V30 27 2 27 28
M  V30 28 1 28 29
M  V30 29 1 9 3
M  V30 30 1 28 12
M  V30 31 1 26 17
M  V30 32 1 1 30
M  V30 33 1 1 31
M  V30 34 1 1 32
M  V30 35 1 4 33
M  V30 36 1 5 34
M  V30 37 1 8 35
M  V30 38 1 13 36
M  V30 39 1 16 37
M  V30 40 1 17 38
M  V30 41 1 18 39
M  V30 42 1 18 40
M  V30 43 1 19 41
M  V30 44 1 19 42
M  V30 45 1 22 43
M  V30 46 1 22 44
M  V30 47 1 22 45
M  V30 48 1 25 46
M  V30 49 1 25 47
M  V30 50 1 26 48
M  V30 51 1 26 49
M  V30 52 1 29 50
M  V30 53 1 29 51
M  V30 END BOND
M  V30 END CTAB
M  END
>  <Dataset>  (505) 
ChEMBL_Kinases

>  <Ligand_Instance>  (505) 
nan

>  <PDB_ID>  (505) 
nan

>  <Standardized_SMILES>  (505) 
COc1ccc(Cl)cc1C(=O)c1cnc(NC2CCN(S(C)(=O)=O)CC2)nc1N

>  <Name>  (505) 
nan

>  <Pocket>  (505) 
nan

>  <ATP_Site>  (505) 
nan

>  <Peripheral>  (505) 
nan

>  <Num_H_Atoms_ProtBoundConf>  (505) 
nan

>  <Num_Resolved_Atoms>  (505) 
nan

>  <Num_Not_Resolved_Atoms>  (505) 
nan

$$$$
CHEMBL385733
     RDKit          3D

  0  0  0  0  0  0  0  0  0  0999 V3000
M  V30 BEGIN CTAB
M  V30 COUNTS 51 53 0 0 0
M  V30 BEGIN ATOM
M  V30 1 C 5.560210 2.578480 -3.635636 0
M  V30 2 O 4.629273 2.067063 -2.710322 0
M  V30 3 C 3.700187 2.895519 -2.130300 0
M  V30 4 C 3.700664 4.253640 -2.479561 0
M  V30 5 C 2.797187 5.125339 -1.932525 0
M  V30 6 C 1.862911 4.699011 -1.024792 0
M  V30 7 C 1.887547 3.361758 -0.701605 0
M  V30 8 F 0.957968 3.055026 0.230831 0
M  V30 9 C 2.758490 2.423237 -1.205770 0
M  V30 10 C 2.812723 1.032036 -0.849082 0
M  V30 11 O 3.993866 0.579888 -1.010025 0
M  V30 12 C 1.954658 0.002399 -0.372725 0
M  V30 13 C 0.585675 0.086960 -0.349825 0
M  V30 14 N -0.190846 -0.934827 0.078228 0
M  V30 15 C 0.348724 -2.091849 0.504091 0
M  V30 16 N -0.469335 -3.162132 0.952796 0
M  V30 17 C -1.887911 -2.998520 0.947891 0
M  V30 18 C -2.548749 -4.258129 1.463466 0
M  V30 19 C -2.997049 -4.099836 2.909396 0
M  V30 20 N -4.048544 -3.141403 2.987933 0
M  V30 21 S -4.473115 -2.718929 4.595678 0
M  V30 22 C -5.044756 -4.199117 5.399674 0
M  V30 23 O -5.532192 -1.689808 4.669464 0
M  V30 24 O -3.230397 -2.202596 5.279554 0
M  V30 25 C -3.816656 -1.991231 2.150796 0
M  V30 26 C -2.348427 -1.829223 1.790670 0
M  V30 27 N 1.685386 -2.201252 0.490916 0
M  V30 28 C 2.494734 -1.183493 0.063512 0
M  V30 29 N 3.870841 -1.487763 0.124675 0
M  V30 30 H 6.037616 1.697454 -4.139181 0
M  V30 31 H 6.279741 3.285337 -3.201106 0
M  V30 32 H 4.935699 3.042220 -4.451839 0
M  V30 33 H 4.453762 4.591804 -3.209044 0
M  V30 34 H 2.884006 6.138880 -2.267985 0
M  V30 35 H 1.175163 5.426033 -0.624525 0
M  V30 36 H -0.009398 0.914165 -0.672921 0
M  V30 37 H -0.023628 -4.041578 1.275416 0
M  V30 38 H -2.242849 -2.847406 -0.087386 0
M  V30 39 H -1.814750 -5.077702 1.387762 0
M  V30 40 H -3.422291 -4.547539 0.841974 0
M  V30 41 H -3.447437 -5.094241 3.184273 0
M  V30 42 H -2.160909 -3.961800 3.592428 0
M  V30 43 H -6.014574 -4.025744 5.945060 0
M  V30 44 H -5.262696 -5.015265 4.667446 0
M  V30 45 H -4.324548 -4.504438 6.160844 0
M  V30 46 H -4.187393 -1.099014 2.659880 0
M  V30 47 H -4.425962 -2.128954 1.227174 0
M  V30 48 H -1.790486 -1.718923 2.723825 0
M  V30 49 H -2.297213 -0.891197 1.197291 0
M  V30 50 H 4.478468 -1.309927 0.935348 0
M  V30 51 H 4.414315 -1.929118 -0.657477 0
M  V30 END ATOM
M  V30 BEGIN BOND
M  V30 1 1 1 2
M  V30 2 1 2 3
M  V30 3 2 3 4
M  V30 4 1 4 5
M  V30 5 2 5 6
M  V30 6 1 6 7
M  V30 7 1 7 8
M  V30 8 2 7 9
M  V30 9 1 9 10
M  V30 10 2 10 11
M  V30 11 1 10 12
M  V30 12 2 12 13
M  V30 13 1 13 14
M  V30 14 2 14 15
M  V30 15 1 15 16
M  V30 16 1 16 17
M  V30 17 1 17 18
M  V30 18 1 18 19
M  V30 19 1 19 20
M  V30 20 1 20 21
M  V30 21 1 21 22
M  V30 22 2 21 23
M  V30 23 2 21 24
M  V30 24 1 20 25
M  V30 25 1 25 26
M  V30 26 1 15 27
M  V30 27 2 27 28
M  V30 28 1 28 29
M  V30 29 1 9 3
M  V30 30 1 28 12
M  V30 31 1 26 17
M  V30 32 1 1 30
M  V30 33 1 1 31
M  V30 34 1 1 32
M  V30 35 1 4 33
M  V30 36 1 5 34
M  V30 37 1 6 35
M  V30 38 1 13 36
M  V30 39 1 16 37
M  V30 40 1 17 38
M  V30 41 1 18 39
M  V30 42 1 18 40
M  V30 43 1 19 41
M  V30 44 1 19 42
M  V30 45 1 22 43
M  V30 46 1 22 44
M  V30 47 1 22 45
M  V30 48 1 25 46
M  V30 49 1 25 47
M  V30 50 1 26 48
M  V30 51 1 26 49
M  V30 52 1 29 50
M  V30 53 1 29 51
M  V30 END BOND
M  V30 END CTAB
M  END
>  <Dataset>  (506) 
ChEMBL_Kinases

>  <Ligand_Instance>  (506) 
nan

>  <PDB_ID>  (506) 
nan

>  <Standardized_SMILES>  (506) 
COc1cccc(F)c1C(=O)c1cnc(NC2CCN(S(C)(=O)=O)CC2)nc1N

>  <Name>  (506) 
nan

>  <Pocket>  (506) 
nan

>  <ATP_Site>  (506) 
nan

>  <Peripheral>  (506) 
nan

>  <Num_H_Atoms_ProtBoundConf>  (506) 
nan

>  <Num_Resolved_Atoms>  (506) 
nan

>  <Num_Not_Resolved_Atoms>  (506) 
nan

$$$$
CHEMBL4085247
     RDKit          3D

  0  0  0  0  0  0  0  0  0  0999 V3000
M  V30 BEGIN CTAB
M  V30 COUNTS 51 54 0 0 0
M  V30 BEGIN ATOM
M  V30 1 O 0.060090 -3.577834 2.741504 0
M  V30 2 C 0.283939 -2.437776 2.202754 0
M  V30 3 C 0.800380 -1.541086 3.230060 0
M  V30 4 N 1.127560 -0.218075 2.827973 0
M  V30 5 C 2.133446 0.095861 1.903146 0
M  V30 6 C 2.939036 -0.830397 1.274936 0
M  V30 7 C 3.937238 -0.563566 0.361281 0
M  V30 8 C 4.157424 0.759219 0.038887 0
M  V30 9 C 3.402641 1.739476 0.616728 0
M  V30 10 O 3.671670 3.051694 0.251869 0
M  V30 11 C 2.978454 4.140955 0.763509 0
M  V30 12 C 1.868439 4.439173 -0.020868 0
M  V30 13 C 1.033290 5.496404 0.312621 0
M  V30 14 C 1.288468 6.276483 1.434077 0
M  V30 15 C 2.395622 5.954146 2.188832 0
M  V30 16 C 3.241989 4.911243 1.882513 0
M  V30 17 C 2.430449 1.386554 1.515499 0
M  V30 18 N 0.007968 -2.280341 0.822849 0
M  V30 19 N -0.493906 -3.347877 0.072922 0
M  V30 20 C -1.787116 -3.473692 -0.030650 0
M  V30 21 C -2.525514 -2.407796 0.702907 0
M  V30 22 C -3.990595 -2.734298 0.624777 0
M  V30 23 C -4.343714 -3.143833 -0.785598 0
M  V30 24 C -3.689812 -4.391083 -1.191033 0
M  V30 25 C -4.278526 -5.400576 -1.923587 0
M  V30 26 N -3.560748 -6.514959 -2.237496 0
M  V30 27 C -2.277543 -6.665595 -1.850828 0
M  V30 28 C -1.620143 -5.682372 -1.106945 0
M  V30 29 C -2.365405 -4.582635 -0.810514 0
M  V30 30 H 1.720779 -1.980582 3.683952 0
M  V30 31 H 0.077269 -1.504568 4.098129 0
M  V30 32 H 0.593883 0.605113 3.236428 0
M  V30 33 H 2.793315 -1.897524 1.506651 0
M  V30 34 H 4.517643 -1.367896 -0.078266 0
M  V30 35 H 4.939961 0.968800 -0.677385 0
M  V30 36 H 1.546872 3.916162 -0.923885 0
M  V30 37 H 0.150445 5.761741 -0.280063 0
M  V30 38 H 0.638858 7.109257 1.705042 0
M  V30 39 H 2.637085 6.530061 3.070064 0
M  V30 40 H 4.110824 4.596842 2.406664 0
M  V30 41 H 1.870537 2.228062 1.933216 0
M  V30 42 H 0.218187 -1.330865 0.500583 0
M  V30 43 H -2.178981 -2.296359 1.748295 0
M  V30 44 H -2.374726 -1.474952 0.129934 0
M  V30 45 H -4.558029 -1.822295 0.880279 0
M  V30 46 H -4.224451 -3.512231 1.364533 0
M  V30 47 H -3.997872 -2.306038 -1.448483 0
M  V30 48 H -5.448499 -3.237530 -0.843964 0
M  V30 49 H -5.300911 -5.267233 -2.224814 0
M  V30 50 H -1.712011 -7.557364 -2.105256 0
M  V30 51 H -0.597557 -5.744728 -0.769120 0
M  V30 END ATOM
M  V30 BEGIN BOND
M  V30 1 2 1 2
M  V30 2 1 2 3
M  V30 3 1 3 4
M  V30 4 1 4 5
M  V30 5 2 5 6
M  V30 6 1 6 7
M  V30 7 2 7 8
M  V30 8 1 8 9
M  V30 9 1 9 10
M  V30 10 1 10 11
M  V30 11 2 11 12
M  V30 12 1 12 13
M  V30 13 2 13 14
M  V30 14 1 14 15
M  V30 15 2 15 16
M  V30 16 2 9 17
M  V30 17 1 2 18
M  V30 18 1 18 19
M  V30 19 2 19 20
M  V30 20 1 20 21
M  V30 21 1 21 22
M  V30 22 1 22 23
M  V30 23 1 23 24
M  V30 24 2 24 25
M  V30 25 1 25 26
M  V30 26 2 26 27
M  V30 27 1 27 28
M  V30 28 2 28 29
M  V30 29 1 17 5
M  V30 30 1 29 20
M  V30 31 1 16 11
M  V30 32 1 29 24
M  V30 33 1 3 30
M  V30 34 1 3 31
M  V30 35 1 4 32
M  V30 36 1 6 33
M  V30 37 1 7 34
M  V30 38 1 8 35
M  V30 39 1 12 36
M  V30 40 1 13 37
M  V30 41 1 14 38
M  V30 42 1 15 39
M  V30 43 1 16 40
M  V30 44 1 17 41
M  V30 45 1 18 42
M  V30 46 1 21 43
M  V30 47 1 21 44
M  V30 48 1 22 45
M  V30 49 1 22 46
M  V30 50 1 23 47
M  V30 51 1 23 48
M  V30 52 1 25 49
M  V30 53 1 27 50
M  V30 54 1 28 51
M  V30 END BOND
M  V30 END CTAB
M  END
>  <Dataset>  (507) 
ChEMBL_Kinases

>  <Ligand_Instance>  (507) 
nan

>  <PDB_ID>  (507) 
nan

>  <Standardized_SMILES>  (507) 
O=C(CNc1cccc(Oc2ccccc2)c1)N/N=C1\CCCc2cnccc21

>  <Name>  (507) 
nan

>  <Pocket>  (507) 
nan

>  <ATP_Site>  (507) 
nan

>  <Peripheral>  (507) 
nan

>  <Num_H_Atoms_ProtBoundConf>  (507) 
nan

>  <Num_Resolved_Atoms>  (507) 
nan

>  <Num_Not_Resolved_Atoms>  (507) 
nan

$$$$
CHEMBL3581121
     RDKit          3D

  0  0  0  0  0  0  0  0  0  0999 V3000
M  V30 BEGIN CTAB
M  V30 COUNTS 38 40 0 0 0
M  V30 BEGIN ATOM
M  V30 1 C 1.852830 -6.204006 0.926989 0
M  V30 2 O 1.523286 -5.025481 0.197723 0
M  V30 3 C 2.377483 -3.933731 0.162531 0
M  V30 4 C 3.599598 -3.929818 0.835684 0
M  V30 5 C 4.351126 -2.782836 0.718136 0
M  V30 6 C 3.966916 -1.686208 -0.003292 0
M  V30 7 C 2.764962 -1.685788 -0.667320 0
M  V30 8 C 2.259977 -0.545517 -1.475727 0
M  V30 9 C 1.466067 0.353962 -0.596075 0
M  V30 10 O 1.399950 -0.036803 0.598331 0
M  V30 11 N 0.862567 1.532646 -1.119004 0
M  V30 12 C 0.152209 2.195111 0.010757 0
M  V30 13 N -0.954317 2.043117 0.365929 0
M  V30 14 C -1.582692 2.623956 1.359171 0
M  V30 15 C -2.972894 2.342527 1.697993 0
M  V30 16 C -3.615408 2.964891 2.747362 0
M  V30 17 C -4.923318 2.740082 3.113514 0
M  V30 18 N -5.663148 1.857721 2.424566 0
M  V30 19 C -5.082562 1.224731 1.392559 0
M  V30 20 C -3.773827 1.445934 1.021725 0
M  V30 21 C -0.825589 3.531881 2.069974 0
M  V30 22 S 0.836357 3.441368 1.158276 0
M  V30 23 C 1.977999 -2.833310 -0.569093 0
M  V30 24 H 1.908025 -6.005635 2.014262 0
M  V30 25 H 2.861545 -6.599003 0.641995 0
M  V30 26 H 1.052921 -6.940152 0.690116 0
M  V30 27 H 3.851534 -4.818479 1.387489 0
M  V30 28 H 5.302719 -2.801330 1.252282 0
M  V30 29 H 4.591115 -0.798472 -0.070778 0
M  V30 30 H 1.538928 -0.950981 -2.232838 0
M  V30 31 H 3.052372 -0.020928 -2.038663 0
M  V30 32 H 0.958594 1.796855 -2.123444 0
M  V30 33 H -3.102065 3.685605 3.354120 0
M  V30 34 H -5.385636 3.250063 3.942334 0
M  V30 35 H -5.675627 0.516146 0.838761 0
M  V30 36 H -3.341299 0.906643 0.172541 0
M  V30 37 H -1.163467 4.158449 2.976870 0
M  V30 38 H 1.027490 -2.834342 -1.093578 0
M  V30 END ATOM
M  V30 BEGIN BOND
M  V30 1 1 1 2
M  V30 2 1 2 3
M  V30 3 2 3 4
M  V30 4 1 4 5
M  V30 5 2 5 6
M  V30 6 1 6 7
M  V30 7 1 7 8
M  V30 8 1 8 9
M  V30 9 2 9 10
M  V30 10 1 9 11
M  V30 11 1 11 12
M  V30 12 2 12 13
M  V30 13 1 13 14
M  V30 14 1 14 15
M  V30 15 2 15 16
M  V30 16 1 16 17
M  V30 17 2 17 18
M  V30 18 1 18 19
M  V30 19 2 19 20
M  V30 20 2 14 21
M  V30 21 1 21 22
M  V30 22 2 7 23
M  V30 23 1 23 3
M  V30 24 1 22 12
M  V30 25 1 20 15
M  V30 26 1 1 24
M  V30 27 1 1 25
M  V30 28 1 1 26
M  V30 29 1 4 27
M  V30 30 1 5 28
M  V30 31 1 6 29
M  V30 32 1 8 30
M  V30 33 1 8 31
M  V30 34 1 11 32
M  V30 35 1 16 33
M  V30 36 1 17 34
M  V30 37 1 19 35
M  V30 38 1 20 36
M  V30 39 1 21 37
M  V30 40 1 23 38
M  V30 END BOND
M  V30 END CTAB
M  END
>  <Dataset>  (508) 
ChEMBL_Kinases

>  <Ligand_Instance>  (508) 
nan

>  <PDB_ID>  (508) 
nan

>  <Standardized_SMILES>  (508) 
COc1cccc(CC(=O)Nc2nc(-c3ccncc3)cs2)c1

>  <Name>  (508) 
nan

>  <Pocket>  (508) 
nan

>  <ATP_Site>  (508) 
nan

>  <Peripheral>  (508) 
nan

>  <Num_H_Atoms_ProtBoundConf>  (508) 
nan

>  <Num_Resolved_Atoms>  (508) 
nan

>  <Num_Not_Resolved_Atoms>  (508) 
nan

$$$$
CHEMBL3581123
     RDKit          3D

  0  0  0  0  0  0  0  0  0  0999 V3000
M  V30 BEGIN CTAB
M  V30 COUNTS 35 37 0 0 0
M  V30 BEGIN ATOM
M  V30 1 O 0.737997 0.122960 3.345498 0
M  V30 2 C 0.549809 -1.083880 3.068809 0
M  V30 3 C 1.252629 -2.389505 3.143672 0
M  V30 4 C 2.287981 -2.526849 2.077279 0
M  V30 5 C 1.769879 -3.077803 0.890072 0
M  V30 6 C 2.511476 -3.320274 -0.255696 0
M  V30 7 C 3.838776 -2.975736 -0.159334 0
M  V30 8 C 4.422615 -2.424587 0.983415 0
M  V30 9 O 5.747721 -2.080108 1.073696 0
M  V30 10 C 3.627552 -2.210023 2.086978 0
M  V30 11 N -0.750420 -1.191956 2.501914 0
M  V30 12 C -1.869962 -0.221537 2.189297 0
M  V30 13 N -1.770686 0.332198 1.117195 0
M  V30 14 C -2.588206 1.190982 0.592389 0
M  V30 15 C -2.498759 1.881629 -0.678753 0
M  V30 16 C -1.409685 1.677572 -1.545648 0
M  V30 17 C -1.143157 2.210916 -2.762216 0
M  V30 18 N -2.092579 3.064995 -3.168990 0
M  V30 19 C -3.167509 3.345946 -2.447720 0
M  V30 20 C -3.414018 2.772916 -1.187299 0
M  V30 21 C -3.736388 1.471861 1.453029 0
M  V30 22 S -3.322601 0.340268 2.922898 0
M  V30 23 H 0.535830 -3.217032 3.054874 0
M  V30 24 H 1.718826 -2.537512 4.154080 0
M  V30 25 H 0.718812 -3.350827 0.808123 0
M  V30 26 H 2.050476 -3.744638 -1.127553 0
M  V30 27 H 4.494071 -3.128866 -1.000574 0
M  V30 28 H 6.376713 -2.056056 0.267526 0
M  V30 29 H 3.937716 -1.784356 3.049317 0
M  V30 30 H -1.165419 -2.101458 2.179606 0
M  V30 31 H -0.672677 0.959107 -1.134049 0
M  V30 32 H -0.231363 1.912133 -3.271649 0
M  V30 33 H -3.923035 4.047359 -2.803857 0
M  V30 34 H -4.291005 3.007163 -0.604560 0
M  V30 35 H -4.637248 2.213541 1.217519 0
M  V30 END ATOM
M  V30 BEGIN BOND
M  V30 1 2 1 2
M  V30 2 1 2 3
M  V30 3 1 3 4
M  V30 4 2 4 5
M  V30 5 1 5 6
M  V30 6 2 6 7
M  V30 7 1 7 8
M  V30 8 1 8 9
M  V30 9 2 8 10
M  V30 10 1 2 11
M  V30 11 1 11 12
M  V30 12 2 12 13
M  V30 13 1 13 14
M  V30 14 1 14 15
M  V30 15 2 15 16
M  V30 16 1 16 17
M  V30 17 2 17 18
M  V30 18 1 18 19
M  V30 19 2 19 20
M  V30 20 2 14 21
M  V30 21 1 21 22
M  V30 22 1 10 4
M  V30 23 1 22 12
M  V30 24 1 20 15
M  V30 25 1 3 23
M  V30 26 1 3 24
M  V30 27 1 5 25
M  V30 28 1 6 26
M  V30 29 1 7 27
M  V30 30 1 9 28
M  V30 31 1 10 29
M  V30 32 1 11 30
M  V30 33 1 16 31
M  V30 34 1 17 32
M  V30 35 1 19 33
M  V30 36 1 20 34
M  V30 37 1 21 35
M  V30 END BOND
M  V30 END CTAB
M  END
>  <Dataset>  (509) 
ChEMBL_Kinases

>  <Ligand_Instance>  (509) 
nan

>  <PDB_ID>  (509) 
nan

>  <Standardized_SMILES>  (509) 
O=C(Cc1cccc(O)c1)Nc1nc(-c2ccncc2)cs1

>  <Name>  (509) 
nan

>  <Pocket>  (509) 
nan

>  <ATP_Site>  (509) 
nan

>  <Peripheral>  (509) 
nan

>  <Num_H_Atoms_ProtBoundConf>  (509) 
nan

>  <Num_Resolved_Atoms>  (509) 
nan

>  <Num_Not_Resolved_Atoms>  (509) 
nan

$$$$
CHEMBL384369
     RDKit          3D

  0  0  0  0  0  0  0  0  0  0999 V3000
M  V30 BEGIN CTAB
M  V30 COUNTS 43 47 0 0 0
M  V30 BEGIN ATOM
M  V30 1 C 1.207139 -1.516700 3.814142 0
M  V30 2 C 1.853955 -0.593581 2.803597 0
M  V30 3 C 1.006930 -0.587384 1.595919 0
M  V30 4 C 0.966088 -1.602262 0.677484 0
M  V30 5 C 1.821742 -2.759473 0.917378 0
M  V30 6 C 3.075903 -2.591355 0.318822 0
M  V30 7 C 4.062928 -3.571001 0.417851 0
M  V30 8 C 3.800898 -4.722265 1.115114 0
M  V30 9 C 2.564053 -4.845759 1.683747 0
M  V30 10 C 1.562626 -3.901500 1.608585 0
M  V30 11 C 0.137303 -1.520180 -0.440770 0
M  V30 12 C -0.653388 -0.415204 -0.637767 0
M  V30 13 C -0.617090 0.593155 0.268711 0
M  V30 14 C 0.201368 0.508534 1.370291 0
M  V30 15 N 0.026702 1.654196 2.093124 0
M  V30 16 C -0.882858 2.417229 1.436756 0
M  V30 17 C -1.338453 3.654800 1.834767 0
M  V30 18 C -2.278167 4.330089 1.061476 0
M  V30 19 C -2.723306 3.706072 -0.106354 0
M  V30 20 O -3.661944 4.378787 -0.879346 0
M  V30 21 C -2.214631 2.470820 -0.426463 0
M  V30 22 C -1.296590 1.771321 0.294683 0
M  V30 23 C -1.358438 -0.660798 -1.856761 0
M  V30 24 O -2.191860 -0.028607 -2.515806 0
M  V30 25 N -0.978977 -1.919400 -2.379583 0
M  V30 26 C -0.015747 -2.511253 -1.500240 0
M  V30 27 O 0.572510 -3.625636 -1.601548 0
M  V30 28 H 1.857700 -2.341022 4.149530 0
M  V30 29 H 0.825997 -0.948301 4.700539 0
M  V30 30 H 0.275930 -2.006534 3.404455 0
M  V30 31 H 1.960810 0.432564 3.205152 0
M  V30 32 H 2.855375 -1.014698 2.506971 0
M  V30 33 H 3.396358 -1.714635 -0.261673 0
M  V30 34 H 5.038568 -3.451171 -0.043413 0
M  V30 35 H 4.558689 -5.487278 1.197662 0
M  V30 36 H 2.327363 -5.757321 2.247881 0
M  V30 37 H 0.585595 -3.947135 2.031198 0
M  V30 38 H 0.528083 1.880409 3.003052 0
M  V30 39 H -0.998130 4.135320 2.731280 0
M  V30 40 H -2.617644 5.297588 1.397271 0
M  V30 41 H -3.391072 4.806137 -1.777513 0
M  V30 42 H -2.609675 2.075651 -1.326982 0
M  V30 43 H -1.267674 -2.451603 -3.244430 0
M  V30 END ATOM
M  V30 BEGIN BOND
M  V30 1 1 1 2
M  V30 2 1 2 3
M  V30 3 2 3 4
M  V30 4 1 4 5
M  V30 5 2 5 6
M  V30 6 1 6 7
M  V30 7 2 7 8
M  V30 8 1 8 9
M  V30 9 2 9 10
M  V30 10 1 4 11
M  V30 11 2 11 12
M  V30 12 1 12 13
M  V30 13 2 13 14
M  V30 14 1 14 15
M  V30 15 1 15 16
M  V30 16 2 16 17
M  V30 17 1 17 18
M  V30 18 2 18 19
M  V30 19 1 19 20
M  V30 20 1 19 21
M  V30 21 2 21 22
M  V30 22 1 12 23
M  V30 23 2 23 24
M  V30 24 1 23 25
M  V30 25 1 25 26
M  V30 26 2 26 27
M  V30 27 1 14 3
M  V30 28 1 22 16
M  V30 29 1 10 5
M  V30 30 1 26 11
M  V30 31 1 22 13
M  V30 32 1 1 28
M  V30 33 1 1 29
M  V30 34 1 1 30
M  V30 35 1 2 31
M  V30 36 1 2 32
M  V30 37 1 6 33
M  V30 38 1 7 34
M  V30 39 1 8 35
M  V30 40 1 9 36
M  V30 41 1 10 37
M  V30 42 1 15 38
M  V30 43 1 17 39
M  V30 44 1 18 40
M  V30 45 1 20 41
M  V30 46 1 21 42
M  V30 47 1 25 43
M  V30 END BOND
M  V30 END CTAB
M  END
>  <Dataset>  (510) 
ChEMBL_Kinases

>  <Ligand_Instance>  (510) 
nan

>  <PDB_ID>  (510) 
nan

>  <Standardized_SMILES>  (510) 
CCc1c(-c2ccccc2)c2c(c3c1[nH]c1ccc(O)cc13)C(=O)NC2=O

>  <Name>  (510) 
nan

>  <Pocket>  (510) 
nan

>  <ATP_Site>  (510) 
nan

>  <Peripheral>  (510) 
nan

>  <Num_H_Atoms_ProtBoundConf>  (510) 
nan

>  <Num_Resolved_Atoms>  (510) 
nan

>  <Num_Not_Resolved_Atoms>  (510) 
nan

$$$$
CHEMBL3581126
     RDKit          3D

  0  0  0  0  0  0  0  0  0  0999 V3000
M  V30 BEGIN CTAB
M  V30 COUNTS 37 40 0 0 0
M  V30 BEGIN ATOM
M  V30 1 O -0.161144 0.016742 0.591101 0
M  V30 2 C -1.180119 0.519628 1.176824 0
M  V30 3 C -1.275884 0.143496 2.605688 0
M  V30 4 C -0.150471 -0.733243 3.014564 0
M  V30 5 C 0.909653 -0.255816 3.757281 0
M  V30 6 C 1.982171 -1.056712 4.155094 0
M  V30 7 C 2.017144 -2.381721 3.810205 0
M  V30 8 C 0.954852 -2.880936 3.060311 0
M  V30 9 C -0.094837 -2.067754 2.679150 0
M  V30 10 Cl -1.437040 -2.697693 1.732570 0
M  V30 11 O 1.217564 -4.246551 2.835775 0
M  V30 12 C 2.638532 -4.390598 2.951820 0
M  V30 13 O 2.879816 -3.464195 4.009172 0
M  V30 14 N -2.122523 1.353833 0.521771 0
M  V30 15 C -1.672523 1.485132 -0.880275 0
M  V30 16 N -1.930973 0.825379 -1.830284 0
M  V30 17 C -1.486656 1.004142 -3.059292 0
M  V30 18 C -1.885182 0.115024 -4.145315 0
M  V30 19 C -2.736745 -0.970177 -4.025316 0
M  V30 20 C -3.112576 -1.806468 -5.045411 0
M  V30 21 N -2.603836 -1.542435 -6.270711 0
M  V30 22 C -1.770424 -0.522644 -6.515193 0
M  V30 23 C -1.436148 0.276243 -5.442705 0
M  V30 24 C -0.640810 2.060637 -3.251931 0
M  V30 25 S -0.556694 2.760776 -1.489424 0
M  V30 26 H -1.161627 1.103257 3.172577 0
M  V30 27 H -2.251613 -0.352120 2.847878 0
M  V30 28 H 0.945774 0.776962 4.062449 0
M  V30 29 H 2.789234 -0.658442 4.729876 0
M  V30 30 H 2.949590 -5.413635 3.182334 0
M  V30 31 H 3.148939 -3.941573 2.065235 0
M  V30 32 H -2.920948 1.732556 1.030473 0
M  V30 33 H -3.141417 -1.174469 -3.032276 0
M  V30 34 H -3.786109 -2.628531 -4.842458 0
M  V30 35 H -1.374680 -0.328839 -7.502308 0
M  V30 36 H -0.755958 1.096229 -5.676650 0
M  V30 37 H -0.147768 2.385736 -4.234103 0
M  V30 END ATOM
M  V30 BEGIN BOND
M  V30 1 2 1 2
M  V30 2 1 2 3
M  V30 3 1 3 4
M  V30 4 2 4 5
M  V30 5 1 5 6
M  V30 6 2 6 7
M  V30 7 1 7 8
M  V30 8 2 8 9
M  V30 9 1 9 10
M  V30 10 1 8 11
M  V30 11 1 11 12
M  V30 12 1 12 13
M  V30 13 1 2 14
M  V30 14 1 14 15
M  V30 15 2 15 16
M  V30 16 1 16 17
M  V30 17 1 17 18
M  V30 18 2 18 19
M  V30 19 1 19 20
M  V30 20 2 20 21
M  V30 21 1 21 22
M  V30 22 2 22 23
M  V30 23 2 17 24
M  V30 24 1 24 25
M  V30 25 1 9 4
M  V30 26 1 25 15
M  V30 27 1 13 7
M  V30 28 1 23 18
M  V30 29 1 3 26
M  V30 30 1 3 27
M  V30 31 1 5 28
M  V30 32 1 6 29
M  V30 33 1 12 30
M  V30 34 1 12 31
M  V30 35 1 14 32
M  V30 36 1 19 33
M  V30 37 1 20 34
M  V30 38 1 22 35
M  V30 39 1 23 36
M  V30 40 1 24 37
M  V30 END BOND
M  V30 END CTAB
M  END
>  <Dataset>  (511) 
ChEMBL_Kinases

>  <Ligand_Instance>  (511) 
nan

>  <PDB_ID>  (511) 
nan

>  <Standardized_SMILES>  (511) 
O=C(Cc1ccc2c(c1Cl)OCO2)Nc1nc(-c2ccncc2)cs1

>  <Name>  (511) 
nan

>  <Pocket>  (511) 
nan

>  <ATP_Site>  (511) 
nan

>  <Peripheral>  (511) 
nan

>  <Num_H_Atoms_ProtBoundConf>  (511) 
nan

>  <Num_Resolved_Atoms>  (511) 
nan

>  <Num_Not_Resolved_Atoms>  (511) 
nan

$$$$
CHEMBL4086319
     RDKit          3D

  0  0  0  0  0  0  0  0  0  0999 V3000
M  V30 BEGIN CTAB
M  V30 COUNTS 44 47 0 0 0
M  V30 BEGIN ATOM
M  V30 1 C 0.944888 -3.122059 1.593126 0
M  V30 2 C 1.831754 -3.413312 0.415636 0
M  V30 3 C 1.159203 -4.222892 -0.663383 0
M  V30 4 N 3.038367 -4.056907 0.903238 0
M  V30 5 C 4.180933 -3.232368 0.703059 0
M  V30 6 O 5.345154 -3.575407 1.045704 0
M  V30 7 C 3.657523 -2.031208 0.065364 0
M  V30 8 C 4.356992 -0.914753 -0.340053 0
M  V30 9 C 3.657491 0.117267 -0.927663 0
M  V30 10 C 2.278589 0.036200 -1.108308 0
M  V30 11 N 1.637076 1.141052 -1.724639 0
M  V30 12 C 0.619521 1.964174 -1.173639 0
M  V30 13 C 0.115228 1.805303 0.089047 0
M  V30 14 C -0.881625 2.643860 0.565765 0
M  V30 15 N -1.383420 2.443814 1.895856 0
M  V30 16 C -2.484485 1.583649 2.125337 0
M  V30 17 O -3.048838 0.972426 1.154987 0
M  V30 18 C -3.052152 1.330428 3.458121 0
M  V30 19 C -3.388865 -0.170692 3.696532 0
M  V30 20 C -4.428516 0.874891 3.677966 0
M  V30 21 N -1.340479 3.628995 -0.263971 0
M  V30 22 C -0.842195 3.781498 -1.503695 0
M  V30 23 N 0.138861 2.946587 -1.956095 0
M  V30 24 C 1.667083 -1.114175 -0.673470 0
M  V30 25 O 0.439621 -1.212743 -0.822795 0
M  V30 26 N 2.319427 -2.134533 -0.098620 0
M  V30 27 H 1.440415 -3.253644 2.569503 0
M  V30 28 H 0.620843 -2.043676 1.586950 0
M  V30 29 H 0.030757 -3.768536 1.601976 0
M  V30 30 H 0.082637 -4.040771 -0.614960 0
M  V30 31 H 1.547292 -3.862564 -1.621845 0
M  V30 32 H 1.391293 -5.287930 -0.464538 0
M  V30 33 H 2.908963 -5.006807 1.321390 0
M  V30 34 H 5.411835 -0.809982 -0.221428 0
M  V30 35 H 4.186765 1.009795 -1.256459 0
M  V30 36 H 2.023647 1.271150 -2.662504 0
M  V30 37 H 0.474793 1.042240 0.728309 0
M  V30 38 H -1.002499 2.888929 2.760471 0
M  V30 39 H -2.575292 1.851387 4.310183 0
M  V30 40 H -3.362630 -0.843494 2.824231 0
M  V30 41 H -3.027354 -0.600147 4.639033 0
M  V30 42 H -5.105738 0.957538 2.788345 0
M  V30 43 H -4.960197 1.180700 4.605392 0
M  V30 44 H -1.224780 4.575899 -2.149868 0
M  V30 END ATOM
M  V30 BEGIN BOND
M  V30 1 1 1 2
M  V30 2 1 2 3
M  V30 3 1 2 4
M  V30 4 1 4 5
M  V30 5 2 5 6
M  V30 6 1 5 7
M  V30 7 2 7 8
M  V30 8 1 8 9
M  V30 9 2 9 10
M  V30 10 1 10 11
M  V30 11 1 11 12
M  V30 12 2 12 13
M  V30 13 1 13 14
M  V30 14 1 14 15
M  V30 15 1 15 16
M  V30 16 2 16 17
M  V30 17 1 16 18
M  V30 18 1 18 19
M  V30 19 1 19 20
M  V30 20 2 14 21
M  V30 21 1 21 22
M  V30 22 2 22 23
M  V30 23 1 10 24
M  V30 24 2 24 25
M  V30 25 1 24 26
M  V30 26 1 26 2
M  V30 27 1 26 7
M  V30 28 1 23 12
M  V30 29 1 20 18
M  V30 30 1 1 27
M  V30 31 1 1 28
M  V30 32 1 1 29
M  V30 33 1 3 30
M  V30 34 1 3 31
M  V30 35 1 3 32
M  V30 36 1 4 33
M  V30 37 1 8 34
M  V30 38 1 9 35
M  V30 39 1 11 36
M  V30 40 1 13 37
M  V30 41 1 15 38
M  V30 42 1 18 39
M  V30 43 1 19 40
M  V30 44 1 19 41
M  V30 45 1 20 42
M  V30 46 1 20 43
M  V30 47 1 22 44
M  V30 END BOND
M  V30 END CTAB
M  END
>  <Dataset>  (512) 
ChEMBL_Kinases

>  <Ligand_Instance>  (512) 
nan

>  <PDB_ID>  (512) 
nan

>  <Standardized_SMILES>  (512) 
CC1(C)NC(=O)c2ccc(Nc3cc(NC(=O)C4CC4)ncn3)c(=O)n21

>  <Name>  (512) 
nan

>  <Pocket>  (512) 
nan

>  <ATP_Site>  (512) 
nan

>  <Peripheral>  (512) 
nan

>  <Num_H_Atoms_ProtBoundConf>  (512) 
nan

>  <Num_Resolved_Atoms>  (512) 
nan

>  <Num_Not_Resolved_Atoms>  (512) 
nan

$$$$
CHEMBL3581129
     RDKit          3D

  0  0  0  0  0  0  0  0  0  0999 V3000
M  V30 BEGIN CTAB
M  V30 COUNTS 45 48 0 0 0
M  V30 BEGIN ATOM
M  V30 1 C 2.436469 -3.653736 4.461459 0
M  V30 2 O 2.460978 -4.463607 3.322206 0
M  V30 3 C 2.426671 -3.985848 2.017898 0
M  V30 4 C 2.461166 -4.978234 1.060363 0
M  V30 5 C 2.432599 -4.635193 -0.275016 0
M  V30 6 C 2.368953 -3.271797 -0.584963 0
M  V30 7 C 2.334061 -2.269850 0.377337 0
M  V30 8 C 2.267223 -0.854678 -0.057961 0
M  V30 9 C 3.457172 -0.042663 0.319494 0
M  V30 10 C 3.234617 0.893130 1.461281 0
M  V30 11 C 2.136979 1.893030 1.199571 0
M  V30 12 N 1.006949 1.167065 0.716990 0
M  V30 13 C -0.314777 1.796128 0.605381 0
M  V30 14 N -1.390552 1.450981 0.253331 0
M  V30 15 C -2.485960 2.170559 0.220937 0
M  V30 16 C -3.752028 1.608237 -0.240736 0
M  V30 17 C -3.939029 0.312884 -0.677677 0
M  V30 18 C -5.152608 -0.178910 -1.105899 0
M  V30 19 N -6.236513 0.616316 -1.112891 0
M  V30 20 C -6.135698 1.898881 -0.699613 0
M  V30 21 C -4.910590 2.356294 -0.279193 0
M  V30 22 C -2.357146 3.480554 0.649271 0
M  V30 23 S -0.538634 3.536184 1.083692 0
M  V30 24 C 1.005694 -0.180001 0.304517 0
M  V30 25 O -0.056496 -0.884205 0.220023 0
M  V30 26 C 2.363971 -2.645562 1.701219 0
M  V30 27 H 3.484499 -3.490649 4.833201 0
M  V30 28 H 1.911481 -4.259046 5.253811 0
M  V30 29 H 1.909850 -2.699434 4.335102 0
M  V30 30 H 2.510525 -6.043583 1.260648 0
M  V30 31 H 2.457657 -5.372716 -1.046036 0
M  V30 32 H 2.348458 -3.052389 -1.660736 0
M  V30 33 H 2.261512 -0.901353 -1.186907 0
M  V30 34 H 3.898597 0.525254 -0.525442 0
M  V30 35 H 4.270301 -0.749150 0.653153 0
M  V30 36 H 4.172792 1.480128 1.578788 0
M  V30 37 H 3.076640 0.365337 2.432600 0
M  V30 38 H 2.500562 2.545982 0.352928 0
M  V30 39 H 1.971312 2.455180 2.123377 0
M  V30 40 H -3.068955 -0.345289 -0.678005 0
M  V30 41 H -5.171691 -1.226737 -1.428949 0
M  V30 42 H -7.022585 2.517281 -0.715168 0
M  V30 43 H -4.916505 3.384318 0.032056 0
M  V30 44 H -3.228334 4.274729 0.691047 0
M  V30 45 H 2.339247 -1.916827 2.473657 0
M  V30 END ATOM
M  V30 BEGIN BOND
M  V30 1 1 1 2
M  V30 2 1 2 3
M  V30 3 2 3 4
M  V30 4 1 4 5
M  V30 5 2 5 6
M  V30 6 1 6 7
M  V30 7 1 7 8
M  V30 8 1 8 9
M  V30 9 1 9 10
M  V30 10 1 10 11
M  V30 11 1 11 12
M  V30 12 1 12 13
M  V30 13 2 13 14
M  V30 14 1 14 15
M  V30 15 1 15 16
M  V30 16 2 16 17
M  V30 17 1 17 18
M  V30 18 2 18 19
M  V30 19 1 19 20
M  V30 20 2 20 21
M  V30 21 2 15 22
M  V30 22 1 22 23
M  V30 23 1 12 24
M  V30 24 2 24 25
M  V30 25 2 7 26
M  V30 26 1 26 3
M  V30 27 1 24 8
M  V30 28 1 23 13
M  V30 29 1 21 16
M  V30 30 1 1 27
M  V30 31 1 1 28
M  V30 32 1 1 29
M  V30 33 1 4 30
M  V30 34 1 5 31
M  V30 35 1 6 32
M  V30 36 1 8 33
M  V30 37 1 9 34
M  V30 38 1 9 35
M  V30 39 1 10 36
M  V30 40 1 10 37
M  V30 41 1 11 38
M  V30 42 1 11 39
M  V30 43 1 17 40
M  V30 44 1 18 41
M  V30 45 1 20 42
M  V30 46 1 21 43
M  V30 47 1 22 44
M  V30 48 1 26 45
M  V30 END BOND
M  V30 END CTAB
M  END
>  <Dataset>  (513) 
ChEMBL_Kinases

>  <Ligand_Instance>  (513) 
nan

>  <PDB_ID>  (513) 
nan

>  <Standardized_SMILES>  (513) 
COc1cccc(C2CCCN(c3nc(-c4ccncc4)cs3)C2=O)c1

>  <Name>  (513) 
nan

>  <Pocket>  (513) 
nan

>  <ATP_Site>  (513) 
nan

>  <Peripheral>  (513) 
nan

>  <Num_H_Atoms_ProtBoundConf>  (513) 
nan

>  <Num_Resolved_Atoms>  (513) 
nan

>  <Num_Not_Resolved_Atoms>  (513) 
nan

$$$$
CHEMBL4086169
     RDKit          3D

  0  0  0  0  0  0  0  0  0  0999 V3000
M  V30 BEGIN CTAB
M  V30 COUNTS 35 37 0 0 0
M  V30 BEGIN ATOM
M  V30 1 N 0.546165 -0.939216 3.582214 0
M  V30 2 C 1.048399 -1.518503 2.734899 0
M  V30 3 C 1.689655 -2.251669 1.695290 0
M  V30 4 C 2.693650 -3.177389 1.998809 0
M  V30 5 N 3.115002 -3.729228 0.852577 0
M  V30 6 C 2.378744 -3.144526 -0.104518 0
M  V30 7 N 2.411054 -3.357575 -1.421825 0
M  V30 8 C 1.614335 -2.711800 -2.264064 0
M  V30 9 N 1.567528 -2.864548 -3.687939 0
M  V30 10 N 0.759013 -1.825520 -1.777176 0
M  V30 11 C 0.626762 -1.517427 -0.469777 0
M  V30 12 N -0.290378 -0.582606 0.032544 0
M  V30 13 C -1.013228 0.247128 0.889858 0 CFG=2
M  V30 14 C -2.292152 0.899363 0.297343 0
M  V30 15 C -2.640818 1.810900 1.428284 0 CFG=2
M  V30 16 O -3.333892 2.941698 1.023964 0
M  V30 17 C -1.311847 2.219297 2.081075 0 CFG=1
M  V30 18 O -1.225526 1.640897 3.343748 0
M  V30 19 C -0.293855 1.594307 1.153909 0 CFG=1
M  V30 20 O 0.962674 1.468598 1.637852 0
M  V30 21 C 1.468807 -2.212904 0.336044 0
M  V30 22 H 3.115300 -3.460062 2.953530 0
M  V30 23 H 3.845320 -4.447798 0.721197 0
M  V30 24 H 2.321702 -2.175139 -3.961034 0
M  V30 25 H 1.031774 -3.424035 -4.407765 0
M  V30 26 H -0.808430 -0.254460 -0.804749 0
M  V30 27 H -1.337435 -0.130478 1.858414 0
M  V30 28 H -1.935950 1.516748 -0.551930 0
M  V30 29 H -3.045889 0.154192 0.054370 0
M  V30 30 H -3.228021 1.195700 2.166635 0
M  V30 31 H -2.910925 3.759778 1.353314 0
M  V30 32 H -1.224094 3.321640 2.111521 0
M  V30 33 H -1.689540 2.178293 4.026891 0
M  V30 34 H -0.351725 2.216482 0.216427 0
M  V30 35 H 1.631986 1.688410 0.929357 0
M  V30 END ATOM
M  V30 BEGIN BOND
M  V30 1 3 1 2
M  V30 2 1 2 3
M  V30 3 2 3 4
M  V30 4 1 4 5
M  V30 5 1 5 6
M  V30 6 2 6 7
M  V30 7 1 7 8
M  V30 8 1 8 9
M  V30 9 2 8 10
M  V30 10 1 10 11
M  V30 11 1 11 12
M  V30 12 1 12 13
M  V30 13 1 13 14
M  V30 14 1 14 15
M  V30 15 1 15 16
M  V30 16 1 15 17
M  V30 17 1 17 18
M  V30 18 1 17 19
M  V30 19 1 19 20
M  V30 20 2 11 21
M  V30 21 1 21 3
M  V30 22 1 21 6
M  V30 23 1 19 13
M  V30 24 1 4 22
M  V30 25 1 5 23
M  V30 26 1 9 24
M  V30 27 1 9 25
M  V30 28 1 12 26
M  V30 29 1 13 27 CFG=1
M  V30 30 1 14 28
M  V30 31 1 14 29
M  V30 32 1 15 30 CFG=1
M  V30 33 1 16 31
M  V30 34 1 17 32 CFG=1
M  V30 35 1 18 33
M  V30 36 1 19 34 CFG=3
M  V30 37 1 20 35
M  V30 END BOND
M  V30 END CTAB
M  END
>  <Dataset>  (514) 
ChEMBL_Kinases

>  <Ligand_Instance>  (514) 
nan

>  <PDB_ID>  (514) 
nan

>  <Standardized_SMILES>  (514) 
N#Cc1c[nH]c2nc(N)nc(N[C@@H]3C[C@H](O)[C@@H](O)[C@H]3O)c12

>  <Name>  (514) 
nan

>  <Pocket>  (514) 
nan

>  <ATP_Site>  (514) 
nan

>  <Peripheral>  (514) 
nan

>  <Num_H_Atoms_ProtBoundConf>  (514) 
nan

>  <Num_Resolved_Atoms>  (514) 
nan

>  <Num_Not_Resolved_Atoms>  (514) 
nan

$$$$
CHEMBL3581131
     RDKit          3D

  0  0  0  0  0  0  0  0  0  0999 V3000
M  V30 BEGIN CTAB
M  V30 COUNTS 38 40 0 0 0
M  V30 BEGIN ATOM
M  V30 1 C -0.575535 -6.114455 -0.210492 0
M  V30 2 O 0.795709 -5.856395 -0.434934 0
M  V30 3 C 1.274637 -4.691322 -0.992575 0
M  V30 4 C 2.645808 -4.637607 -1.125908 0
M  V30 5 C 3.279399 -3.554452 -1.659365 0
M  V30 6 C 2.513473 -2.486418 -2.074434 0
M  V30 7 C 1.140156 -2.485970 -1.965083 0
M  V30 8 C 0.266935 -1.345748 -2.403857 0
M  V30 9 C 0.144130 -0.466803 -1.208764 0
M  V30 10 O 0.879507 -1.385566 -0.765951 0
M  V30 11 N -0.573230 0.733839 -1.108357 0
M  V30 12 C -0.572502 1.453423 0.152148 0
M  V30 13 C 0.370523 2.402493 0.440211 0
M  V30 14 N 0.295977 3.007431 1.609658 0
M  V30 15 C -0.511019 2.806345 2.434597 0
M  V30 16 C -0.773160 3.359709 3.787424 0
M  V30 17 C 0.051902 4.339223 4.301260 0
M  V30 18 C -0.245410 4.810897 5.562384 0
M  V30 19 N -1.286783 4.349892 6.273580 0
M  V30 20 C -2.068223 3.404859 5.756555 0
M  V30 21 C -1.852288 2.870055 4.503473 0
M  V30 22 S -1.596829 1.476430 1.687112 0
M  V30 23 C 0.534460 -3.606710 -1.417094 0
M  V30 24 H -1.122392 -5.187373 0.015831 0
M  V30 25 H -0.735004 -6.815904 0.635132 0
M  V30 26 H -0.961876 -6.585154 -1.134154 0
M  V30 27 H 3.304447 -5.450980 -0.815848 0
M  V30 28 H 4.352224 -3.444197 -1.794109 0
M  V30 29 H 2.938924 -1.574175 -2.515089 0
M  V30 30 H -0.695357 -1.726716 -2.774883 0
M  V30 31 H 0.821184 -0.751560 -3.174686 0
M  V30 32 H -1.059834 1.018438 -1.967258 0
M  V30 33 H 1.197337 2.714226 -0.219687 0
M  V30 34 H 0.859831 4.642504 3.654124 0
M  V30 35 H 0.423539 5.579077 5.933440 0
M  V30 36 H -2.934111 2.993711 6.299068 0
M  V30 37 H -2.499102 2.092491 4.083617 0
M  V30 38 H -0.552724 -3.708669 -1.284907 0
M  V30 END ATOM
M  V30 BEGIN BOND
M  V30 1 1 1 2
M  V30 2 1 2 3
M  V30 3 2 3 4
M  V30 4 1 4 5
M  V30 5 2 5 6
M  V30 6 1 6 7
M  V30 7 1 7 8
M  V30 8 1 8 9
M  V30 9 2 9 10
M  V30 10 1 9 11
M  V30 11 1 11 12
M  V30 12 2 12 13
M  V30 13 1 13 14
M  V30 14 2 14 15
M  V30 15 1 15 16
M  V30 16 2 16 17
M  V30 17 1 17 18
M  V30 18 2 18 19
M  V30 19 1 19 20
M  V30 20 2 20 21
M  V30 21 1 15 22
M  V30 22 2 7 23
M  V30 23 1 23 3
M  V30 24 1 22 12
M  V30 25 1 21 16
M  V30 26 1 1 24
M  V30 27 1 1 25
M  V30 28 1 1 26
M  V30 29 1 4 27
M  V30 30 1 5 28
M  V30 31 1 6 29
M  V30 32 1 8 30
M  V30 33 1 8 31
M  V30 34 1 11 32
M  V30 35 1 13 33
M  V30 36 1 17 34
M  V30 37 1 18 35
M  V30 38 1 20 36
M  V30 39 1 21 37
M  V30 40 1 23 38
M  V30 END BOND
M  V30 END CTAB
M  END
>  <Dataset>  (515) 
ChEMBL_Kinases

>  <Ligand_Instance>  (515) 
nan

>  <PDB_ID>  (515) 
nan

>  <Standardized_SMILES>  (515) 
COc1cccc(CC(=O)Nc2cnc(-c3ccncc3)s2)c1

>  <Name>  (515) 
nan

>  <Pocket>  (515) 
nan

>  <ATP_Site>  (515) 
nan

>  <Peripheral>  (515) 
nan

>  <Num_H_Atoms_ProtBoundConf>  (515) 
nan

>  <Num_Resolved_Atoms>  (515) 
nan

>  <Num_Not_Resolved_Atoms>  (515) 
nan

$$$$
CHEMBL3581132
     RDKit          3D

  0  0  0  0  0  0  0  0  0  0999 V3000
M  V30 BEGIN CTAB
M  V30 COUNTS 39 41 0 0 0
M  V30 BEGIN ATOM
M  V30 1 C -0.124638 -5.872989 -0.169207 0
M  V30 2 O 1.260688 -5.684900 -0.298901 0
M  V30 3 C 1.729134 -4.488758 -0.830761 0
M  V30 4 C 3.095781 -4.280834 -0.967329 0
M  V30 5 C 3.564773 -3.092274 -1.495463 0
M  V30 6 C 2.676645 -2.114654 -1.886217 0
M  V30 7 C 1.297066 -2.312657 -1.753454 0
M  V30 8 C 0.365123 -1.220143 -2.189074 0
M  V30 9 C 0.063977 -0.346203 -1.044977 0
M  V30 10 O 0.607993 -0.653859 0.046822 0
M  V30 11 N -0.787044 0.786888 -1.132639 0
M  V30 12 C -1.093528 1.660538 -0.001138 0
M  V30 13 C -0.736389 1.666334 1.259537 0
M  V30 14 C -1.225873 2.664431 2.064455 0
M  V30 15 C -0.880003 2.757126 3.509163 0
M  V30 16 C 0.365729 2.321779 3.918894 0
M  V30 17 C 0.736052 2.381699 5.247495 0
M  V30 18 N -0.143460 2.876816 6.154612 0
M  V30 19 C -1.342351 3.296142 5.762743 0
M  V30 20 C -1.766398 3.258604 4.439675 0
M  V30 21 C -2.053381 3.602684 1.537369 0
M  V30 22 S -2.141487 3.009245 -0.263885 0
M  V30 23 C 0.852622 -3.492281 -1.229816 0
M  V30 24 H -0.585573 -4.994258 0.330477 0
M  V30 25 H -0.360290 -6.735963 0.512392 0
M  V30 26 H -0.580034 -5.992670 -1.160279 0
M  V30 27 H 3.814699 -5.044357 -0.663321 0
M  V30 28 H 4.624697 -2.916256 -1.608174 0
M  V30 29 H 3.016301 -1.156169 -2.310203 0
M  V30 30 H -0.536049 -1.686922 -2.632193 0
M  V30 31 H 0.877228 -0.709357 -3.034299 0
M  V30 32 H -1.164645 0.929653 -2.070151 0
M  V30 33 H -0.074433 0.887963 1.612383 0
M  V30 34 H 1.031938 1.935224 3.159564 0
M  V30 35 H 1.732694 2.025892 5.528496 0
M  V30 36 H -2.050247 3.691279 6.472412 0
M  V30 37 H -2.735053 3.590973 4.081892 0
M  V30 38 H -2.532694 4.442946 1.982520 0
M  V30 39 H -0.212604 -3.631514 -1.133310 0
M  V30 END ATOM
M  V30 BEGIN BOND
M  V30 1 1 1 2
M  V30 2 1 2 3
M  V30 3 2 3 4
M  V30 4 1 4 5
M  V30 5 2 5 6
M  V30 6 1 6 7
M  V30 7 1 7 8
M  V30 8 1 8 9
M  V30 9 2 9 10
M  V30 10 1 9 11
M  V30 11 1 11 12
M  V30 12 2 12 13
M  V30 13 1 13 14
M  V30 14 1 14 15
M  V30 15 2 15 16
M  V30 16 1 16 17
M  V30 17 2 17 18
M  V30 18 1 18 19
M  V30 19 2 19 20
M  V30 20 2 14 21
M  V30 21 1 21 22
M  V30 22 2 7 23
M  V30 23 1 23 3
M  V30 24 1 22 12
M  V30 25 1 20 15
M  V30 26 1 1 24
M  V30 27 1 1 25
M  V30 28 1 1 26
M  V30 29 1 4 27
M  V30 30 1 5 28
M  V30 31 1 6 29
M  V30 32 1 8 30
M  V30 33 1 8 31
M  V30 34 1 11 32
M  V30 35 1 13 33
M  V30 36 1 16 34
M  V30 37 1 17 35
M  V30 38 1 19 36
M  V30 39 1 20 37
M  V30 40 1 21 38
M  V30 41 1 23 39
M  V30 END BOND
M  V30 END CTAB
M  END
>  <Dataset>  (516) 
ChEMBL_Kinases

>  <Ligand_Instance>  (516) 
nan

>  <PDB_ID>  (516) 
nan

>  <Standardized_SMILES>  (516) 
COc1cccc(CC(=O)Nc2cc(-c3ccncc3)cs2)c1

>  <Name>  (516) 
nan

>  <Pocket>  (516) 
nan

>  <ATP_Site>  (516) 
nan

>  <Peripheral>  (516) 
nan

>  <Num_H_Atoms_ProtBoundConf>  (516) 
nan

>  <Num_Resolved_Atoms>  (516) 
nan

>  <Num_Not_Resolved_Atoms>  (516) 
nan

$$$$
CHEMBL3581149
     RDKit          3D

  0  0  0  0  0  0  0  0  0  0999 V3000
M  V30 BEGIN CTAB
M  V30 COUNTS 41 43 0 0 0
M  V30 BEGIN ATOM
M  V30 1 C 0.326122 -6.258443 -0.108241 0
M  V30 2 O 1.674243 -5.892456 0.109734 0
M  V30 3 C 2.229420 -4.717761 -0.369913 0
M  V30 4 C 3.551163 -4.542685 -0.053312 0
M  V30 5 C 4.230609 -3.399523 -0.476330 0
M  V30 6 C 3.524533 -2.454529 -1.223278 0
M  V30 7 C 2.178642 -2.658730 -1.531258 0
M  V30 8 C 1.471694 -1.602820 -2.338788 0
M  V30 9 C 0.896155 -0.656913 -1.349878 0
M  V30 10 O 1.122351 -0.952921 -0.151424 0
M  V30 11 N 0.156853 0.482620 -1.671197 0
M  V30 12 C -0.410054 1.411179 -0.736140 0
M  V30 13 C -0.405325 1.455191 0.586643 0
M  V30 14 C -1.044077 2.487570 1.224271 0
M  V30 15 C -1.099139 2.630097 2.700944 0
M  V30 16 C -0.015994 2.163125 3.416734 0
M  V30 17 C 0.020495 2.251373 4.794531 0
M  V30 18 N -1.048892 2.815069 5.423200 0
M  V30 19 C -2.091272 3.260572 4.682784 0
M  V30 20 N -3.170495 3.838712 5.430598 0
M  V30 21 C -2.192854 3.204377 3.314137 0
M  V30 22 C -1.663422 3.434100 0.430857 0
M  V30 23 S -1.294668 2.785609 -1.279043 0
M  V30 24 C 1.521364 -3.792467 -1.106362 0
M  V30 25 H -0.029866 -6.972005 0.677463 0
M  V30 26 H 0.203492 -6.661800 -1.125733 0
M  V30 27 H -0.298919 -5.329568 -0.046764 0
M  V30 28 H 4.148780 -5.256201 0.531133 0
M  V30 29 H 5.272961 -3.164185 -0.280602 0
M  V30 30 H 4.000289 -1.538931 -1.583876 0
M  V30 31 H 0.660879 -2.103433 -2.902878 0
M  V30 32 H 2.236059 -1.141200 -2.990338 0
M  V30 33 H 0.049855 0.601571 -2.700576 0
M  V30 34 H 0.105294 0.670320 1.128133 0
M  V30 35 H 0.846253 1.711025 2.937982 0
M  V30 36 H 0.820791 1.915159 5.442432 0
M  V30 37 H -4.102640 3.567605 5.822969 0
M  V30 38 H -4.064081 3.391780 5.745398 0
M  V30 39 H -3.024837 3.563031 2.762768 0
M  V30 40 H -2.218520 4.322825 0.756744 0
M  V30 41 H 0.479593 -3.962389 -1.338443 0
M  V30 END ATOM
M  V30 BEGIN BOND
M  V30 1 1 1 2
M  V30 2 1 2 3
M  V30 3 2 3 4
M  V30 4 1 4 5
M  V30 5 2 5 6
M  V30 6 1 6 7
M  V30 7 1 7 8
M  V30 8 1 8 9
M  V30 9 2 9 10
M  V30 10 1 9 11
M  V30 11 1 11 12
M  V30 12 2 12 13
M  V30 13 1 13 14
M  V30 14 1 14 15
M  V30 15 2 15 16
M  V30 16 1 16 17
M  V30 17 2 17 18
M  V30 18 1 18 19
M  V30 19 1 19 20
M  V30 20 2 19 21
M  V30 21 2 14 22
M  V30 22 1 22 23
M  V30 23 2 7 24
M  V30 24 1 24 3
M  V30 25 1 23 12
M  V30 26 1 21 15
M  V30 27 1 1 25
M  V30 28 1 1 26
M  V30 29 1 1 27
M  V30 30 1 4 28
M  V30 31 1 5 29
M  V30 32 1 6 30
M  V30 33 1 8 31
M  V30 34 1 8 32
M  V30 35 1 11 33
M  V30 36 1 13 34
M  V30 37 1 16 35
M  V30 38 1 17 36
M  V30 39 1 20 37
M  V30 40 1 20 38
M  V30 41 1 21 39
M  V30 42 1 22 40
M  V30 43 1 24 41
M  V30 END BOND
M  V30 END CTAB
M  END
>  <Dataset>  (517) 
ChEMBL_Kinases

>  <Ligand_Instance>  (517) 
nan

>  <PDB_ID>  (517) 
nan

>  <Standardized_SMILES>  (517) 
COc1cccc(CC(=O)Nc2cc(-c3ccnc(N)c3)cs2)c1

>  <Name>  (517) 
nan

>  <Pocket>  (517) 
nan

>  <ATP_Site>  (517) 
nan

>  <Peripheral>  (517) 
nan

>  <Num_H_Atoms_ProtBoundConf>  (517) 
nan

>  <Num_Resolved_Atoms>  (517) 
nan

>  <Num_Not_Resolved_Atoms>  (517) 
nan

$$$$
CHEMBL3581134
     RDKit          3D

  0  0  0  0  0  0  0  0  0  0999 V3000
M  V30 BEGIN CTAB
M  V30 COUNTS 39 41 0 0 0
M  V30 BEGIN ATOM
M  V30 1 C -0.018473 -5.841794 0.053910 0
M  V30 2 O 1.396601 -5.756066 -0.085975 0
M  V30 3 C 1.894896 -4.612519 -0.729041 0
M  V30 4 C 3.266590 -4.505578 -0.877343 0
M  V30 5 C 3.727224 -3.389605 -1.503198 0
M  V30 6 C 2.934758 -2.357714 -2.000830 0
M  V30 7 C 1.566342 -2.489137 -1.839689 0
M  V30 8 C 0.585037 -1.477290 -2.314046 0
M  V30 9 C 0.372696 -0.505305 -1.205380 0
M  V30 10 O 1.057330 -0.766837 -0.159385 0
M  V30 11 N -0.498875 0.609818 -1.278748 0
M  V30 12 C -0.512565 1.382368 -0.065285 0
M  V30 13 C 0.241554 2.426968 0.320340 0
M  V30 14 C 0.016128 2.984142 1.545733 0
M  V30 15 C -0.938601 2.488584 2.332636 0
M  V30 16 C -1.380206 2.884698 3.660841 0
M  V30 17 C -0.793489 3.947308 4.346299 0
M  V30 18 C -1.229402 4.305667 5.607020 0
M  V30 19 N -2.237069 3.632326 6.205636 0
M  V30 20 C -2.805402 2.599607 5.536408 0
M  V30 21 C -2.408929 2.193757 4.266527 0
M  V30 22 S -1.650728 1.135786 1.403542 0
M  V30 23 C 1.067732 -3.601985 -1.212977 0
M  V30 24 H -0.485204 -5.879721 -0.963793 0
M  V30 25 H -0.284713 -6.804921 0.545353 0
M  V30 26 H -0.447909 -5.018325 0.644940 0
M  V30 27 H 3.963236 -5.266790 -0.517700 0
M  V30 28 H 4.804589 -3.225884 -1.662194 0
M  V30 29 H 3.325021 -1.496059 -2.486349 0
M  V30 30 H -0.360698 -1.970058 -2.593953 0
M  V30 31 H 1.027502 -0.938997 -3.186496 0
M  V30 32 H -1.031522 0.770319 -2.161730 0
M  V30 33 H 1.010426 2.779138 -0.385728 0
M  V30 34 H 0.603410 3.842463 1.915175 0
M  V30 35 H 0.020420 4.462772 3.818991 0
M  V30 36 H -0.688672 5.159368 6.045051 0
M  V30 37 H -3.615041 2.056162 6.013652 0
M  V30 38 H -2.904506 1.353659 3.776116 0
M  V30 39 H -0.002523 -3.751132 -1.062215 0
M  V30 END ATOM
M  V30 BEGIN BOND
M  V30 1 1 1 2
M  V30 2 1 2 3
M  V30 3 2 3 4
M  V30 4 1 4 5
M  V30 5 2 5 6
M  V30 6 1 6 7
M  V30 7 1 7 8
M  V30 8 1 8 9
M  V30 9 2 9 10
M  V30 10 1 9 11
M  V30 11 1 11 12
M  V30 12 2 12 13
M  V30 13 1 13 14
M  V30 14 2 14 15
M  V30 15 1 15 16
M  V30 16 2 16 17
M  V30 17 1 17 18
M  V30 18 2 18 19
M  V30 19 1 19 20
M  V30 20 2 20 21
M  V30 21 1 15 22
M  V30 22 2 7 23
M  V30 23 1 23 3
M  V30 24 1 22 12
M  V30 25 1 21 16
M  V30 26 1 1 24
M  V30 27 1 1 25
M  V30 28 1 1 26
M  V30 29 1 4 27
M  V30 30 1 5 28
M  V30 31 1 6 29
M  V30 32 1 8 30
M  V30 33 1 8 31
M  V30 34 1 11 32
M  V30 35 1 13 33
M  V30 36 1 14 34
M  V30 37 1 17 35
M  V30 38 1 18 36
M  V30 39 1 20 37
M  V30 40 1 21 38
M  V30 41 1 23 39
M  V30 END BOND
M  V30 END CTAB
M  END
>  <Dataset>  (518) 
ChEMBL_Kinases

>  <Ligand_Instance>  (518) 
nan

>  <PDB_ID>  (518) 
nan

>  <Standardized_SMILES>  (518) 
COc1cccc(CC(=O)Nc2ccc(-c3ccncc3)s2)c1

>  <Name>  (518) 
nan

>  <Pocket>  (518) 
nan

>  <ATP_Site>  (518) 
nan

>  <Peripheral>  (518) 
nan

>  <Num_H_Atoms_ProtBoundConf>  (518) 
nan

>  <Num_Resolved_Atoms>  (518) 
nan

>  <Num_Not_Resolved_Atoms>  (518) 
nan

$$$$
CHEMBL3581135
     RDKit          3D

  0  0  0  0  0  0  0  0  0  0999 V3000
M  V30 BEGIN CTAB
M  V30 COUNTS 37 39 0 0 0
M  V30 BEGIN ATOM
M  V30 1 C 1.631003 -6.254012 1.249632 0
M  V30 2 O 1.383311 -5.111001 0.455672 0
M  V30 3 C 2.239489 -4.039673 0.463444 0
M  V30 4 C 3.375986 -4.029623 1.243191 0
M  V30 5 C 4.233940 -2.938744 1.241534 0
M  V30 6 C 3.955459 -1.835212 0.447799 0
M  V30 7 C 2.797167 -1.895264 -0.319760 0
M  V30 8 C 2.495439 -0.714503 -1.171667 0
M  V30 9 C 1.658895 0.263819 -0.396315 0
M  V30 10 O 1.469590 -0.221295 0.744801 0
M  V30 11 N 1.263208 1.467409 -1.042159 0
M  V30 12 C 0.446285 2.234227 -0.027260 0
M  V30 13 N -0.840739 1.962243 -0.066820 0
M  V30 14 C -1.527958 2.656781 0.841722 0
M  V30 15 C -2.978371 2.591245 1.063936 0
M  V30 16 C -3.906507 3.581851 0.830436 0
M  V30 17 C -5.236993 3.343623 1.099085 0
M  V30 18 N -5.643688 2.146522 1.590282 0
M  V30 19 C -4.753016 1.155904 1.828911 0
M  V30 20 C -3.406026 1.366841 1.567935 0
M  V30 21 N -0.943843 3.592994 1.759457 0
M  V30 22 S 0.796104 3.345020 1.131355 0
M  V30 23 C 1.921126 -2.965455 -0.341870 0
M  V30 24 H 1.705122 -6.019246 2.319837 0
M  V30 25 H 2.570738 -6.744214 0.918817 0
M  V30 26 H 0.818504 -6.998493 1.135292 0
M  V30 27 H 3.606317 -4.872193 1.861461 0
M  V30 28 H 5.131632 -2.921973 1.852622 0
M  V30 29 H 4.586812 -0.945821 0.399368 0
M  V30 30 H 1.904067 -1.005410 -2.054513 0
M  V30 31 H 3.444995 -0.242423 -1.535543 0
M  V30 32 H 1.559909 1.624783 -2.006516 0
M  V30 33 H -3.495529 4.501726 0.439522 0
M  V30 34 H -5.922282 4.153139 0.898258 0
M  V30 35 H -5.059739 0.178935 2.226338 0
M  V30 36 H -2.726080 0.529225 1.779715 0
M  V30 37 H 1.043320 -2.898155 -0.985024 0
M  V30 END ATOM
M  V30 BEGIN BOND
M  V30 1 1 1 2
M  V30 2 1 2 3
M  V30 3 2 3 4
M  V30 4 1 4 5
M  V30 5 2 5 6
M  V30 6 1 6 7
M  V30 7 1 7 8
M  V30 8 1 8 9
M  V30 9 2 9 10
M  V30 10 1 9 11
M  V30 11 1 11 12
M  V30 12 2 12 13
M  V30 13 1 13 14
M  V30 14 1 14 15
M  V30 15 2 15 16
M  V30 16 1 16 17
M  V30 17 2 17 18
M  V30 18 1 18 19
M  V30 19 2 19 20
M  V30 20 2 14 21
M  V30 21 1 21 22
M  V30 22 2 7 23
M  V30 23 1 23 3
M  V30 24 1 22 12
M  V30 25 1 20 15
M  V30 26 1 1 24
M  V30 27 1 1 25
M  V30 28 1 1 26
M  V30 29 1 4 27
M  V30 30 1 5 28
M  V30 31 1 6 29
M  V30 32 1 8 30
M  V30 33 1 8 31
M  V30 34 1 11 32
M  V30 35 1 16 33
M  V30 36 1 17 34
M  V30 37 1 19 35
M  V30 38 1 20 36
M  V30 39 1 23 37
M  V30 END BOND
M  V30 END CTAB
M  END
>  <Dataset>  (519) 
ChEMBL_Kinases

>  <Ligand_Instance>  (519) 
nan

>  <PDB_ID>  (519) 
nan

>  <Standardized_SMILES>  (519) 
COc1cccc(CC(=O)Nc2nc(-c3ccncc3)ns2)c1

>  <Name>  (519) 
nan

>  <Pocket>  (519) 
nan

>  <ATP_Site>  (519) 
nan

>  <Peripheral>  (519) 
nan

>  <Num_H_Atoms_ProtBoundConf>  (519) 
nan

>  <Num_Resolved_Atoms>  (519) 
nan

>  <Num_Not_Resolved_Atoms>  (519) 
nan

$$$$
CHEMBL3581136
     RDKit          3D

  0  0  0  0  0  0  0  0  0  0999 V3000
M  V30 BEGIN CTAB
M  V30 COUNTS 37 39 0 0 0
M  V30 BEGIN ATOM
M  V30 1 C 3.896319 -6.201622 0.648095 0
M  V30 2 O 3.288144 -5.153459 -0.077400 0
M  V30 3 C 3.650560 -3.839479 0.179755 0
M  V30 4 C 4.579043 -3.410645 1.103995 0
M  V30 5 C 4.899927 -2.109740 1.319211 0
M  V30 6 C 4.254170 -1.149944 0.562696 0
M  V30 7 C 3.306726 -1.494470 -0.388817 0
M  V30 8 C 2.598358 -0.459411 -1.217274 0
M  V30 9 C 1.342587 -0.027389 -0.506710 0
M  V30 10 O 0.860963 -0.398634 0.599465 0
M  V30 11 N 0.606240 0.960833 -1.230947 0
M  V30 12 C -0.619548 1.347304 -0.482487 0
M  V30 13 N -0.683079 2.210337 0.298191 0
M  V30 14 N -1.721897 2.588475 0.977125 0
M  V30 15 C -2.783659 2.102402 0.903161 0
M  V30 16 C -4.151488 2.173591 1.421775 0
M  V30 17 C -4.456664 3.144727 2.377611 0
M  V30 18 C -5.735043 3.239450 2.887325 0
M  V30 19 N -6.723625 2.416866 2.493676 0
M  V30 20 C -6.455594 1.459463 1.562314 0
M  V30 21 C -5.183311 1.349235 1.041005 0
M  V30 22 S -2.441577 0.757310 -0.394611 0
M  V30 23 C 3.020658 -2.851124 -0.562895 0
M  V30 24 H 4.035013 -5.971252 1.725701 0
M  V30 25 H 4.917945 -6.446834 0.241894 0
M  V30 26 H 3.278104 -7.127839 0.634456 0
M  V30 27 H 5.070366 -4.187527 1.683843 0
M  V30 28 H 5.635082 -1.807498 2.054373 0
M  V30 29 H 4.438445 -0.088268 0.657832 0
M  V30 30 H 3.278229 0.413039 -1.264059 0
M  V30 31 H 2.287845 -0.864536 -2.185474 0
M  V30 32 H 0.780048 1.415824 -2.128602 0
M  V30 33 H -3.646687 3.784189 2.669795 0
M  V30 34 H -5.890311 4.028388 3.632863 0
M  V30 35 H -7.219316 0.770062 1.210820 0
M  V30 36 H -4.983642 0.597943 0.313742 0
M  V30 37 H 2.268317 -3.126193 -1.318473 0
M  V30 END ATOM
M  V30 BEGIN BOND
M  V30 1 1 1 2
M  V30 2 1 2 3
M  V30 3 2 3 4
M  V30 4 1 4 5
M  V30 5 2 5 6
M  V30 6 1 6 7
M  V30 7 1 7 8
M  V30 8 1 8 9
M  V30 9 2 9 10
M  V30 10 1 9 11
M  V30 11 1 11 12
M  V30 12 2 12 13
M  V30 13 1 13 14
M  V30 14 2 14 15
M  V30 15 1 15 16
M  V30 16 2 16 17
M  V30 17 1 17 18
M  V30 18 2 18 19
M  V30 19 1 19 20
M  V30 20 2 20 21
M  V30 21 1 15 22
M  V30 22 2 7 23
M  V30 23 1 23 3
M  V30 24 1 22 12
M  V30 25 1 21 16
M  V30 26 1 1 24
M  V30 27 1 1 25
M  V30 28 1 1 26
M  V30 29 1 4 27
M  V30 30 1 5 28
M  V30 31 1 6 29
M  V30 32 1 8 30
M  V30 33 1 8 31
M  V30 34 1 11 32
M  V30 35 1 17 33
M  V30 36 1 18 34
M  V30 37 1 20 35
M  V30 38 1 21 36
M  V30 39 1 23 37
M  V30 END BOND
M  V30 END CTAB
M  END
>  <Dataset>  (520) 
ChEMBL_Kinases

>  <Ligand_Instance>  (520) 
nan

>  <PDB_ID>  (520) 
nan

>  <Standardized_SMILES>  (520) 
COc1cccc(CC(=O)Nc2nnc(-c3ccncc3)s2)c1

>  <Name>  (520) 
nan

>  <Pocket>  (520) 
nan

>  <ATP_Site>  (520) 
nan

>  <Peripheral>  (520) 
nan

>  <Num_H_Atoms_ProtBoundConf>  (520) 
nan

>  <Num_Resolved_Atoms>  (520) 
nan

>  <Num_Not_Resolved_Atoms>  (520) 
nan

$$$$
CHEMBL3581138
     RDKit          3D

  0  0  0  0  0  0  0  0  0  0999 V3000
M  V30 BEGIN CTAB
M  V30 COUNTS 38 40 0 0 0
M  V30 BEGIN ATOM
M  V30 1 C -0.087009 -5.657202 0.497385 0
M  V30 2 O 1.105060 -5.404005 -0.179531 0
M  V30 3 C 1.390272 -4.351116 -1.004587 0
M  V30 4 C 2.625080 -4.231470 -1.610466 0
M  V30 5 C 2.902931 -3.172921 -2.436171 0
M  V30 6 C 1.905696 -2.223301 -2.646004 0
M  V30 7 C 0.660632 -2.332670 -2.042623 0
M  V30 8 C -0.414087 -1.305207 -2.271472 0
M  V30 9 C -0.190604 -0.288636 -1.183842 0
M  V30 10 O 0.769033 -1.015302 -0.818249 0
M  V30 11 N -0.947112 0.895244 -0.955476 0
M  V30 12 C -0.541809 1.710622 0.147731 0
M  V30 13 C -0.841247 1.782351 1.440340 0
M  V30 14 C -0.229347 2.728099 2.214009 0
M  V30 15 C -0.535261 2.833673 3.635519 0
M  V30 16 C 0.067318 3.776927 4.434662 0
M  V30 17 C -0.240927 3.854990 5.778496 0
M  V30 18 N -1.134031 3.018765 6.350534 0
M  V30 19 C -1.713460 2.102587 5.553449 0
M  V30 20 N -1.417043 2.021745 4.243122 0
M  V30 21 C 0.694055 3.577811 1.576032 0
M  V30 22 S 0.650054 2.960890 -0.195758 0
M  V30 23 C 0.404508 -3.395541 -1.223284 0
M  V30 24 H 0.158654 -6.242062 1.426761 0
M  V30 25 H -0.483348 -4.684535 0.898614 0
M  V30 26 H -0.835113 -6.218035 -0.079601 0
M  V30 27 H 3.415389 -4.951359 -1.466012 0
M  V30 28 H 3.848586 -3.033286 -2.932250 0
M  V30 29 H 2.093180 -1.360692 -3.302286 0
M  V30 30 H -1.396581 -1.774457 -2.227074 0
M  V30 31 H -0.216940 -0.852755 -3.282633 0
M  V30 32 H -1.711542 1.031710 -1.620700 0
M  V30 33 H -1.569986 1.047966 1.744331 0
M  V30 34 H 0.791857 4.481618 4.052789 0
M  V30 35 H 0.245872 4.605335 6.387573 0
M  V30 36 H -2.452126 1.356624 5.856681 0
M  V30 37 H 1.251114 4.374250 2.078550 0
M  V30 38 H -0.546997 -3.487789 -0.756377 0
M  V30 END ATOM
M  V30 BEGIN BOND
M  V30 1 1 1 2
M  V30 2 1 2 3
M  V30 3 2 3 4
M  V30 4 1 4 5
M  V30 5 2 5 6
M  V30 6 1 6 7
M  V30 7 1 7 8
M  V30 8 1 8 9
M  V30 9 2 9 10
M  V30 10 1 9 11
M  V30 11 1 11 12
M  V30 12 2 12 13
M  V30 13 1 13 14
M  V30 14 1 14 15
M  V30 15 2 15 16
M  V30 16 1 16 17
M  V30 17 2 17 18
M  V30 18 1 18 19
M  V30 19 2 19 20
M  V30 20 2 14 21
M  V30 21 1 21 22
M  V30 22 2 7 23
M  V30 23 1 23 3
M  V30 24 1 22 12
M  V30 25 1 20 15
M  V30 26 1 1 24
M  V30 27 1 1 25
M  V30 28 1 1 26
M  V30 29 1 4 27
M  V30 30 1 5 28
M  V30 31 1 6 29
M  V30 32 1 8 30
M  V30 33 1 8 31
M  V30 34 1 11 32
M  V30 35 1 13 33
M  V30 36 1 16 34
M  V30 37 1 17 35
M  V30 38 1 19 36
M  V30 39 1 21 37
M  V30 40 1 23 38
M  V30 END BOND
M  V30 END CTAB
M  END
>  <Dataset>  (521) 
ChEMBL_Kinases

>  <Ligand_Instance>  (521) 
nan

>  <PDB_ID>  (521) 
nan

>  <Standardized_SMILES>  (521) 
COc1cccc(CC(=O)Nc2cc(-c3ccncn3)cs2)c1

>  <Name>  (521) 
nan

>  <Pocket>  (521) 
nan

>  <ATP_Site>  (521) 
nan

>  <Peripheral>  (521) 
nan

>  <Num_H_Atoms_ProtBoundConf>  (521) 
nan

>  <Num_Resolved_Atoms>  (521) 
nan

>  <Num_Not_Resolved_Atoms>  (521) 
nan

$$$$
CHEMBL3581140
     RDKit          3D

  0  0  0  0  0  0  0  0  0  0999 V3000
M  V30 BEGIN CTAB
M  V30 COUNTS 40 42 0 0 0
M  V30 BEGIN ATOM
M  V30 1 C 1.620674 -5.090746 -3.750982 0
M  V30 2 O 2.791875 -4.732366 -3.060240 0
M  V30 3 C 2.916396 -3.459858 -2.550799 0
M  V30 4 C 4.130954 -3.267952 -1.898012 0
M  V30 5 C 4.457876 -2.054225 -1.311805 0
M  V30 6 C 3.565616 -0.988976 -1.365260 0
M  V30 7 C 2.365385 -1.191186 -2.014790 0
M  V30 8 C 1.334810 -0.117368 -2.131868 0
M  V30 9 C 0.416604 -0.201230 -0.955879 0
M  V30 10 O 0.849634 -1.165178 -0.275595 0
M  V30 11 N -0.635575 0.717380 -0.857039 0
M  V30 12 C -1.486414 0.538657 0.356894 0
M  V30 13 N -1.298650 1.060857 1.392308 0
M  V30 14 C -2.054499 0.909444 2.490532 0
M  V30 15 C -1.751220 1.599256 3.748024 0
M  V30 16 C -0.683432 2.454841 3.928572 0
M  V30 17 C -0.410859 3.097122 5.117842 0
M  V30 18 N -1.225876 2.889921 6.182451 0
M  V30 19 C -2.274830 2.078710 6.084138 0
M  V30 20 N -3.126867 1.864131 7.202447 0
M  V30 21 C -2.518699 1.453855 4.884666 0
M  V30 22 C -3.145350 0.063696 2.382113 0
M  V30 23 S -2.977587 -0.483086 0.571457 0
M  V30 24 C 2.036548 -2.395700 -2.598678 0
M  V30 25 H 0.905541 -5.525616 -3.009474 0
M  V30 26 H 1.216309 -4.268908 -4.342868 0
M  V30 27 H 1.921898 -5.908453 -4.458006 0
M  V30 28 H 4.909541 -4.023784 -1.790091 0
M  V30 29 H 5.394268 -1.877481 -0.798394 0
M  V30 30 H 3.733130 -0.000811 -0.935495 0
M  V30 31 H 0.774584 -0.215207 -3.067707 0
M  V30 32 H 1.887217 0.847165 -2.115582 0
M  V30 33 H -0.756384 1.423203 -1.584369 0
M  V30 34 H -0.017230 2.631663 3.078403 0
M  V30 35 H 0.446384 3.764382 5.209912 0
M  V30 36 H -3.944900 2.483723 7.015745 0
M  V30 37 H -3.035129 1.251834 8.051992 0
M  V30 38 H -3.390418 0.801488 4.861499 0
M  V30 39 H -3.858283 -0.181095 3.142691 0
M  V30 40 H 1.120436 -2.630547 -3.122927 0
M  V30 END ATOM
M  V30 BEGIN BOND
M  V30 1 1 1 2
M  V30 2 1 2 3
M  V30 3 2 3 4
M  V30 4 1 4 5
M  V30 5 2 5 6
M  V30 6 1 6 7
M  V30 7 1 7 8
M  V30 8 1 8 9
M  V30 9 2 9 10
M  V30 10 1 9 11
M  V30 11 1 11 12
M  V30 12 2 12 13
M  V30 13 1 13 14
M  V30 14 1 14 15
M  V30 15 2 15 16
M  V30 16 1 16 17
M  V30 17 2 17 18
M  V30 18 1 18 19
M  V30 19 1 19 20
M  V30 20 2 19 21
M  V30 21 2 14 22
M  V30 22 1 22 23
M  V30 23 2 7 24
M  V30 24 1 24 3
M  V30 25 1 23 12
M  V30 26 1 21 15
M  V30 27 1 1 25
M  V30 28 1 1 26
M  V30 29 1 1 27
M  V30 30 1 4 28
M  V30 31 1 5 29
M  V30 32 1 6 30
M  V30 33 1 8 31
M  V30 34 1 8 32
M  V30 35 1 11 33
M  V30 36 1 16 34
M  V30 37 1 17 35
M  V30 38 1 20 36
M  V30 39 1 20 37
M  V30 40 1 21 38
M  V30 41 1 22 39
M  V30 42 1 24 40
M  V30 END BOND
M  V30 END CTAB
M  END
>  <Dataset>  (522) 
ChEMBL_Kinases

>  <Ligand_Instance>  (522) 
nan

>  <PDB_ID>  (522) 
nan

>  <Standardized_SMILES>  (522) 
COc1cccc(CC(=O)Nc2nc(-c3ccnc(N)c3)cs2)c1

>  <Name>  (522) 
nan

>  <Pocket>  (522) 
nan

>  <ATP_Site>  (522) 
nan

>  <Peripheral>  (522) 
nan

>  <Num_H_Atoms_ProtBoundConf>  (522) 
nan

>  <Num_Resolved_Atoms>  (522) 
nan

>  <Num_Not_Resolved_Atoms>  (522) 
nan

$$$$
CHEMBL384477
     RDKit          3D

  0  0  0  0  0  0  0  0  0  0999 V3000
M  V30 BEGIN CTAB
M  V30 COUNTS 37 41 0 0 0
M  V30 BEGIN ATOM
M  V30 1 O 3.024213 1.572644 1.935134 0
M  V30 2 C 2.349599 0.516866 2.047127 0
M  V30 3 N 2.451617 -0.506317 3.059838 0
M  V30 4 C 1.487593 -1.504955 2.775867 0
M  V30 5 O 1.461798 -2.452790 3.570085 0
M  V30 6 C 0.750225 -1.160643 1.594028 0
M  V30 7 C 1.277672 0.035227 1.184029 0
M  V30 8 C 0.784510 0.664856 0.045973 0
M  V30 9 C 1.320335 1.938318 -0.421534 0
M  V30 10 C 0.686529 3.062832 0.100414 0
M  V30 11 C 1.088346 4.317042 -0.253706 0
M  V30 12 C 2.139730 4.484721 -1.143533 0
M  V30 13 C 2.772231 3.364035 -1.664425 0
M  V30 14 Cl 4.100178 3.458193 -2.786925 0
M  V30 15 C 2.366968 2.094112 -1.307210 0
M  V30 16 Cl 3.096714 0.630250 -1.906174 0
M  V30 17 C -0.239445 0.075248 -0.665745 0
M  V30 18 C -0.755197 -1.128945 -0.234508 0
M  V30 19 N -1.735689 -1.901190 -0.735239 0
M  V30 20 C -1.839694 -2.987518 0.085975 0
M  V30 21 C -2.722155 -4.043011 -0.050912 0
M  V30 22 C -2.717652 -5.080763 0.857832 0
M  V30 23 C -1.800034 -5.032622 1.913670 0
M  V30 24 O -1.787996 -6.072098 2.832924 0
M  V30 25 C -0.955541 -3.948702 1.980393 0
M  V30 26 C -0.922860 -2.903087 1.109286 0
M  V30 27 C -0.255109 -1.737118 0.893155 0
M  V30 28 H 3.171473 -0.388506 3.818456 0
M  V30 29 H -0.137898 3.007627 0.797266 0
M  V30 30 H 0.646395 5.233507 0.108686 0
M  V30 31 H 2.523074 5.438859 -1.478512 0
M  V30 32 H -0.614073 0.578589 -1.552074 0
M  V30 33 H -2.274580 -1.652613 -1.596301 0
M  V30 34 H -3.427918 -4.074942 -0.867424 0
M  V30 35 H -3.396676 -5.917732 0.774110 0
M  V30 36 H -2.026886 -5.950033 3.816676 0
M  V30 37 H -0.292148 -3.985765 2.806268 0
M  V30 END ATOM
M  V30 BEGIN BOND
M  V30 1 2 1 2
M  V30 2 1 2 3
M  V30 3 1 3 4
M  V30 4 2 4 5
M  V30 5 1 4 6
M  V30 6 2 6 7
M  V30 7 1 7 8
M  V30 8 1 8 9
M  V30 9 2 9 10
M  V30 10 1 10 11
M  V30 11 2 11 12
M  V30 12 1 12 13
M  V30 13 1 13 14
M  V30 14 2 13 15
M  V30 15 1 15 16
M  V30 16 2 8 17
M  V30 17 1 17 18
M  V30 18 1 18 19
M  V30 19 1 19 20
M  V30 20 2 20 21
M  V30 21 1 21 22
M  V30 22 2 22 23
M  V30 23 1 23 24
M  V30 24 1 23 25
M  V30 25 2 25 26
M  V30 26 1 26 27
M  V30 27 1 7 2
M  V30 28 1 15 9
M  V30 29 2 27 18
M  V30 30 1 27 6
M  V30 31 1 26 20
M  V30 32 1 3 28
M  V30 33 1 10 29
M  V30 34 1 11 30
M  V30 35 1 12 31
M  V30 36 1 17 32
M  V30 37 1 19 33
M  V30 38 1 21 34
M  V30 39 1 22 35
M  V30 40 1 24 36
M  V30 41 1 25 37
M  V30 END BOND
M  V30 END CTAB
M  END
>  <Dataset>  (523) 
ChEMBL_Kinases

>  <Ligand_Instance>  (523) 
nan

>  <PDB_ID>  (523) 
nan

>  <Standardized_SMILES>  (523) 
O=C1NC(=O)c2c1c(-c1cccc(Cl)c1Cl)cc1[nH]c3ccc(O)cc3c21

>  <Name>  (523) 
nan

>  <Pocket>  (523) 
nan

>  <ATP_Site>  (523) 
nan

>  <Peripheral>  (523) 
nan

>  <Num_H_Atoms_ProtBoundConf>  (523) 
nan

>  <Num_Resolved_Atoms>  (523) 
nan

>  <Num_Not_Resolved_Atoms>  (523) 
nan

$$$$
CHEMBL4086042
     RDKit          3D

  0  0  0  0  0  0  0  0  0  0999 V3000
M  V30 BEGIN CTAB
M  V30 COUNTS 33 35 0 0 0
M  V30 BEGIN ATOM
M  V30 1 C -0.227083 -2.696280 2.719187 0
M  V30 2 C -0.245511 -3.068209 1.242718 0
M  V30 3 C -1.644374 -3.273148 0.721181 0
M  V30 4 N 0.568513 -4.218982 0.997235 0
M  V30 5 C 1.708382 -3.935484 0.193784 0
M  V30 6 O 2.604103 -4.729846 -0.190822 0
M  V30 7 C 1.598009 -2.507186 -0.081574 0
M  V30 8 C 2.430004 -1.689793 -0.816108 0
M  V30 9 C 2.143696 -0.362488 -0.953567 0
M  V30 10 C 1.035507 0.228217 -0.382617 0
M  V30 11 N 0.780358 1.615566 -0.554714 0
M  V30 12 C -0.292080 2.399671 -0.053609 0
M  V30 13 C -0.386817 3.745082 -0.318939 0
M  V30 14 C -1.423145 4.503976 0.165020 0
M  V30 15 N -2.388284 3.964924 0.917970 0
M  V30 16 C -2.313206 2.666949 1.184463 0
M  V30 17 N -1.306265 1.961317 0.706528 0
M  V30 18 C 0.236477 -0.629528 0.340460 0
M  V30 19 C 0.474192 -1.969661 0.512354 0
M  V30 20 H 0.814421 -2.386351 2.954324 0
M  V30 21 H -0.853196 -1.775939 2.818462 0
M  V30 22 H -0.570423 -3.517408 3.359461 0
M  V30 23 H -1.637841 -4.071679 -0.030963 0
M  V30 24 H -2.110835 -2.339488 0.388620 0
M  V30 25 H -2.246051 -3.655516 1.571618 0
M  V30 26 H 0.325621 -5.169695 1.384430 0
M  V30 27 H 3.313795 -2.099451 -1.286352 0
M  V30 28 H 2.834314 0.247210 -1.546594 0
M  V30 29 H 1.487046 2.143736 -1.138396 0
M  V30 30 H 0.354810 4.259686 -0.921861 0
M  V30 31 H -1.465553 5.565241 -0.065083 0
M  V30 32 H -3.017842 2.085265 1.779816 0
M  V30 33 H -0.639763 -0.272781 0.818675 0
M  V30 END ATOM
M  V30 BEGIN BOND
M  V30 1 1 1 2
M  V30 2 1 2 3
M  V30 3 1 2 4
M  V30 4 1 4 5
M  V30 5 2 5 6
M  V30 6 1 5 7
M  V30 7 2 7 8
M  V30 8 1 8 9
M  V30 9 2 9 10
M  V30 10 1 10 11
M  V30 11 1 11 12
M  V30 12 2 12 13
M  V30 13 1 13 14
M  V30 14 2 14 15
M  V30 15 1 15 16
M  V30 16 2 16 17
M  V30 17 1 10 18
M  V30 18 2 18 19
M  V30 19 1 19 2
M  V30 20 1 19 7
M  V30 21 1 17 12
M  V30 22 1 1 20
M  V30 23 1 1 21
M  V30 24 1 1 22
M  V30 25 1 3 23
M  V30 26 1 3 24
M  V30 27 1 3 25
M  V30 28 1 4 26
M  V30 29 1 8 27
M  V30 30 1 9 28
M  V30 31 1 11 29
M  V30 32 1 13 30
M  V30 33 1 14 31
M  V30 34 1 16 32
M  V30 35 1 18 33
M  V30 END BOND
M  V30 END CTAB
M  END
>  <Dataset>  (524) 
ChEMBL_Kinases

>  <Ligand_Instance>  (524) 
nan

>  <PDB_ID>  (524) 
nan

>  <Standardized_SMILES>  (524) 
CC1(C)NC(=O)c2ccc(Nc3ccncn3)cc21

>  <Name>  (524) 
nan

>  <Pocket>  (524) 
nan

>  <ATP_Site>  (524) 
nan

>  <Peripheral>  (524) 
nan

>  <Num_H_Atoms_ProtBoundConf>  (524) 
nan

>  <Num_Resolved_Atoms>  (524) 
nan

>  <Num_Not_Resolved_Atoms>  (524) 
nan

$$$$
CHEMBL384575
     RDKit          3D

  0  0  0  0  0  0  0  0  0  0999 V3000
M  V30 BEGIN CTAB
M  V30 COUNTS 65 69 0 0 0
M  V30 BEGIN ATOM
M  V30 1 C 2.836166 0.683917 7.833059 0
M  V30 2 O 2.891642 1.536083 6.709634 0
M  V30 3 C 2.341850 0.809503 5.638839 0 CFG=2
M  V30 4 C 3.434630 0.556095 4.676035 0
M  V30 5 O 4.593418 1.029416 4.888487 0
M  V30 6 N 3.670643 -0.111588 3.451753 0
M  V30 7 C 4.990238 -0.062190 2.856439 0
M  V30 8 C 4.634181 0.512747 1.506584 0
M  V30 9 N 4.931460 1.310851 0.478812 0
M  V30 10 N 4.000210 1.268539 -0.440629 0
M  V30 11 C 3.027864 0.433782 -0.069410 0
M  V30 12 N 1.770164 -0.053151 -0.582490 0
M  V30 13 C 1.533736 -1.176425 -1.395167 0
M  V30 14 O 2.571423 -1.822799 -1.701219 0
M  V30 15 C 0.170356 -1.493280 -1.802662 0
M  V30 16 C -0.967676 -0.799585 -1.458449 0
M  V30 17 C -2.203657 -1.207438 -1.913243 0
M  V30 18 C -2.380820 -2.307617 -2.722103 0
M  V30 19 N -3.665325 -2.709055 -3.175027 0
M  V30 20 C -4.928794 -2.105149 -2.799089 0
M  V30 21 C -5.467465 -1.454309 -4.048331 0
M  V30 22 N -5.485505 -2.315138 -5.180767 0
M  V30 23 C -4.543672 -1.779810 -6.151304 0
M  V30 24 C -5.096830 -3.672023 -4.919260 0
M  V30 25 C -3.845268 -3.808623 -4.103298 0
M  V30 26 C -1.272980 -3.021360 -3.084706 0
M  V30 27 C -0.020340 -2.602591 -2.619646 0
M  V30 28 C 3.406796 -0.069862 1.181719 0
M  V30 29 C 3.135100 -0.943993 2.364063 0
M  V30 30 C 1.174772 1.493283 5.063741 0
M  V30 31 C 0.231719 1.984849 5.963297 0
M  V30 32 C -0.903649 2.647872 5.548992 0
M  V30 33 C -1.159081 2.856440 4.206241 0
M  V30 34 C -0.240807 2.379145 3.302019 0
M  V30 35 C 0.870832 1.727996 3.751889 0
M  V30 36 H 3.456386 -0.224967 7.571146 0
M  V30 37 H 1.806840 0.300771 7.914323 0
M  V30 38 H 3.239511 1.139621 8.740850 0
M  V30 39 H 2.017160 -0.191207 5.999495 0
M  V30 40 H 5.713512 0.564977 3.375062 0
M  V30 41 H 5.402630 -1.083875 2.634701 0
M  V30 42 H 5.799416 1.892292 0.424249 0
M  V30 43 H 1.039386 0.601488 -0.229561 0
M  V30 44 H -0.833480 0.062123 -0.825629 0
M  V30 45 H -3.033248 -0.596499 -1.587330 0
M  V30 46 H -4.866086 -1.351697 -2.017560 0
M  V30 47 H -5.574677 -2.935692 -2.444978 0
M  V30 48 H -6.536221 -1.205140 -3.814555 0
M  V30 49 H -4.943158 -0.495834 -4.171615 0
M  V30 50 H -4.078947 -2.552223 -6.787975 0
M  V30 51 H -3.708552 -1.338713 -5.566464 0
M  V30 52 H -4.971474 -0.942646 -6.743347 0
M  V30 53 H -5.002497 -4.231970 -5.869612 0
M  V30 54 H -5.920491 -4.154369 -4.352762 0
M  V30 55 H -2.994729 -3.934165 -4.806252 0
M  V30 56 H -3.889822 -4.743396 -3.507205 0
M  V30 57 H -1.284570 -3.900237 -3.713128 0
M  V30 58 H 0.863633 -3.185000 -2.918325 0
M  V30 59 H 3.716871 -1.875037 2.262405 0
M  V30 60 H 2.057082 -1.125942 2.496035 0
M  V30 61 H 0.285636 1.904874 7.036821 0
M  V30 62 H -1.660592 3.044909 6.214722 0
M  V30 63 H -2.017425 3.362947 3.776780 0
M  V30 64 H -0.374325 2.506229 2.224727 0
M  V30 65 H 1.575835 1.366037 3.034967 0
M  V30 END ATOM
M  V30 BEGIN BOND
M  V30 1 1 1 2
M  V30 2 1 2 3
M  V30 3 1 3 4
M  V30 4 2 4 5
M  V30 5 1 4 6
M  V30 6 1 6 7
M  V30 7 1 7 8
M  V30 8 1 8 9
M  V30 9 1 9 10
M  V30 10 2 10 11
M  V30 11 1 11 12
M  V30 12 1 12 13
M  V30 13 2 13 14
M  V30 14 1 13 15
M  V30 15 2 15 16
M  V30 16 1 16 17
M  V30 17 2 17 18
M  V30 18 1 18 19
M  V30 19 1 19 20
M  V30 20 1 20 21
M  V30 21 1 21 22
M  V30 22 1 22 23
M  V30 23 1 22 24
M  V30 24 1 24 25
M  V30 25 1 18 26
M  V30 26 2 26 27
M  V30 27 1 11 28
M  V30 28 1 28 29
M  V30 29 1 3 30
M  V30 30 2 30 31
M  V30 31 1 31 32
M  V30 32 2 32 33
M  V30 33 1 33 34
M  V30 34 2 34 35
M  V30 35 1 29 6
M  V30 36 1 35 30
M  V30 37 2 28 8
M  V30 38 1 27 15
M  V30 39 1 25 19
M  V30 40 1 1 36
M  V30 41 1 1 37
M  V30 42 1 1 38
M  V30 43 1 3 39 CFG=1
M  V30 44 1 7 40
M  V30 45 1 7 41
M  V30 46 1 9 42
M  V30 47 1 12 43
M  V30 48 1 16 44
M  V30 49 1 17 45
M  V30 50 1 20 46
M  V30 51 1 20 47
M  V30 52 1 21 48
M  V30 53 1 21 49
M  V30 54 1 23 50
M  V30 55 1 23 51
M  V30 56 1 23 52
M  V30 57 1 24 53
M  V30 58 1 24 54
M  V30 59 1 25 55
M  V30 60 1 25 56
M  V30 61 1 26 57
M  V30 62 1 27 58
M  V30 63 1 29 59
M  V30 64 1 29 60
M  V30 65 1 31 61
M  V30 66 1 32 62
M  V30 67 1 33 63
M  V30 68 1 34 64
M  V30 69 1 35 65
M  V30 END BOND
M  V30 END CTAB
M  END
>  <Dataset>  (525) 
ChEMBL_Kinases

>  <Ligand_Instance>  (525) 
nan

>  <PDB_ID>  (525) 
nan

>  <Standardized_SMILES>  (525) 
CO[C@H](C(=O)N1Cc2[nH]nc(NC(=O)c3ccc(N4CCN(C)CC4)cc3)c2C1)c1ccccc1

>  <Name>  (525) 
nan

>  <Pocket>  (525) 
nan

>  <ATP_Site>  (525) 
nan

>  <Peripheral>  (525) 
nan

>  <Num_H_Atoms_ProtBoundConf>  (525) 
nan

>  <Num_Resolved_Atoms>  (525) 
nan

>  <Num_Not_Resolved_Atoms>  (525) 
nan

$$$$
CHEMBL3581147
     RDKit          3D

  0  0  0  0  0  0  0  0  0  0999 V3000
M  V30 BEGIN CTAB
M  V30 COUNTS 39 41 0 0 0
M  V30 BEGIN ATOM
M  V30 1 C 1.064436 -5.611243 -1.018240 0
M  V30 2 O 2.284645 -5.233685 -0.411077 0
M  V30 3 C 2.768094 -3.932688 -0.481396 0
M  V30 4 C 3.971565 -3.583824 0.123960 0
M  V30 5 C 4.455597 -2.310628 0.061537 0
M  V30 6 C 3.729577 -1.335245 -0.623874 0
M  V30 7 C 2.518723 -1.663896 -1.238981 0
M  V30 8 C 1.768589 -0.580263 -1.967753 0
M  V30 9 C 0.878427 0.019104 -0.965924 0
M  V30 10 O 0.947512 -0.479095 0.185935 0
M  V30 11 N -0.002190 1.071684 -1.226361 0
M  V30 12 C -0.903245 1.690623 -0.247043 0
M  V30 13 C -1.106938 1.442872 1.022795 0
M  V30 14 C -2.034474 2.205319 1.689241 0
M  V30 15 C -2.358754 2.026217 3.128174 0
M  V30 16 C -1.340514 1.601712 3.960687 0
M  V30 17 C -1.600154 1.418739 5.308321 0
M  V30 18 N -2.841198 1.649767 5.827423 0
M  V30 19 C -3.784646 2.058977 4.970928 0
M  V30 20 Cl -5.372745 2.345729 5.681999 0
M  V30 21 C -3.621013 2.266188 3.629504 0
M  V30 22 C -2.708793 3.193744 0.999541 0
M  V30 23 S -1.929561 2.981232 -0.718649 0
M  V30 24 C 2.057357 -2.942998 -1.161761 0
M  V30 25 H 0.936810 -6.702290 -0.910268 0
M  V30 26 H 0.212560 -5.100501 -0.530879 0
M  V30 27 H 1.156743 -5.397298 -2.099175 0
M  V30 28 H 4.552277 -4.324156 0.661396 0
M  V30 29 H 5.392462 -1.967419 0.513490 0
M  V30 30 H 4.088520 -0.307750 -0.692776 0
M  V30 31 H 1.239393 -1.088587 -2.793233 0
M  V30 32 H 2.532756 0.113574 -2.353498 0
M  V30 33 H 0.029438 1.398827 -2.211430 0
M  V30 34 H -0.551799 0.656999 1.515286 0
M  V30 35 H -0.357003 1.416475 3.560826 0
M  V30 36 H -0.754290 1.080424 5.923567 0
M  V30 37 H -4.402374 2.597187 2.962303 0
M  V30 38 H -3.443662 3.876938 1.313966 0
M  V30 39 H 1.114837 -3.191571 -1.642447 0
M  V30 END ATOM
M  V30 BEGIN BOND
M  V30 1 1 1 2
M  V30 2 1 2 3
M  V30 3 2 3 4
M  V30 4 1 4 5
M  V30 5 2 5 6
M  V30 6 1 6 7
M  V30 7 1 7 8
M  V30 8 1 8 9
M  V30 9 2 9 10
M  V30 10 1 9 11
M  V30 11 1 11 12
M  V30 12 2 12 13
M  V30 13 1 13 14
M  V30 14 1 14 15
M  V30 15 2 15 16
M  V30 16 1 16 17
M  V30 17 2 17 18
M  V30 18 1 18 19
M  V30 19 1 19 20
M  V30 20 2 19 21
M  V30 21 2 14 22
M  V30 22 1 22 23
M  V30 23 2 7 24
M  V30 24 1 24 3
M  V30 25 1 23 12
M  V30 26 1 21 15
M  V30 27 1 1 25
M  V30 28 1 1 26
M  V30 29 1 1 27
M  V30 30 1 4 28
M  V30 31 1 5 29
M  V30 32 1 6 30
M  V30 33 1 8 31
M  V30 34 1 8 32
M  V30 35 1 11 33
M  V30 36 1 13 34
M  V30 37 1 16 35
M  V30 38 1 17 36
M  V30 39 1 21 37
M  V30 40 1 22 38
M  V30 41 1 24 39
M  V30 END BOND
M  V30 END CTAB
M  END
>  <Dataset>  (526) 
ChEMBL_Kinases

>  <Ligand_Instance>  (526) 
nan

>  <PDB_ID>  (526) 
nan

>  <Standardized_SMILES>  (526) 
COc1cccc(CC(=O)Nc2cc(-c3ccnc(Cl)c3)cs2)c1

>  <Name>  (526) 
nan

>  <Pocket>  (526) 
nan

>  <ATP_Site>  (526) 
nan

>  <Peripheral>  (526) 
nan

>  <Num_H_Atoms_ProtBoundConf>  (526) 
nan

>  <Num_Resolved_Atoms>  (526) 
nan

>  <Num_Not_Resolved_Atoms>  (526) 
nan

$$$$
CHEMBL3581133
     RDKit          3D

  0  0  0  0  0  0  0  0  0  0999 V3000
M  V30 BEGIN CTAB
M  V30 COUNTS 39 41 0 0 0
M  V30 BEGIN ATOM
M  V30 1 C 0.966090 -5.274277 -0.998083 0
M  V30 2 O 2.168702 -4.957801 -0.316768 0
M  V30 3 C 2.722814 -3.682165 -0.370232 0
M  V30 4 C 3.892291 -3.257531 0.255228 0
M  V30 5 C 4.393168 -1.986318 0.166751 0
M  V30 6 C 3.709547 -1.058362 -0.583380 0
M  V30 7 C 2.548908 -1.369339 -1.239291 0
M  V30 8 C 1.664180 -0.537286 -2.107070 0
M  V30 9 C 0.813585 0.255364 -1.206871 0
M  V30 10 O 1.298285 1.170816 -0.513662 0
M  V30 11 N -0.588142 0.077793 -1.027301 0
M  V30 12 C -1.232887 0.951138 -0.110436 0
M  V30 13 C -1.842318 2.086259 -0.690060 0
M  V30 14 S -2.565889 2.978478 0.816420 0
M  V30 15 C -2.004334 1.810812 1.938482 0
M  V30 16 C -2.228837 1.879382 3.426052 0
M  V30 17 C -2.943530 2.968859 3.847094 0
M  V30 18 C -3.168020 3.067305 5.201778 0
M  V30 19 N -2.692474 2.123935 6.020931 0
M  V30 20 C -2.000837 1.085960 5.537712 0
M  V30 21 C -1.697332 0.857437 4.182155 0
M  V30 22 C -1.371249 0.899344 1.249757 0
M  V30 23 C 2.085874 -2.677073 -1.114054 0
M  V30 24 H 0.130972 -4.620386 -0.660177 0
M  V30 25 H 0.710583 -6.332713 -0.805940 0
M  V30 26 H 1.175529 -5.206121 -2.076522 0
M  V30 27 H 4.407288 -4.010361 0.840173 0
M  V30 28 H 5.287932 -1.696680 0.654947 0
M  V30 29 H 4.000769 -0.019875 -0.733996 0
M  V30 30 H 2.357584 0.175432 -2.615796 0
M  V30 31 H 1.150450 -1.114852 -2.871417 0
M  V30 32 H -1.055796 -0.681827 -1.576590 0
M  V30 33 H -1.909147 2.419315 -1.757737 0
M  V30 34 H -3.330263 3.731136 3.204408 0
M  V30 35 H -3.730530 3.915307 5.549067 0
M  V30 36 H -1.646709 0.358952 6.276308 0
M  V30 37 H -1.141995 0.019185 3.816274 0
M  V30 38 H -0.914151 0.033819 1.740857 0
M  V30 39 H 1.166850 -3.023865 -1.602897 0
M  V30 END ATOM
M  V30 BEGIN BOND
M  V30 1 1 1 2
M  V30 2 1 2 3
M  V30 3 2 3 4
M  V30 4 1 4 5
M  V30 5 2 5 6
M  V30 6 1 6 7
M  V30 7 1 7 8
M  V30 8 1 8 9
M  V30 9 2 9 10
M  V30 10 1 9 11
M  V30 11 1 11 12
M  V30 12 2 12 13
M  V30 13 1 13 14
M  V30 14 1 14 15
M  V30 15 1 15 16
M  V30 16 2 16 17
M  V30 17 1 17 18
M  V30 18 2 18 19
M  V30 19 1 19 20
M  V30 20 2 20 21
M  V30 21 2 15 22
M  V30 22 2 7 23
M  V30 23 1 23 3
M  V30 24 1 22 12
M  V30 25 1 21 16
M  V30 26 1 1 24
M  V30 27 1 1 25
M  V30 28 1 1 26
M  V30 29 1 4 27
M  V30 30 1 5 28
M  V30 31 1 6 29
M  V30 32 1 8 30
M  V30 33 1 8 31
M  V30 34 1 11 32
M  V30 35 1 13 33
M  V30 36 1 17 34
M  V30 37 1 18 35
M  V30 38 1 20 36
M  V30 39 1 21 37
M  V30 40 1 22 38
M  V30 41 1 23 39
M  V30 END BOND
M  V30 END CTAB
M  END
>  <Dataset>  (527) 
ChEMBL_Kinases

>  <Ligand_Instance>  (527) 
nan

>  <PDB_ID>  (527) 
nan

>  <Standardized_SMILES>  (527) 
COc1cccc(CC(=O)Nc2csc(-c3ccncc3)c2)c1

>  <Name>  (527) 
nan

>  <Pocket>  (527) 
nan

>  <ATP_Site>  (527) 
nan

>  <Peripheral>  (527) 
nan

>  <Num_H_Atoms_ProtBoundConf>  (527) 
nan

>  <Num_Resolved_Atoms>  (527) 
nan

>  <Num_Not_Resolved_Atoms>  (527) 
nan

$$$$
CHEMBL3661030
     RDKit          3D

  0  0  0  0  0  0  0  0  0  0999 V3000
M  V30 BEGIN CTAB
M  V30 COUNTS 41 44 0 0 0
M  V30 BEGIN ATOM
M  V30 1 C 1.579970 -4.664452 1.847061 0
M  V30 2 C 1.357045 -3.204340 1.732672 0
M  V30 3 C 2.372197 -2.278508 1.714567 0
M  V30 4 C 2.150649 -0.934333 1.629816 0
M  V30 5 N 3.210264 0.048771 1.545783 0
M  V30 6 C 3.158784 0.250071 0.107601 0
M  V30 7 N 3.715652 -0.305054 -0.988342 0
M  V30 8 N 3.272185 0.297272 -2.097440 0
M  V30 9 C 2.389789 1.292731 -1.818189 0
M  V30 10 N 1.703384 2.151302 -2.606820 0
M  V30 11 C 0.895715 3.045643 -2.029105 0
M  V30 12 C 0.760839 3.089976 -0.633311 0
M  V30 13 F -0.074203 4.015776 -0.116130 0
M  V30 14 C 1.492800 2.178672 0.148006 0
M  V30 15 C 2.336731 1.245759 -0.441961 0
M  V30 16 N 0.862795 -0.566111 1.565225 0
M  V30 17 C -0.178915 -1.405077 1.576953 0
M  V30 18 C -1.415862 -0.638116 1.492476 0
M  V30 19 C -2.250677 -0.515256 0.416401 0
M  V30 20 C -3.341145 0.310866 0.427173 0
M  V30 21 C -3.638095 1.058926 1.545015 0
M  V30 22 C -2.792026 0.951046 2.674043 0
M  V30 23 C -1.676029 0.108395 2.669261 0
M  V30 24 Cl -0.684394 0.030956 4.143995 0
M  V30 25 C 0.055488 -2.791050 1.665081 0
M  V30 26 C -1.184618 -3.582780 1.718703 0
M  V30 27 H 1.899659 -5.155252 0.917849 0
M  V30 28 H 2.393626 -4.833415 2.622785 0
M  V30 29 H 0.700316 -5.193080 2.320303 0
M  V30 30 H 3.407434 -2.606073 1.777164 0
M  V30 31 H 3.823139 0.486899 2.265016 0
M  V30 32 H 3.613805 -0.020803 -3.051355 0
M  V30 33 H 0.306850 3.770681 -2.620185 0
M  V30 34 H 1.366945 2.237548 1.234835 0
M  V30 35 H -1.991895 -1.131074 -0.472971 0
M  V30 36 H -3.985707 0.398066 -0.470919 0
M  V30 37 H -4.513685 1.686395 1.480344 0
M  V30 38 H -3.045770 1.541055 3.554515 0
M  V30 39 H -2.075225 -2.989805 1.433507 0
M  V30 40 H -1.114379 -4.390042 0.964714 0
M  V30 41 H -1.310601 -4.088235 2.710944 0
M  V30 END ATOM
M  V30 BEGIN BOND
M  V30 1 1 1 2
M  V30 2 2 2 3
M  V30 3 1 3 4
M  V30 4 1 4 5
M  V30 5 1 5 6
M  V30 6 2 6 7
M  V30 7 1 7 8
M  V30 8 1 8 9
M  V30 9 2 9 10
M  V30 10 1 10 11
M  V30 11 2 11 12
M  V30 12 1 12 13
M  V30 13 1 12 14
M  V30 14 2 14 15
M  V30 15 2 4 16
M  V30 16 1 16 17
M  V30 17 1 17 18
M  V30 18 2 18 19
M  V30 19 1 19 20
M  V30 20 2 20 21
M  V30 21 1 21 22
M  V30 22 2 22 23
M  V30 23 1 23 24
M  V30 24 2 17 25
M  V30 25 1 25 26
M  V30 26 1 25 2
M  V30 27 1 15 6
M  V30 28 1 23 18
M  V30 29 1 15 9
M  V30 30 1 1 27
M  V30 31 1 1 28
M  V30 32 1 1 29
M  V30 33 1 3 30
M  V30 34 1 5 31
M  V30 35 1 8 32
M  V30 36 1 11 33
M  V30 37 1 14 34
M  V30 38 1 19 35
M  V30 39 1 20 36
M  V30 40 1 21 37
M  V30 41 1 22 38
M  V30 42 1 26 39
M  V30 43 1 26 40
M  V30 44 1 26 41
M  V30 END BOND
M  V30 END CTAB
M  END
>  <Dataset>  (528) 
ChEMBL_Kinases

>  <Ligand_Instance>  (528) 
nan

>  <PDB_ID>  (528) 
nan

>  <Standardized_SMILES>  (528) 
Cc1cc(Nc2n[nH]c3ncc(F)cc23)nc(-c2ccccc2Cl)c1C

>  <Name>  (528) 
nan

>  <Pocket>  (528) 
nan

>  <ATP_Site>  (528) 
nan

>  <Peripheral>  (528) 
nan

>  <Num_H_Atoms_ProtBoundConf>  (528) 
nan

>  <Num_Resolved_Atoms>  (528) 
nan

>  <Num_Not_Resolved_Atoms>  (528) 
nan

$$$$
CHEMBL3661029
     RDKit          3D

  0  0  0  0  0  0  0  0  0  0999 V3000
M  V30 BEGIN CTAB
M  V30 COUNTS 38 41 0 0 0
M  V30 BEGIN ATOM
M  V30 1 F 1.777116 -0.059402 5.636790 0
M  V30 2 C 2.339235 -0.503195 4.506415 0
M  V30 3 C 3.117403 -1.652781 4.513744 0
M  V30 4 N 3.723421 -2.172735 3.419950 0
M  V30 5 C 3.578318 -1.549374 2.221150 0
M  V30 6 N 4.007119 -1.749524 0.949614 0
M  V30 7 N 3.539428 -0.796637 0.174785 0
M  V30 8 C 2.794680 0.047702 0.921466 0
M  V30 9 N 2.192425 1.155064 0.255982 0
M  V30 10 C 0.852570 1.129628 -0.248908 0
M  V30 11 C 0.318813 2.204081 -0.922112 0
M  V30 12 C -0.985585 2.063276 -1.354064 0
M  V30 13 C -1.664391 3.159305 -2.090114 0
M  V30 14 F -2.342782 2.673227 -3.211281 0
M  V30 15 F -2.547649 3.863848 -1.291086 0
M  V30 16 F -0.729729 4.059507 -2.567510 0
M  V30 17 C -1.611209 0.881139 -1.072318 0
M  V30 18 C -1.117567 -0.201940 -0.410471 0
M  V30 19 C -1.724087 -1.464415 -0.069838 0
M  V30 20 C -0.970455 -2.333713 0.686206 0
M  V30 21 C -1.411213 -3.568611 1.088689 0
M  V30 22 C -2.663836 -4.011052 0.746019 0
M  V30 23 C -3.443824 -3.168842 -0.008578 0
M  V30 24 C -2.965407 -1.943632 -0.389276 0
M  V30 25 Cl -4.042405 -0.992713 -1.341097 0
M  V30 26 N 0.149981 0.016371 -0.026400 0
M  V30 27 C 2.802490 -0.408315 2.228995 0
M  V30 28 C 2.165729 0.162702 3.306629 0
M  V30 29 H 3.303401 -2.235341 5.416379 0
M  V30 30 H 4.621115 -2.560769 0.680174 0
M  V30 31 H 2.763792 2.010988 0.141272 0
M  V30 32 H 0.885695 3.102883 -1.102148 0
M  V30 33 H -2.619142 0.824805 -1.426204 0
M  V30 34 H 0.040865 -2.110050 1.027286 0
M  V30 35 H -0.803962 -4.233673 1.681726 0
M  V30 36 H -3.010852 -4.981447 1.063057 0
M  V30 37 H -4.427092 -3.529959 -0.270285 0
M  V30 38 H 1.582310 1.052463 3.217546 0
M  V30 END ATOM
M  V30 BEGIN BOND
M  V30 1 1 1 2
M  V30 2 2 2 3
M  V30 3 1 3 4
M  V30 4 2 4 5
M  V30 5 1 5 6
M  V30 6 1 6 7
M  V30 7 2 7 8
M  V30 8 1 8 9
M  V30 9 1 9 10
M  V30 10 2 10 11
M  V30 11 1 11 12
M  V30 12 1 12 13
M  V30 13 1 13 14
M  V30 14 1 13 15
M  V30 15 1 13 16
M  V30 16 2 12 17
M  V30 17 1 17 18
M  V30 18 1 18 19
M  V30 19 2 19 20
M  V30 20 1 20 21
M  V30 21 2 21 22
M  V30 22 1 22 23
M  V30 23 2 23 24
M  V30 24 1 24 25
M  V30 25 2 18 26
M  V30 26 1 8 27
M  V30 27 2 27 28
M  V30 28 1 28 2
M  V30 29 1 27 5
M  V30 30 1 26 10
M  V30 31 1 24 19
M  V30 32 1 3 29
M  V30 33 1 6 30
M  V30 34 1 9 31
M  V30 35 1 11 32
M  V30 36 1 17 33
M  V30 37 1 20 34
M  V30 38 1 21 35
M  V30 39 1 22 36
M  V30 40 1 23 37
M  V30 41 1 28 38
M  V30 END BOND
M  V30 END CTAB
M  END
>  <Dataset>  (529) 
ChEMBL_Kinases

>  <Ligand_Instance>  (529) 
nan

>  <PDB_ID>  (529) 
nan

>  <Standardized_SMILES>  (529) 
Fc1cnc2[nH]nc(Nc3cc(C(F)(F)F)cc(-c4ccccc4Cl)n3)c2c1

>  <Name>  (529) 
nan

>  <Pocket>  (529) 
nan

>  <ATP_Site>  (529) 
nan

>  <Peripheral>  (529) 
nan

>  <Num_H_Atoms_ProtBoundConf>  (529) 
nan

>  <Num_Resolved_Atoms>  (529) 
nan

>  <Num_Not_Resolved_Atoms>  (529) 
nan

$$$$
CHEMBL3589675
     RDKit          3D

  0  0  0  0  0  0  0  0  0  0999 V3000
M  V30 BEGIN CTAB
M  V30 COUNTS 44 48 0 0 0
M  V30 BEGIN ATOM
M  V30 1 C 2.720983 -5.691048 6.141924 0
M  V30 2 O 1.923966 -4.608507 5.756914 0
M  V30 3 C 2.096796 -3.844590 4.614020 0
M  V30 4 C 1.115691 -2.847970 4.552743 0
M  V30 5 C 1.101892 -1.957460 3.475297 0
M  V30 6 C 2.032644 -2.027999 2.458703 0
M  V30 7 C 2.020398 -1.100257 1.331549 0
M  V30 8 C 3.169018 -0.701850 0.667924 0
M  V30 9 C 3.114113 0.176871 -0.394400 0
M  V30 10 C 1.904014 0.680467 -0.820517 0
M  V30 11 N 1.718361 1.548581 -1.850531 0
M  V30 12 C 0.486361 1.978156 -2.183813 0
M  V30 13 C 0.457221 2.896345 -3.297577 0
M  V30 14 O 1.564691 3.213028 -3.859105 0
M  V30 15 O 0.333716 3.769512 -4.341500 0
M  V30 16 C -0.683198 1.616073 -1.561365 0
M  V30 17 C -2.020887 1.900285 -1.702174 0
M  V30 18 C -2.672409 2.713403 -2.594665 0
M  V30 19 C -4.044857 2.809465 -2.501322 0
M  V30 20 C -4.705543 2.080507 -1.510373 0
M  V30 21 C -4.042876 1.263581 -0.615010 0
M  V30 22 Cl -4.893840 0.356647 0.622289 0
M  V30 23 C -2.659370 1.173394 -0.717144 0
M  V30 24 N -1.765921 0.473236 -0.000795 0
M  V30 25 C -0.551333 0.738138 -0.510980 0
M  V30 26 C 0.727512 0.324178 -0.203964 0
M  V30 27 C 0.821494 -0.556074 0.854231 0
M  V30 28 C 2.984926 -3.023417 2.552815 0
M  V30 29 C 3.027057 -3.916986 3.600427 0
M  V30 30 H 3.263812 -5.458349 7.103382 0
M  V30 31 H 2.143139 -6.635122 6.247718 0
M  V30 32 H 3.523282 -5.885348 5.407473 0
M  V30 33 H 0.313569 -2.661242 5.274194 0
M  V30 34 H 0.351134 -1.165882 3.393281 0
M  V30 35 H 4.110961 -1.090883 0.996069 0
M  V30 36 H 3.989349 0.507866 -0.933359 0
M  V30 37 H -0.429936 4.426517 -4.480083 0
M  V30 38 H -2.161924 3.262551 -3.344337 0
M  V30 39 H -4.663860 3.412893 -3.142790 0
M  V30 40 H -5.778556 2.102851 -1.373094 0
M  V30 41 H -1.956560 -0.175629 0.819997 0
M  V30 42 H -0.059161 -0.892553 1.400707 0
M  V30 43 H 3.746112 -3.137213 1.790351 0
M  V30 44 H 3.725903 -4.716987 3.754476 0
M  V30 END ATOM
M  V30 BEGIN BOND
M  V30 1 1 1 2
M  V30 2 1 2 3
M  V30 3 2 3 4
M  V30 4 1 4 5
M  V30 5 2 5 6
M  V30 6 1 6 7
M  V30 7 2 7 8
M  V30 8 1 8 9
M  V30 9 2 9 10
M  V30 10 1 10 11
M  V30 11 2 11 12
M  V30 12 1 12 13
M  V30 13 2 13 14
M  V30 14 1 13 15
M  V30 15 1 12 16
M  V30 16 1 16 17
M  V30 17 2 17 18
M  V30 18 1 18 19
M  V30 19 2 19 20
M  V30 20 1 20 21
M  V30 21 1 21 22
M  V30 22 2 21 23
M  V30 23 1 23 24
M  V30 24 1 24 25
M  V30 25 1 25 26
M  V30 26 2 26 27
M  V30 27 1 6 28
M  V30 28 2 28 29
M  V30 29 1 29 3
M  V30 30 1 27 7
M  V30 31 1 26 10
M  V30 32 2 25 16
M  V30 33 1 23 17
M  V30 34 1 1 30
M  V30 35 1 1 31
M  V30 36 1 1 32
M  V30 37 1 4 33
M  V30 38 1 5 34
M  V30 39 1 8 35
M  V30 40 1 9 36
M  V30 41 1 15 37
M  V30 42 1 18 38
M  V30 43 1 19 39
M  V30 44 1 20 40
M  V30 45 1 24 41
M  V30 46 1 27 42
M  V30 47 1 28 43
M  V30 48 1 29 44
M  V30 END BOND
M  V30 END CTAB
M  END
>  <Dataset>  (530) 
ChEMBL_Kinases

>  <Ligand_Instance>  (530) 
nan

>  <PDB_ID>  (530) 
nan

>  <Standardized_SMILES>  (530) 
COc1ccc(-c2ccc3nc(C(=O)O)c4c5cccc(Cl)c5[nH]c4c3c2)cc1

>  <Name>  (530) 
nan

>  <Pocket>  (530) 
nan

>  <ATP_Site>  (530) 
nan

>  <Peripheral>  (530) 
nan

>  <Num_H_Atoms_ProtBoundConf>  (530) 
nan

>  <Num_Resolved_Atoms>  (530) 
nan

>  <Num_Not_Resolved_Atoms>  (530) 
nan

$$$$
CHEMBL3883384
     RDKit          3D

  0  0  0  0  0  0  0  0  0  0999 V3000
M  V30 BEGIN CTAB
M  V30 COUNTS 59 62 0 0 0
M  V30 BEGIN ATOM
M  V30 1 C 5.836654 -0.363310 3.371481 0
M  V30 2 C 4.622981 0.001000 3.802426 0
M  V30 3 C 4.062460 -0.239906 2.451677 0
M  V30 4 O 5.049973 -0.614913 1.761786 0
M  V30 5 N 2.712923 -0.094440 1.992392 0
M  V30 6 C 2.597099 -0.432972 0.619624 0
M  V30 7 C 2.455394 -1.784277 0.431379 0
M  V30 8 C 2.326366 -2.275824 -0.881871 0
M  V30 9 C 2.355738 -1.317616 -1.883258 0
M  V30 10 C 2.500515 0.026238 -1.657329 0
M  V30 11 C 2.629185 0.531668 -0.358789 0
M  V30 12 N 2.764006 1.917858 -0.133748 0
M  V30 13 C 1.831864 2.659241 0.661399 0
M  V30 14 N 0.799953 2.102004 1.320384 0
M  V30 15 C -0.095784 2.746689 2.075854 0
M  V30 16 N -1.043730 1.839026 2.618350 0
M  V30 17 C -1.664717 0.838915 1.827261 0
M  V30 18 C -1.625556 0.847597 0.451654 0
M  V30 19 C -2.210949 -0.118798 -0.324897 0
M  V30 20 C -2.893168 -1.187754 0.259802 0
M  V30 21 N -3.518414 -2.213169 -0.508569 0
M  V30 22 C -4.339464 -3.281720 0.029336 0
M  V30 23 C -3.767244 -4.662705 -0.276834 0
M  V30 24 N -2.779586 -4.612979 -1.337223 0
M  V30 25 C -1.452910 -4.428084 -0.838655 0
M  V30 26 C -3.187975 -3.735685 -2.383677 0
M  V30 27 C -3.414191 -2.319786 -1.944181 0
M  V30 28 C -2.951200 -1.223747 1.646844 0
M  V30 29 C -2.336576 -0.211325 2.395638 0
M  V30 30 N 0.019420 4.104032 2.210658 0
M  V30 31 C 1.025305 4.753379 1.582997 0
M  V30 32 C 1.928070 4.023490 0.809964 0
M  V30 33 Cl 3.196910 4.924579 0.025066 0
M  V30 34 H 6.722155 -0.384693 3.985492 0
M  V30 35 H 6.754597 -0.676356 2.904535 0
M  V30 36 H 4.591551 0.284296 4.862057 0
M  V30 37 H 2.191416 0.236715 2.858572 0
M  V30 38 H 2.437097 -2.526192 1.212346 0
M  V30 39 H 2.209508 -3.309844 -1.164342 0
M  V30 40 H 2.260723 -1.608797 -2.947747 0
M  V30 41 H 2.519817 0.754209 -2.448030 0
M  V30 42 H 3.556537 2.439224 -0.539456 0
M  V30 43 H -1.277307 1.936636 3.650629 0
M  V30 44 H -1.097304 1.679601 -0.035575 0
M  V30 45 H -2.122075 -0.012890 -1.390283 0
M  V30 46 H -5.312060 -3.264126 -0.551867 0
M  V30 47 H -4.557301 -3.159954 1.094917 0
M  V30 48 H -3.287730 -5.099011 0.621676 0
M  V30 49 H -4.557484 -5.376444 -0.599129 0
M  V30 50 H -1.397962 -4.916298 0.179427 0
M  V30 51 H -0.689124 -4.958059 -1.456256 0
M  V30 52 H -1.210702 -3.355106 -0.716823 0
M  V30 53 H -2.489274 -3.806177 -3.256841 0
M  V30 54 H -4.163403 -4.137712 -2.780545 0
M  V30 55 H -4.398786 -1.932614 -2.357074 0
M  V30 56 H -2.667960 -1.614025 -2.395208 0
M  V30 57 H -3.432507 -1.983580 2.224873 0
M  V30 58 H -2.381669 -0.240708 3.492761 0
M  V30 59 H 1.034764 5.820264 1.744494 0
M  V30 END ATOM
M  V30 BEGIN BOND
M  V30 1 2 1 2
M  V30 2 1 2 3
M  V30 3 2 3 4
M  V30 4 1 3 5
M  V30 5 1 5 6
M  V30 6 2 6 7
M  V30 7 1 7 8
M  V30 8 2 8 9
M  V30 9 1 9 10
M  V30 10 2 10 11
M  V30 11 1 11 12
M  V30 12 1 12 13
M  V30 13 2 13 14
M  V30 14 1 14 15
M  V30 15 1 15 16
M  V30 16 1 16 17
M  V30 17 2 17 18
M  V30 18 1 18 19
M  V30 19 2 19 20
M  V30 20 1 20 21
M  V30 21 1 21 22
M  V30 22 1 22 23
M  V30 23 1 23 24
M  V30 24 1 24 25
M  V30 25 1 24 26
M  V30 26 1 26 27
M  V30 27 1 20 28
M  V30 28 2 28 29
M  V30 29 2 15 30
M  V30 30 1 30 31
M  V30 31 2 31 32
M  V30 32 1 32 33
M  V30 33 1 11 6
M  V30 34 1 32 13
M  V30 35 1 29 17
M  V30 36 1 27 21
M  V30 37 1 1 34
M  V30 38 1 1 35
M  V30 39 1 2 36
M  V30 40 1 5 37
M  V30 41 1 7 38
M  V30 42 1 8 39
M  V30 43 1 9 40
M  V30 44 1 10 41
M  V30 45 1 12 42
M  V30 46 1 16 43
M  V30 47 1 18 44
M  V30 48 1 19 45
M  V30 49 1 22 46
M  V30 50 1 22 47
M  V30 51 1 23 48
M  V30 52 1 23 49
M  V30 53 1 25 50
M  V30 54 1 25 51
M  V30 55 1 25 52
M  V30 56 1 26 53
M  V30 57 1 26 54
M  V30 58 1 27 55
M  V30 59 1 27 56
M  V30 60 1 28 57
M  V30 61 1 29 58
M  V30 62 1 31 59
M  V30 END BOND
M  V30 END CTAB
M  END
>  <Dataset>  (531) 
ChEMBL_Kinases

>  <Ligand_Instance>  (531) 
nan

>  <PDB_ID>  (531) 
nan

>  <Standardized_SMILES>  (531) 
C=CC(=O)Nc1ccccc1Nc1nc(Nc2ccc(N3CCN(C)CC3)cc2)ncc1Cl

>  <Name>  (531) 
nan

>  <Pocket>  (531) 
nan

>  <ATP_Site>  (531) 
nan

>  <Peripheral>  (531) 
nan

>  <Num_H_Atoms_ProtBoundConf>  (531) 
nan

>  <Num_Resolved_Atoms>  (531) 
nan

>  <Num_Not_Resolved_Atoms>  (531) 
nan

$$$$
CHEMBL3883433
     RDKit          3D

  0  0  0  0  0  0  0  0  0  0999 V3000
M  V30 BEGIN CTAB
M  V30 COUNTS 49 53 0 0 0
M  V30 BEGIN ATOM
M  V30 1 C 0.534135 -2.922836 3.500779 0
M  V30 2 C 1.281304 -2.516821 2.235629 0
M  V30 3 C 2.529562 -3.305758 2.035547 0
M  V30 4 C 1.493950 -1.050193 2.311698 0
M  V30 5 O 2.225468 -0.532980 3.188302 0
M  V30 6 N 0.753829 -0.387113 1.267883 0
M  V30 7 C 0.758485 1.046881 1.073276 0 CFG=1
M  V30 8 C 0.294903 1.761597 2.349355 0
M  V30 9 C 0.773361 3.176049 2.054585 0
M  V30 10 C 2.101778 2.901006 1.426371 0
M  V30 11 C 3.276744 3.643884 1.324730 0
M  V30 12 C 4.381042 3.125497 0.678412 0
M  V30 13 C 4.306642 1.840191 0.124924 0
M  V30 14 C 3.148867 1.057352 0.201600 0
M  V30 15 C 2.074629 1.642696 0.866880 0
M  V30 16 C 0.065576 -1.385181 0.534042 0
M  V30 17 N -0.749963 -1.269384 -0.521229 0
M  V30 18 C -1.339038 -2.314161 -1.110766 0
M  V30 19 N -2.206239 -2.525404 -2.213135 0
M  V30 20 C -3.575071 -2.160099 -2.029022 0
M  V30 21 C -3.929193 -1.452591 -0.904634 0
M  V30 22 C -5.264359 -1.109522 -0.734185 0
M  V30 23 C -6.261922 -1.443564 -1.644737 0
M  V30 24 N -5.865813 -2.128333 -2.713889 0
M  V30 25 C -4.597689 -2.481869 -2.922453 0
M  V30 26 N -1.076074 -3.543139 -0.587133 0
M  V30 27 C -0.258345 -3.719256 0.480107 0
M  V30 28 C 0.350139 -2.615563 1.083594 0
M  V30 29 H 1.177843 -2.965945 4.390276 0
M  V30 30 H -0.024762 -3.893372 3.348016 0
M  V30 31 H -0.282105 -2.155773 3.646585 0
M  V30 32 H 2.331200 -4.115562 1.306589 0
M  V30 33 H 2.778120 -3.805320 3.005505 0
M  V30 34 H 3.369038 -2.671882 1.696036 0
M  V30 35 H 0.122128 1.357080 0.205588 0
M  V30 36 H 0.890967 1.383000 3.184797 0
M  V30 37 H -0.801234 1.703746 2.492626 0
M  V30 38 H 0.065465 3.610549 1.319344 0
M  V30 39 H 0.900975 3.785404 2.969240 0
M  V30 40 H 3.281506 4.636844 1.773125 0
M  V30 41 H 5.294935 3.715633 0.599628 0
M  V30 42 H 5.194976 1.447834 -0.383841 0
M  V30 43 H 3.120566 0.071396 -0.231500 0
M  V30 44 H -1.818519 -2.929417 -3.092305 0
M  V30 45 H -3.188670 -1.150762 -0.139938 0
M  V30 46 H -5.497223 -0.553992 0.159363 0
M  V30 47 H -7.287004 -1.165181 -1.494909 0
M  V30 48 H -4.240282 -3.048218 -3.794630 0
M  V30 49 H -0.021723 -4.694901 0.929474 0
M  V30 END ATOM
M  V30 BEGIN BOND
M  V30 1 1 1 2
M  V30 2 1 2 3
M  V30 3 1 2 4
M  V30 4 2 4 5
M  V30 5 1 4 6
M  V30 6 1 6 7
M  V30 7 1 7 8
M  V30 8 1 8 9
M  V30 9 1 9 10
M  V30 10 2 10 11
M  V30 11 1 11 12
M  V30 12 2 12 13
M  V30 13 1 13 14
M  V30 14 2 14 15
M  V30 15 1 6 16
M  V30 16 2 16 17
M  V30 17 1 17 18
M  V30 18 1 18 19
M  V30 19 1 19 20
M  V30 20 2 20 21
M  V30 21 1 21 22
M  V30 22 2 22 23
M  V30 23 1 23 24
M  V30 24 2 24 25
M  V30 25 2 18 26
M  V30 26 1 26 27
M  V30 27 2 27 28
M  V30 28 1 28 2
M  V30 29 1 15 7
M  V30 30 1 28 16
M  V30 31 1 15 10
M  V30 32 1 25 20
M  V30 33 1 1 29
M  V30 34 1 1 30
M  V30 35 1 1 31
M  V30 36 1 3 32
M  V30 37 1 3 33
M  V30 38 1 3 34
M  V30 39 1 7 35 CFG=3
M  V30 40 1 8 36
M  V30 41 1 8 37
M  V30 42 1 9 38
M  V30 43 1 9 39
M  V30 44 1 11 40
M  V30 45 1 12 41
M  V30 46 1 13 42
M  V30 47 1 14 43
M  V30 48 1 19 44
M  V30 49 1 21 45
M  V30 50 1 22 46
M  V30 51 1 23 47
M  V30 52 1 25 48
M  V30 53 1 27 49
M  V30 END BOND
M  V30 END CTAB
M  END
>  <Dataset>  (532) 
ChEMBL_Kinases

>  <Ligand_Instance>  (532) 
nan

>  <PDB_ID>  (532) 
nan

>  <Standardized_SMILES>  (532) 
CC1(C)C(=O)N([C@H]2CCc3ccccc32)c2nc(Nc3cccnc3)ncc21

>  <Name>  (532) 
nan

>  <Pocket>  (532) 
nan

>  <ATP_Site>  (532) 
nan

>  <Peripheral>  (532) 
nan

>  <Num_H_Atoms_ProtBoundConf>  (532) 
nan

>  <Num_Resolved_Atoms>  (532) 
nan

>  <Num_Not_Resolved_Atoms>  (532) 
nan

$$$$
CHEMBL3590107
     RDKit          3D

  0  0  0  0  0  0  0  0  0  0999 V3000
M  V30 BEGIN CTAB
M  V30 COUNTS 77 83 0 0 0
M  V30 BEGIN ATOM
M  V30 1 O -2.645996 -0.579796 1.001634 0
M  V30 2 C -3.252282 -1.352105 0.194484 0
M  V30 3 N -4.524520 -0.853693 -0.148875 0
M  V30 4 C -4.572937 0.380536 0.603217 0
M  V30 5 C -4.937947 0.407270 1.912318 0
M  V30 6 C -4.928199 1.678857 2.441988 0
M  V30 7 C -4.588676 2.802270 1.731512 0
M  V30 8 N -4.511753 4.107183 2.030633 0
M  V30 9 N -4.132745 4.805576 0.982999 0
M  V30 10 C -3.940675 3.971683 -0.072500 0
M  V30 11 C -3.533334 4.403236 -1.391730 0
M  V30 12 C -2.608380 3.928190 -2.284019 0
M  V30 13 C -2.316322 4.428052 -3.515360 0
M  V30 14 N -3.000451 5.520319 -3.940175 0
M  V30 15 C -3.925701 6.032882 -3.101853 0
M  V30 16 C -4.224917 5.530481 -1.852741 0
M  V30 17 C -4.228473 2.717002 0.407732 0
M  V30 18 C -4.216683 1.481356 -0.179067 0
M  V30 19 C -2.510533 -2.587463 -0.204821 0 CFG=2
M  V30 20 C -3.311266 -3.821228 -0.040519 0
M  V30 21 C -2.187174 -4.847354 0.237734 0
M  V30 22 N -1.343083 -4.097707 1.151749 0
M  V30 23 C -0.061406 -4.677598 1.397434 0
M  V30 24 C 0.673543 -3.867314 2.412307 0
M  V30 25 O 0.646295 -2.864603 3.168445 0
M  V30 26 N 1.951463 -4.480945 2.627411 0
M  V30 27 C 2.772546 -3.831069 3.639278 0
M  V30 28 C 4.143814 -3.671925 3.022924 0
M  V30 29 N 4.054761 -3.764362 1.556815 0
M  V30 30 C 4.190350 -2.669982 0.632914 0
M  V30 31 C 4.446609 -2.734022 -0.728477 0
M  V30 32 C 4.512278 -1.544511 -1.416476 0
M  V30 33 C 4.341562 -0.307871 -0.843423 0
M  V30 34 C 4.407962 0.939460 -1.593752 0
M  V30 35 N 4.181401 2.083390 -0.943810 0
M  V30 36 C 4.206662 3.311197 -1.474325 0
M  V30 37 C 4.486977 3.451702 -2.809877 0
M  V30 38 C 4.727808 2.276378 -3.517183 0
M  V30 39 N 4.684681 1.066648 -2.908229 0
M  V30 40 C 4.086302 -0.235427 0.508966 0
M  V30 41 C 4.011846 -1.424653 1.244262 0
M  V30 42 C 3.778366 -5.151378 1.146065 0
M  V30 43 C 2.603012 -5.621644 2.014738 0
M  V30 44 C -1.273073 -2.763729 0.615459 0
M  V30 45 H -5.026794 -1.507468 -0.822255 0
M  V30 46 H -5.202037 -0.475030 2.455876 0
M  V30 47 H -5.201050 1.834857 3.480303 0
M  V30 48 H -4.730314 4.498619 2.986991 0
M  V30 49 H -2.089203 3.047873 -1.886212 0
M  V30 50 H -1.562560 3.941454 -4.101996 0
M  V30 51 H -4.448757 6.909985 -3.486051 0
M  V30 52 H -4.997577 6.046208 -1.284145 0
M  V30 53 H -3.933918 1.420737 -1.217870 0
M  V30 54 H -2.190032 -2.535050 -1.269836 0
M  V30 55 H -3.850115 -3.764222 0.925502 0
M  V30 56 H -3.903655 -4.139059 -0.896397 0
M  V30 57 H -1.667951 -4.971879 -0.716646 0
M  V30 58 H -2.565826 -5.753811 0.701786 0
M  V30 59 H -0.125790 -5.737166 1.710494 0
M  V30 60 H 0.486620 -4.662025 0.430742 0
M  V30 61 H 2.887307 -4.462817 4.539763 0
M  V30 62 H 2.409327 -2.840508 3.928193 0
M  V30 63 H 4.649788 -2.731724 3.303768 0
M  V30 64 H 4.813675 -4.505366 3.334806 0
M  V30 65 H 4.566490 -3.720988 -1.104097 0
M  V30 66 H 4.711182 -1.625969 -2.464665 0
M  V30 67 H 3.994367 4.128984 -0.788659 0
M  V30 68 H 4.506698 4.442492 -3.238645 0
M  V30 69 H 4.953671 2.330754 -4.559544 0
M  V30 70 H 3.942797 0.736328 0.992975 0
M  V30 71 H 3.803537 -1.245343 2.299063 0
M  V30 72 H 4.665592 -5.771121 1.391822 0
M  V30 73 H 3.559043 -5.194384 0.075535 0
M  V30 74 H 2.939271 -6.309116 2.811215 0
M  V30 75 H 1.889893 -6.175772 1.390803 0
M  V30 76 H -0.340262 -2.659108 0.006100 0
M  V30 77 H -1.213387 -2.036642 1.461149 0
M  V30 END ATOM
M  V30 BEGIN BOND
M  V30 1 2 1 2
M  V30 2 1 2 3
M  V30 3 1 3 4
M  V30 4 2 4 5
M  V30 5 1 5 6
M  V30 6 2 6 7
M  V30 7 1 7 8
M  V30 8 1 8 9
M  V30 9 2 9 10
M  V30 10 1 10 11
M  V30 11 2 11 12
M  V30 12 1 12 13
M  V30 13 2 13 14
M  V30 14 1 14 15
M  V30 15 2 15 16
M  V30 16 1 10 17
M  V30 17 2 17 18
M  V30 18 1 2 19
M  V30 19 1 19 20
M  V30 20 1 20 21
M  V30 21 1 21 22
M  V30 22 1 22 23
M  V30 23 1 23 24
M  V30 24 2 24 25
M  V30 25 1 24 26
M  V30 26 1 26 27
M  V30 27 1 27 28
M  V30 28 1 28 29
M  V30 29 1 29 30
M  V30 30 2 30 31
M  V30 31 1 31 32
M  V30 32 2 32 33
M  V30 33 1 33 34
M  V30 34 2 34 35
M  V30 35 1 35 36
M  V30 36 2 36 37
M  V30 37 1 37 38
M  V30 38 2 38 39
M  V30 39 1 33 40
M  V30 40 2 40 41
M  V30 41 1 29 42
M  V30 42 1 42 43
M  V30 43 1 22 44
M  V30 44 1 18 4
M  V30 45 1 44 19
M  V30 46 1 17 7
M  V30 47 1 43 26
M  V30 48 1 16 11
M  V30 49 1 41 30
M  V30 50 1 39 34
M  V30 51 1 3 45
M  V30 52 1 5 46
M  V30 53 1 6 47
M  V30 54 1 8 48
M  V30 55 1 12 49
M  V30 56 1 13 50
M  V30 57 1 15 51
M  V30 58 1 16 52
M  V30 59 1 18 53
M  V30 60 1 19 54 CFG=3
M  V30 61 1 20 55
M  V30 62 1 20 56
M  V30 63 1 21 57
M  V30 64 1 21 58
M  V30 65 1 23 59
M  V30 66 1 23 60
M  V30 67 1 27 61
M  V30 68 1 27 62
M  V30 69 1 28 63
M  V30 70 1 28 64
M  V30 71 1 31 65
M  V30 72 1 32 66
M  V30 73 1 36 67
M  V30 74 1 37 68
M  V30 75 1 38 69
M  V30 76 1 40 70
M  V30 77 1 41 71
M  V30 78 1 42 72
M  V30 79 1 42 73
M  V30 80 1 43 74
M  V30 81 1 43 75
M  V30 82 1 44 76
M  V30 83 1 44 77
M  V30 END BOND
M  V30 END CTAB
M  END
>  <Dataset>  (533) 
ChEMBL_Kinases

>  <Ligand_Instance>  (533) 
nan

>  <PDB_ID>  (533) 
nan

>  <Standardized_SMILES>  (533) 
O=C(Nc1ccc2[nH]nc(-c3ccncc3)c2c1)[C@@H]1CCN(CC(=O)N2CCN(c3ccc(-c4ncccn4)cc3)CC2)C1

>  <Name>  (533) 
nan

>  <Pocket>  (533) 
nan

>  <ATP_Site>  (533) 
nan

>  <Peripheral>  (533) 
nan

>  <Num_H_Atoms_ProtBoundConf>  (533) 
nan

>  <Num_Resolved_Atoms>  (533) 
nan

>  <Num_Not_Resolved_Atoms>  (533) 
nan

$$$$
CHEMBL3883541
     RDKit          3D

  0  0  0  0  0  0  0  0  0  0999 V3000
M  V30 BEGIN CTAB
M  V30 COUNTS 29 32 0 0 0
M  V30 BEGIN ATOM
M  V30 1 N -0.133788 -3.629782 3.800297 0
M  V30 2 C 0.170869 -2.985625 2.889263 0
M  V30 3 C 0.565866 -2.204080 1.753633 0
M  V30 4 C 1.584853 -2.715343 0.955761 0
M  V30 5 C 1.979599 -1.977181 -0.142971 0
M  V30 6 C 3.000406 -2.498054 -0.934945 0
M  V30 7 C 3.356550 -1.723395 -2.017910 0
M  V30 8 C 2.820196 -0.513244 -2.391653 0
M  V30 9 C 1.798671 -0.026312 -1.570188 0
M  V30 10 C 1.402429 -0.765991 -0.468358 0
M  V30 11 C 0.381811 -0.245740 0.323898 0
M  V30 12 N -0.344065 0.883846 0.246704 0
M  V30 13 C -1.202600 0.876739 1.288252 0
M  V30 14 C -2.152478 1.827385 1.632169 0
M  V30 15 C -2.931330 1.612942 2.752476 0
M  V30 16 C -2.755759 0.461821 3.511602 0
M  V30 17 C -1.794236 -0.469820 3.137608 0
M  V30 18 C -1.007246 -0.274364 2.023503 0
M  V30 19 C -0.001568 -0.995008 1.418287 0
M  V30 20 H 2.055123 -3.668021 1.192054 0
M  V30 21 H 3.509013 -3.433061 -0.759806 0
M  V30 22 H 4.156461 -2.109133 -2.657406 0
M  V30 23 H 3.184122 0.006461 -3.268954 0
M  V30 24 H 1.346433 0.913319 -1.817225 0
M  V30 25 H -0.221546 1.605640 -0.509858 0
M  V30 26 H -2.280833 2.707220 1.044898 0
M  V30 27 H -3.691649 2.353263 3.045155 0
M  V30 28 H -3.368440 0.275577 4.407686 0
M  V30 29 H -1.703966 -1.342458 3.764721 0
M  V30 END ATOM
M  V30 BEGIN BOND
M  V30 1 3 1 2
M  V30 2 1 2 3
M  V30 3 2 3 4
M  V30 4 1 4 5
M  V30 5 2 5 6
M  V30 6 1 6 7
M  V30 7 2 7 8
M  V30 8 1 8 9
M  V30 9 2 9 10
M  V30 10 1 10 11
M  V30 11 1 11 12
M  V30 12 1 12 13
M  V30 13 2 13 14
M  V30 14 1 14 15
M  V30 15 2 15 16
M  V30 16 1 16 17
M  V30 17 2 17 18
M  V30 18 1 18 19
M  V30 19 1 19 3
M  V30 20 1 10 5
M  V30 21 2 19 11
M  V30 22 1 18 13
M  V30 23 1 4 20
M  V30 24 1 6 21
M  V30 25 1 7 22
M  V30 26 1 8 23
M  V30 27 1 9 24
M  V30 28 1 12 25
M  V30 29 1 14 26
M  V30 30 1 15 27
M  V30 31 1 16 28
M  V30 32 1 17 29
M  V30 END BOND
M  V30 END CTAB
M  END
>  <Dataset>  (534) 
ChEMBL_Kinases

>  <Ligand_Instance>  (534) 
nan

>  <PDB_ID>  (534) 
nan

>  <Standardized_SMILES>  (534) 
N#Cc1cc2ccccc2c2[nH]c3ccccc3c12

>  <Name>  (534) 
nan

>  <Pocket>  (534) 
nan

>  <ATP_Site>  (534) 
nan

>  <Peripheral>  (534) 
nan

>  <Num_H_Atoms_ProtBoundConf>  (534) 
nan

>  <Num_Resolved_Atoms>  (534) 
nan

>  <Num_Not_Resolved_Atoms>  (534) 
nan

$$$$
CHEMBL3590108
     RDKit          3D

  0  0  0  0  0  0  0  0  0  0999 V3000
M  V30 BEGIN CTAB
M  V30 COUNTS 48 49 0 0 0
M  V30 BEGIN ATOM
M  V30 1 C 3.861160 -4.916085 -0.539867 0
M  V30 2 O 2.690636 -4.929873 -1.311464 0
M  V30 3 C 1.757675 -3.936027 -1.197216 0
M  V30 4 C 0.579217 -3.859498 -1.908107 0
M  V30 5 C -0.348189 -2.829909 -1.762262 0
M  V30 6 O -1.537258 -2.707233 -2.451716 0
M  V30 7 C -0.038112 -1.848524 -0.845410 0
M  V30 8 C 1.175136 -1.904172 -0.102767 0
M  V30 9 C 2.033299 -2.940690 -0.296007 0
M  V30 10 C 1.120613 -0.665470 0.666777 0
M  V30 11 C 1.502070 0.424663 -0.033008 0
M  V30 12 C 1.621191 1.868878 0.229437 0
M  V30 13 C 0.821034 2.374100 1.344012 0 CFG=2
M  V30 14 O 1.017491 3.775446 1.455938 0
M  V30 15 C 1.023512 1.839516 2.728799 0 CFG=1
M  V30 16 O 2.293302 2.260761 3.113946 0
M  V30 17 C -0.003985 2.494474 3.604450 0
M  V30 18 O -0.000947 3.441956 4.427866 0
M  V30 19 C -1.340914 1.907881 3.488275 0
M  V30 20 C -1.677836 0.860098 2.753039 0
M  V30 21 C -2.763959 -0.025715 2.334084 0
M  V30 22 C -3.041936 -0.151415 0.869230 0 CFG=2
M  V30 23 C -4.271316 -1.119980 0.723291 0
M  V30 24 O -2.059689 -0.511618 0.048995 0
M  V30 25 C -1.129641 -0.852673 -0.727658 0
M  V30 26 O -1.191188 -0.071798 -1.685158 0
M  V30 27 H 4.363386 -5.886137 -0.475285 0
M  V30 28 H 4.597620 -4.165095 -0.930587 0
M  V30 29 H 3.617650 -4.608321 0.519053 0
M  V30 30 H 0.358118 -4.640578 -2.620429 0
M  V30 31 H -2.370044 -2.375109 -2.028445 0
M  V30 32 H 2.807007 -2.684656 0.408793 0
M  V30 33 H 0.785395 -1.238652 1.514316 0
M  V30 34 H 1.829340 0.249472 -1.076083 0
M  V30 35 H 1.267560 2.409811 -0.700245 0
M  V30 36 H 2.678705 2.191985 0.364175 0
M  V30 37 H -0.302503 2.346125 1.077638 0
M  V30 38 H 1.740439 3.970497 2.108767 0
M  V30 39 H 1.005600 0.744724 2.828680 0
M  V30 40 H 2.942802 1.493675 3.130445 0
M  V30 41 H -2.239233 2.281623 4.012523 0
M  V30 42 H -0.918502 0.359843 2.189229 0
M  V30 43 H -3.704738 0.449503 2.754118 0
M  V30 44 H -2.738036 -1.021042 2.835527 0
M  V30 45 H -3.509718 0.815382 0.514327 0
M  V30 46 H -4.635769 -0.944625 -0.298583 0
M  V30 47 H -4.981545 -0.755636 1.487054 0
M  V30 48 H -3.940870 -2.137090 0.952237 0
M  V30 END ATOM
M  V30 BEGIN BOND
M  V30 1 1 1 2
M  V30 2 1 2 3
M  V30 3 2 3 4
M  V30 4 1 4 5
M  V30 5 1 5 6
M  V30 6 2 5 7
M  V30 7 1 7 8
M  V30 8 2 8 9
M  V30 9 1 8 10
M  V30 10 2 10 11
M  V30 11 1 11 12
M  V30 12 1 12 13
M  V30 13 1 13 14
M  V30 14 1 13 15
M  V30 15 1 15 16
M  V30 16 1 15 17
M  V30 17 2 17 18
M  V30 18 1 17 19
M  V30 19 2 19 20
M  V30 20 1 20 21
M  V30 21 1 21 22
M  V30 22 1 22 23
M  V30 23 1 22 24
M  V30 24 1 24 25
M  V30 25 2 25 26
M  V30 26 1 9 3
M  V30 27 1 25 7
M  V30 28 1 1 27
M  V30 29 1 1 28
M  V30 30 1 1 29
M  V30 31 1 4 30
M  V30 32 1 6 31
M  V30 33 1 9 32
M  V30 34 1 10 33
M  V30 35 1 11 34
M  V30 36 1 12 35
M  V30 37 1 12 36
M  V30 38 1 13 37 CFG=3
M  V30 39 1 14 38
M  V30 40 1 15 39 CFG=3
M  V30 41 1 16 40
M  V30 42 1 19 41
M  V30 43 1 20 42
M  V30 44 1 21 43
M  V30 45 1 21 44
M  V30 46 1 22 45 CFG=3
M  V30 47 1 23 46
M  V30 48 1 23 47
M  V30 49 1 23 48
M  V30 END BOND
M  V30 END CTAB
M  END
>  <Dataset>  (535) 
ChEMBL_Kinases

>  <Ligand_Instance>  (535) 
nan

>  <PDB_ID>  (535) 
nan

>  <Standardized_SMILES>  (535) 
COc1cc(O)c2c(c1)/C=C/C[C@H](O)[C@@H](O)C(=O)/C=C/C[C@H](C)OC2=O

>  <Name>  (535) 
nan

>  <Pocket>  (535) 
nan

>  <ATP_Site>  (535) 
nan

>  <Peripheral>  (535) 
nan

>  <Num_H_Atoms_ProtBoundConf>  (535) 
nan

>  <Num_Resolved_Atoms>  (535) 
nan

>  <Num_Not_Resolved_Atoms>  (535) 
nan

$$$$
CHEMBL3883548
     RDKit          3D

  0  0  0  0  0  0  0  0  0  0999 V3000
M  V30 BEGIN CTAB
M  V30 COUNTS 48 51 0 0 0
M  V30 BEGIN ATOM
M  V30 1 C 0.814600 -4.673505 -0.021734 0
M  V30 2 C 1.018140 -3.618878 1.019250 0
M  V30 3 C 1.012466 -4.175618 2.425565 0
M  V30 4 C 2.260407 -2.802474 0.775190 0
M  V30 5 O 3.361704 -3.436264 0.751766 0
M  V30 6 N 1.969300 -1.398550 0.605657 0
M  V30 7 C 2.999317 -0.406122 0.358398 0
M  V30 8 C 2.915147 0.264388 -0.965923 0
M  V30 9 C 2.283950 1.599573 -1.029157 0
M  V30 10 C 2.182895 2.349707 0.264918 0
M  V30 11 C 3.369040 1.963117 1.099487 0
M  V30 12 C 3.176312 0.529276 1.521385 0
M  V30 13 C 0.562118 -1.309942 0.737559 0
M  V30 14 N -0.223818 -0.234568 0.665112 0
M  V30 15 C -1.560431 -0.263726 0.806130 0
M  V30 16 N -2.309472 0.932650 0.712708 0
M  V30 17 C -3.707594 1.115193 0.829770 0
M  V30 18 C -4.643610 0.135133 1.064629 0
M  V30 19 C -6.000580 0.349325 1.172981 0
M  V30 20 C -6.453513 1.644347 1.035439 0
M  V30 21 N -5.565893 2.611705 0.807332 0
M  V30 22 C -4.263179 2.367129 0.708842 0
M  V30 23 N -2.083172 -1.475997 1.032059 0
M  V30 24 C -1.368629 -2.603943 1.119295 0
M  V30 25 C -0.003066 -2.542727 0.970753 0
M  V30 26 H -0.264367 -4.677314 -0.352934 0
M  V30 27 H 1.478144 -4.568760 -0.885971 0
M  V30 28 H 0.976458 -5.689442 0.419429 0
M  V30 29 H 1.715243 -5.001581 2.586432 0
M  V30 30 H 1.217391 -3.302697 3.095348 0
M  V30 31 H -0.050675 -4.479685 2.619572 0
M  V30 32 H 3.961160 -1.005768 0.343434 0
M  V30 33 H 2.296810 -0.423135 -1.618238 0
M  V30 34 H 3.912144 0.262865 -1.500405 0
M  V30 35 H 1.275888 1.578967 -1.542370 0
M  V30 36 H 2.889646 2.245848 -1.731903 0
M  V30 37 H 1.241359 2.140388 0.813900 0
M  V30 38 H 2.214265 3.442572 0.028526 0
M  V30 39 H 3.434906 2.610637 1.970403 0
M  V30 40 H 4.265889 1.994059 0.435919 0
M  V30 41 H 4.024897 0.271078 2.186620 0
M  V30 42 H 2.261396 0.491866 2.148978 0
M  V30 43 H -1.752566 1.815712 0.530235 0
M  V30 44 H -4.322371 -0.883598 1.176409 0
M  V30 45 H -6.681883 -0.479107 1.360258 0
M  V30 46 H -7.524523 1.820751 1.119914 0
M  V30 47 H -3.665465 3.268246 0.519793 0
M  V30 48 H -1.902162 -3.518342 1.303964 0
M  V30 END ATOM
M  V30 BEGIN BOND
M  V30 1 1 1 2
M  V30 2 1 2 3
M  V30 3 1 2 4
M  V30 4 2 4 5
M  V30 5 1 4 6
M  V30 6 1 6 7
M  V30 7 1 7 8
M  V30 8 1 8 9
M  V30 9 1 9 10
M  V30 10 1 10 11
M  V30 11 1 11 12
M  V30 12 1 6 13
M  V30 13 2 13 14
M  V30 14 1 14 15
M  V30 15 1 15 16
M  V30 16 1 16 17
M  V30 17 2 17 18
M  V30 18 1 18 19
M  V30 19 2 19 20
M  V30 20 1 20 21
M  V30 21 2 21 22
M  V30 22 2 15 23
M  V30 23 1 23 24
M  V30 24 2 24 25
M  V30 25 1 25 2
M  V30 26 1 12 7
M  V30 27 1 25 13
M  V30 28 1 22 17
M  V30 29 1 1 26
M  V30 30 1 1 27
M  V30 31 1 1 28
M  V30 32 1 3 29
M  V30 33 1 3 30
M  V30 34 1 3 31
M  V30 35 1 7 32
M  V30 36 1 8 33
M  V30 37 1 8 34
M  V30 38 1 9 35
M  V30 39 1 9 36
M  V30 40 1 10 37
M  V30 41 1 10 38
M  V30 42 1 11 39
M  V30 43 1 11 40
M  V30 44 1 12 41
M  V30 45 1 12 42
M  V30 46 1 16 43
M  V30 47 1 18 44
M  V30 48 1 19 45
M  V30 49 1 20 46
M  V30 50 1 22 47
M  V30 51 1 24 48
M  V30 END BOND
M  V30 END CTAB
M  END
>  <Dataset>  (536) 
ChEMBL_Kinases

>  <Ligand_Instance>  (536) 
nan

>  <PDB_ID>  (536) 
nan

>  <Standardized_SMILES>  (536) 
CC1(C)C(=O)N(C2CCCCC2)c2nc(Nc3cccnc3)ncc21

>  <Name>  (536) 
nan

>  <Pocket>  (536) 
nan

>  <ATP_Site>  (536) 
nan

>  <Peripheral>  (536) 
nan

>  <Num_H_Atoms_ProtBoundConf>  (536) 
nan

>  <Num_Resolved_Atoms>  (536) 
nan

>  <Num_Not_Resolved_Atoms>  (536) 
nan

$$$$
CHEMBL385872
     RDKit          3D

  0  0  0  0  0  0  0  0  0  0999 V3000
M  V30 BEGIN CTAB
M  V30 COUNTS 62 66 0 0 0
M  V30 BEGIN ATOM
M  V30 1 C 7.029663 -2.377978 5.761336 0
M  V30 2 N 6.209372 -1.209186 5.781723 0
M  V30 3 C 6.440793 -0.272201 4.726555 0
M  V30 4 C 5.906777 -0.809096 3.418169 0
M  V30 5 N 4.477247 -0.969206 3.432690 0
M  V30 6 C 3.532429 -0.312027 2.602341 0
M  V30 7 C 3.916723 0.644665 1.691712 0
M  V30 8 C 2.957176 1.269569 0.887848 0
M  V30 9 C 1.614095 0.960015 0.971780 0
M  V30 10 C 0.692852 1.670464 0.090121 0
M  V30 11 O 1.154701 2.533970 -0.670971 0
M  V30 12 N -0.693192 1.379646 0.104797 0
M  V30 13 C -1.760870 1.933121 -0.649894 0
M  V30 14 N -2.566592 3.000622 -0.373037 0
M  V30 15 N -3.427201 3.173114 -1.334386 0
M  V30 16 C -3.251028 2.246514 -2.295440 0
M  V30 17 C -2.207298 1.453808 -1.888037 0
M  V30 18 C -2.036250 0.446903 -2.967315 0
M  V30 19 N -3.380042 0.189407 -3.431585 0
M  V30 20 C -3.888608 -1.133689 -3.530265 0
M  V30 21 O -2.826894 -1.712490 -3.116032 0
M  V30 22 C -5.174644 -1.669217 -3.955082 0 CFG=2
M  V30 23 O -6.107730 -0.718239 -4.362879 0
M  V30 24 C -5.730647 -2.577258 -2.922247 0
M  V30 25 C -6.995234 -3.027453 -3.283493 0
M  V30 26 C -7.739192 -3.885281 -2.499065 0
M  V30 27 C -7.210899 -4.327543 -1.288142 0
M  V30 28 C -5.968562 -3.879495 -0.942907 0
M  V30 29 C -5.222942 -3.023721 -1.722294 0
M  V30 30 C -3.606652 1.614255 -3.603542 0
M  V30 31 C 1.245249 -0.002491 1.890979 0
M  V30 32 C 2.196380 -0.628038 2.694178 0
M  V30 33 C 4.242771 -1.925067 4.463606 0
M  V30 34 C 4.824373 -1.564620 5.810423 0
M  V30 35 H 7.527203 -2.564786 4.787859 0
M  V30 36 H 6.392138 -3.263726 5.956346 0
M  V30 37 H 7.809339 -2.266705 6.550999 0
M  V30 38 H 5.937505 0.665011 4.960682 0
M  V30 39 H 7.545232 -0.137194 4.587964 0
M  V30 40 H 6.278300 -0.122537 2.632446 0
M  V30 41 H 6.465924 -1.764281 3.239387 0
M  V30 42 H 4.943469 0.946961 1.560867 0
M  V30 43 H 3.316797 2.024506 0.178907 0
M  V30 44 H -1.126560 0.662908 0.725611 0
M  V30 45 H -4.183636 3.908916 -1.420724 0
M  V30 46 H -1.491590 -0.433546 -2.623113 0
M  V30 47 H -1.414906 0.962771 -3.743563 0
M  V30 48 H -5.033863 -2.323725 -4.865532 0
M  V30 49 H -6.962173 -0.751697 -3.902455 0
M  V30 50 H -7.542536 -2.772532 -4.196493 0
M  V30 51 H -8.721818 -4.261985 -2.735623 0
M  V30 52 H -7.669636 -4.994692 -0.572105 0
M  V30 53 H -5.451604 -4.157421 -0.017708 0
M  V30 54 H -4.241026 -2.622896 -1.524879 0
M  V30 55 H -2.936177 2.055388 -4.367965 0
M  V30 56 H -4.643919 1.851331 -3.874913 0
M  V30 57 H 0.195502 -0.251269 1.963681 0
M  V30 58 H 1.784296 -1.355236 3.365518 0
M  V30 59 H 4.638994 -2.915933 4.105779 0
M  V30 60 H 3.160610 -2.093326 4.638487 0
M  V30 61 H 4.765755 -2.507529 6.428925 0
M  V30 62 H 4.211076 -0.830789 6.353676 0
M  V30 END ATOM
M  V30 BEGIN BOND
M  V30 1 1 1 2
M  V30 2 1 2 3
M  V30 3 1 3 4
M  V30 4 1 4 5
M  V30 5 1 5 6
M  V30 6 2 6 7
M  V30 7 1 7 8
M  V30 8 2 8 9
M  V30 9 1 9 10
M  V30 10 2 10 11
M  V30 11 1 10 12
M  V30 12 1 12 13
M  V30 13 2 13 14
M  V30 14 1 14 15
M  V30 15 1 15 16
M  V30 16 2 16 17
M  V30 17 1 17 18
M  V30 18 1 18 19
M  V30 19 1 19 20
M  V30 20 2 20 21
M  V30 21 1 20 22
M  V30 22 1 22 23
M  V30 23 1 22 24
M  V30 24 2 24 25
M  V30 25 1 25 26
M  V30 26 2 26 27
M  V30 27 1 27 28
M  V30 28 2 28 29
M  V30 29 1 19 30
M  V30 30 1 9 31
M  V30 31 2 31 32
M  V30 32 1 5 33
M  V30 33 1 33 34
M  V30 34 1 34 2
M  V30 35 1 32 6
M  V30 36 1 17 13
M  V30 37 1 29 24
M  V30 38 1 30 16
M  V30 39 1 1 35
M  V30 40 1 1 36
M  V30 41 1 1 37
M  V30 42 1 3 38
M  V30 43 1 3 39
M  V30 44 1 4 40
M  V30 45 1 4 41
M  V30 46 1 7 42
M  V30 47 1 8 43
M  V30 48 1 12 44
M  V30 49 1 15 45
M  V30 50 1 18 46
M  V30 51 1 18 47
M  V30 52 1 22 48 CFG=3
M  V30 53 1 23 49
M  V30 54 1 25 50
M  V30 55 1 26 51
M  V30 56 1 27 52
M  V30 57 1 28 53
M  V30 58 1 29 54
M  V30 59 1 30 55
M  V30 60 1 30 56
M  V30 61 1 31 57
M  V30 62 1 32 58
M  V30 63 1 33 59
M  V30 64 1 33 60
M  V30 65 1 34 61
M  V30 66 1 34 62
M  V30 END BOND
M  V30 END CTAB
M  END
>  <Dataset>  (537) 
ChEMBL_Kinases

>  <Ligand_Instance>  (537) 
nan

>  <PDB_ID>  (537) 
nan

>  <Standardized_SMILES>  (537) 
CN1CCN(c2ccc(C(=O)Nc3n[nH]c4c3CN(C(=O)[C@H](O)c3ccccc3)C4)cc2)CC1

>  <Name>  (537) 
nan

>  <Pocket>  (537) 
nan

>  <ATP_Site>  (537) 
nan

>  <Peripheral>  (537) 
nan

>  <Num_H_Atoms_ProtBoundConf>  (537) 
nan

>  <Num_Resolved_Atoms>  (537) 
nan

>  <Num_Not_Resolved_Atoms>  (537) 
nan

$$$$
CHEMBL3883761
     RDKit          3D

  0  0  0  0  0  0  0  0  0  0999 V3000
M  V30 BEGIN CTAB
M  V30 COUNTS 62 65 0 0 0
M  V30 BEGIN ATOM
M  V30 1 C 5.118978 -2.934318 0.989592 0
M  V30 2 C 4.591412 -2.552459 -0.194514 0
M  V30 3 C 4.533176 -1.303445 -0.998709 0
M  V30 4 O 3.920333 -1.347304 -2.085562 0
M  V30 5 N 5.166949 -0.168931 -0.482613 0
M  V30 6 C 5.430902 1.221218 -0.760392 0
M  V30 7 C 6.552009 1.417177 -1.573452 0
M  V30 8 C 7.057782 2.658911 -1.971718 0
M  V30 9 C 6.339809 3.714120 -1.482950 0
M  V30 10 C 5.225553 3.600951 -0.677520 0
M  V30 11 C 4.758084 2.364208 -0.307299 0
M  V30 12 O 3.669170 2.096280 0.493437 0
M  V30 13 C 2.496593 1.517471 0.092477 0
M  V30 14 N 1.602373 1.212629 1.038994 0
M  V30 15 C 0.405468 0.649004 0.841308 0
M  V30 16 N -0.433036 0.379486 1.951958 0
M  V30 17 C -1.728710 -0.194193 1.943753 0
M  V30 18 C -2.456485 -0.512957 0.820197 0
M  V30 19 C -3.710141 -1.080092 0.793464 0
M  V30 20 C -4.313832 -1.365413 2.020671 0
M  V30 21 N -5.604597 -1.952085 2.142126 0
M  V30 22 C -6.318653 -2.392450 3.321396 0
M  V30 23 C -6.823095 -3.806062 3.187666 0
M  V30 24 N -6.362350 -4.501160 2.029277 0
M  V30 25 C -4.989902 -4.927122 2.095405 0
M  V30 26 C -6.670602 -3.739136 0.846649 0
M  V30 27 C -6.526279 -2.252399 1.076294 0
M  V30 28 C -3.611782 -1.058244 3.164723 0
M  V30 29 C -2.365214 -0.493441 3.132177 0
M  V30 30 N 0.131705 0.388496 -0.440850 0
M  V30 31 C 0.923198 0.636629 -1.486728 0
M  V30 32 C 2.144672 1.218656 -1.228074 0
M  V30 33 O 3.087509 1.553417 -2.172323 0
M  V30 34 C 2.986231 1.377085 -3.556271 0
M  V30 35 H 5.300019 -1.919978 0.754268 0
M  V30 36 H 5.673772 -2.228274 1.612025 0
M  V30 37 H 4.106735 -3.430574 -0.595517 0
M  V30 38 H 5.704059 -0.086279 0.433166 0
M  V30 39 H 7.130146 0.570597 -1.966613 0
M  V30 40 H 7.919997 2.747557 -2.595291 0
M  V30 41 H 6.652843 4.715004 -1.738298 0
M  V30 42 H 4.667829 4.446098 -0.298639 0
M  V30 43 H -0.047624 0.638735 2.894141 0
M  V30 44 H -2.052520 -0.316734 -0.150368 0
M  V30 45 H -4.221604 -1.303180 -0.112919 0
M  V30 46 H -7.168845 -1.673241 3.476950 0
M  V30 47 H -5.667242 -2.327587 4.213722 0
M  V30 48 H -6.534731 -4.391394 4.075577 0
M  V30 49 H -7.932803 -3.772200 3.144631 0
M  V30 50 H -4.563753 -4.950279 3.116484 0
M  V30 51 H -4.966289 -5.979698 1.704882 0
M  V30 52 H -4.317954 -4.371745 1.387941 0
M  V30 53 H -7.705430 -3.962341 0.542648 0
M  V30 54 H -5.962256 -4.034285 0.042658 0
M  V30 55 H -7.538200 -1.805800 1.212303 0
M  V30 56 H -6.154149 -1.797646 0.132366 0
M  V30 57 H -3.983325 -1.236751 4.187008 0
M  V30 58 H -1.834945 -0.262846 4.056514 0
M  V30 59 H 0.667550 0.412649 -2.510826 0
M  V30 60 H 2.793006 0.357148 -3.899573 0
M  V30 61 H 2.108041 1.981088 -3.923229 0
M  V30 62 H 3.899265 1.735187 -4.074894 0
M  V30 END ATOM
M  V30 BEGIN BOND
M  V30 1 2 1 2
M  V30 2 1 2 3
M  V30 3 2 3 4
M  V30 4 1 3 5
M  V30 5 1 5 6
M  V30 6 2 6 7
M  V30 7 1 7 8
M  V30 8 2 8 9
M  V30 9 1 9 10
M  V30 10 2 10 11
M  V30 11 1 11 12
M  V30 12 1 12 13
M  V30 13 2 13 14
M  V30 14 1 14 15
M  V30 15 1 15 16
M  V30 16 1 16 17
M  V30 17 2 17 18
M  V30 18 1 18 19
M  V30 19 2 19 20
M  V30 20 1 20 21
M  V30 21 1 21 22
M  V30 22 1 22 23
M  V30 23 1 23 24
M  V30 24 1 24 25
M  V30 25 1 24 26
M  V30 26 1 26 27
M  V30 27 1 20 28
M  V30 28 2 28 29
M  V30 29 2 15 30
M  V30 30 1 30 31
M  V30 31 2 31 32
M  V30 32 1 32 33
M  V30 33 1 33 34
M  V30 34 1 11 6
M  V30 35 1 32 13
M  V30 36 1 29 17
M  V30 37 1 27 21
M  V30 38 1 1 35
M  V30 39 1 1 36
M  V30 40 1 2 37
M  V30 41 1 5 38
M  V30 42 1 7 39
M  V30 43 1 8 40
M  V30 44 1 9 41
M  V30 45 1 10 42
M  V30 46 1 16 43
M  V30 47 1 18 44
M  V30 48 1 19 45
M  V30 49 1 22 46
M  V30 50 1 22 47
M  V30 51 1 23 48
M  V30 52 1 23 49
M  V30 53 1 25 50
M  V30 54 1 25 51
M  V30 55 1 25 52
M  V30 56 1 26 53
M  V30 57 1 26 54
M  V30 58 1 27 55
M  V30 59 1 27 56
M  V30 60 1 28 57
M  V30 61 1 29 58
M  V30 62 1 31 59
M  V30 63 1 34 60
M  V30 64 1 34 61
M  V30 65 1 34 62
M  V30 END BOND
M  V30 END CTAB
M  END
>  <Dataset>  (538) 
ChEMBL_Kinases

>  <Ligand_Instance>  (538) 
nan

>  <PDB_ID>  (538) 
nan

>  <Standardized_SMILES>  (538) 
C=CC(=O)Nc1ccccc1Oc1nc(Nc2ccc(N3CCN(C)CC3)cc2)ncc1OC

>  <Name>  (538) 
nan

>  <Pocket>  (538) 
nan

>  <ATP_Site>  (538) 
nan

>  <Peripheral>  (538) 
nan

>  <Num_H_Atoms_ProtBoundConf>  (538) 
nan

>  <Num_Resolved_Atoms>  (538) 
nan

>  <Num_Not_Resolved_Atoms>  (538) 
nan

$$$$
CHEMBL4083182
     RDKit          3D

  0  0  0  0  0  0  0  0  0  0999 V3000
M  V30 BEGIN CTAB
M  V30 COUNTS 48 52 0 0 0
M  V30 BEGIN ATOM
M  V30 1 C -0.626011 -2.601935 4.036312 0
M  V30 2 N -1.036992 -2.398772 2.659048 0
M  V30 3 C -0.832469 -1.299613 1.945798 0
M  V30 4 C -1.316218 -1.367939 0.663979 0
M  V30 5 C -1.362322 -0.558165 -0.540357 0
M  V30 6 C -0.438339 0.093328 -1.231509 0
M  V30 7 C 0.994305 0.338083 -1.171684 0
M  V30 8 C 1.754856 -0.159131 -2.228887 0
M  V30 9 C 3.131881 -0.000823 -2.357153 0
M  V30 10 C 3.765997 0.698667 -1.361838 0
M  V30 11 C 3.092505 1.217391 -0.295938 0
M  V30 12 C 3.710690 1.945528 0.698504 0
M  V30 13 C 2.937311 2.468013 1.742372 0
M  V30 14 C 1.572764 2.285492 1.822374 0
M  V30 15 C 0.864920 2.903484 2.970153 0
M  V30 16 N 0.842119 1.946884 4.054132 0
M  V30 17 C 1.002026 1.551592 0.808494 0
M  V30 18 C 1.731671 1.023374 -0.231927 0
M  V30 19 C -1.085086 0.777862 -2.375179 0
M  V30 20 O -0.632110 1.515432 -3.315686 0
M  V30 21 N -2.485797 0.513072 -2.356267 0
M  V30 22 C -2.659847 -0.316992 -1.215212 0
M  V30 23 O -3.830927 -0.731294 -0.918198 0
M  V30 24 C -1.865691 -2.656570 0.632764 0
M  V30 25 C -2.513455 -3.475471 -0.256765 0
M  V30 26 C -2.946565 -4.744504 -0.004507 0
M  V30 27 C -2.735357 -5.292538 1.239376 0
M  V30 28 C -2.090135 -4.535468 2.190800 0
M  V30 29 C -1.682263 -3.260066 1.858791 0
M  V30 30 H -1.052466 -3.552811 4.423410 0
M  V30 31 H -1.006817 -1.791806 4.687111 0
M  V30 32 H 0.488748 -2.727448 4.102847 0
M  V30 33 H -0.337602 -0.426812 2.329809 0
M  V30 34 H 1.264697 -0.715708 -3.025707 0
M  V30 35 H 3.654817 -0.414405 -3.206827 0
M  V30 36 H 4.834348 0.865773 -1.391087 0
M  V30 37 H 4.781326 2.115499 0.675318 0
M  V30 38 H 3.440806 3.047361 2.534160 0
M  V30 39 H 1.356224 3.837004 3.312311 0
M  V30 40 H -0.191073 3.067322 2.672547 0
M  V30 41 H 1.647773 2.151466 4.720647 0
M  V30 42 H 1.060653 0.982089 3.689645 0
M  V30 43 H -0.075376 1.416405 0.871011 0
M  V30 44 H -3.233593 0.846876 -3.027320 0
M  V30 45 H -2.709090 -3.131513 -1.258418 0
M  V30 46 H -3.449482 -5.345992 -0.730409 0
M  V30 47 H -3.060274 -6.293626 1.489905 0
M  V30 48 H -1.931054 -4.975810 3.163983 0
M  V30 END ATOM
M  V30 BEGIN BOND
M  V30 1 1 1 2
M  V30 2 1 2 3
M  V30 3 2 3 4
M  V30 4 1 4 5
M  V30 5 2 5 6
M  V30 6 1 6 7
M  V30 7 2 7 8
M  V30 8 1 8 9
M  V30 9 2 9 10
M  V30 10 1 10 11
M  V30 11 2 11 12
M  V30 12 1 12 13
M  V30 13 2 13 14
M  V30 14 1 14 15
M  V30 15 1 15 16
M  V30 16 1 14 17
M  V30 17 2 17 18
M  V30 18 1 6 19
M  V30 19 2 19 20
M  V30 20 1 19 21
M  V30 21 1 21 22
M  V30 22 2 22 23
M  V30 23 1 4 24
M  V30 24 2 24 25
M  V30 25 1 25 26
M  V30 26 2 26 27
M  V30 27 1 27 28
M  V30 28 2 28 29
M  V30 29 1 29 2
M  V30 30 1 22 5
M  V30 31 1 29 24
M  V30 32 1 18 7
M  V30 33 1 18 11
M  V30 34 1 1 30
M  V30 35 1 1 31
M  V30 36 1 1 32
M  V30 37 1 3 33
M  V30 38 1 8 34
M  V30 39 1 9 35
M  V30 40 1 10 36
M  V30 41 1 12 37
M  V30 42 1 13 38
M  V30 43 1 15 39
M  V30 44 1 15 40
M  V30 45 1 16 41
M  V30 46 1 16 42
M  V30 47 1 17 43
M  V30 48 1 21 44
M  V30 49 1 25 45
M  V30 50 1 26 46
M  V30 51 1 27 47
M  V30 52 1 28 48
M  V30 END BOND
M  V30 END CTAB
M  END
>  <Dataset>  (539) 
ChEMBL_Kinases

>  <Ligand_Instance>  (539) 
nan

>  <PDB_ID>  (539) 
nan

>  <Standardized_SMILES>  (539) 
Cn1cc(C2=C(c3cccc4ccc(CN)cc34)C(=O)NC2=O)c2ccccc21

>  <Name>  (539) 
nan

>  <Pocket>  (539) 
nan

>  <ATP_Site>  (539) 
nan

>  <Peripheral>  (539) 
nan

>  <Num_H_Atoms_ProtBoundConf>  (539) 
nan

>  <Num_Resolved_Atoms>  (539) 
nan

>  <Num_Not_Resolved_Atoms>  (539) 
nan

$$$$
CHEMBL3660090
     RDKit          3D

  0  0  0  0  0  0  0  0  0  0999 V3000
M  V30 BEGIN CTAB
M  V30 COUNTS 51 55 0 0 0
M  V30 BEGIN ATOM
M  V30 1 C 0.193073 -4.181985 2.664450 0
M  V30 2 C 1.553584 -3.605057 2.752430 0
M  V30 3 C 2.520850 -4.312378 3.432922 0
M  V30 4 C 3.780094 -3.754413 3.501060 0
M  V30 5 C 4.056735 -2.538899 2.911655 0
M  V30 6 N 5.148289 -1.758741 2.806754 0
M  V30 7 N 4.866034 -0.671231 2.120936 0
M  V30 8 C 3.581881 -0.679349 1.741283 0
M  V30 9 C 2.913840 0.354635 0.969665 0
M  V30 10 C 3.709941 1.447553 0.603624 0
M  V30 11 C 3.290697 2.533802 -0.122420 0
M  V30 12 C 1.976974 2.549387 -0.524178 0
M  V30 13 C 1.516989 3.620111 -1.253904 0
M  V30 14 C 0.203656 3.659474 -1.668755 0
M  V30 15 C -0.576423 2.574786 -1.302459 0
M  V30 16 C -0.120034 1.476963 -0.558825 0
M  V30 17 O -1.079578 0.618492 -0.371335 0
M  V30 18 C -1.518630 -0.534457 0.134775 0
M  V30 19 C -2.707924 -0.397584 1.099657 0
M  V30 20 C -3.711639 0.521870 0.487035 0
M  V30 21 N -4.160753 -0.066546 -0.761188 0
M  V30 22 C -4.389063 -1.493223 -0.558932 0
M  V30 23 C -3.130136 -2.290922 -0.708287 0
M  V30 24 C -1.935138 -1.429465 -1.044834 0
M  V30 25 F -0.923347 -2.288983 -1.408822 0
M  V30 26 C 1.193198 1.480301 -0.167625 0
M  V30 27 N 1.617280 0.404411 0.554149 0
M  V30 28 N 3.126567 -1.837553 2.245562 0
M  V30 29 C 1.914585 -2.399065 2.193521 0
M  V30 30 H -0.146308 -4.422192 3.702154 0
M  V30 31 H -0.523921 -3.504465 2.175068 0
M  V30 32 H 0.236311 -5.156015 2.132057 0
M  V30 33 H 2.311226 -5.264617 3.896781 0
M  V30 34 H 4.597760 -4.250020 4.019697 0
M  V30 35 H 4.774313 1.511988 0.886526 0
M  V30 36 H 3.936430 3.350335 -0.380624 0
M  V30 37 H 2.202616 4.404041 -1.482161 0
M  V30 38 H -0.125361 4.514134 -2.239813 0
M  V30 39 H -1.600253 2.702432 -1.679472 0
M  V30 40 H -0.811458 -1.170198 0.698387 0
M  V30 41 H -2.293742 0.009067 2.056968 0
M  V30 42 H -3.098741 -1.383187 1.346560 0
M  V30 43 H -3.184097 1.495248 0.306783 0
M  V30 44 H -4.537404 0.765007 1.162464 0
M  V30 45 H -5.107089 0.385315 -0.939146 0
M  V30 46 H -4.875284 -1.725418 0.406457 0
M  V30 47 H -5.169411 -1.753736 -1.333215 0
M  V30 48 H -2.907928 -2.987283 0.104022 0
M  V30 49 H -3.269958 -2.932840 -1.615307 0
M  V30 50 H -2.202245 -0.833332 -1.941064 0
M  V30 51 H 1.130648 -1.882906 1.673625 0
M  V30 END ATOM
M  V30 BEGIN BOND
M  V30 1 1 1 2
M  V30 2 1 2 3
M  V30 3 2 3 4
M  V30 4 1 4 5
M  V30 5 2 5 6
M  V30 6 1 6 7
M  V30 7 2 7 8
M  V30 8 1 8 9
M  V30 9 2 9 10
M  V30 10 1 10 11
M  V30 11 2 11 12
M  V30 12 1 12 13
M  V30 13 2 13 14
M  V30 14 1 14 15
M  V30 15 2 15 16
M  V30 16 1 16 17
M  V30 17 1 17 18
M  V30 18 1 18 19
M  V30 19 1 19 20
M  V30 20 1 20 21
M  V30 21 1 21 22
M  V30 22 1 22 23
M  V30 23 1 23 24
M  V30 24 1 24 25
M  V30 25 1 16 26
M  V30 26 2 26 27
M  V30 27 1 8 28
M  V30 28 1 28 29
M  V30 29 2 29 2
M  V30 30 1 28 5
M  V30 31 1 27 9
M  V30 32 1 26 12
M  V30 33 1 24 18
M  V30 34 1 1 30
M  V30 35 1 1 31
M  V30 36 1 1 32
M  V30 37 1 3 33
M  V30 38 1 4 34
M  V30 39 1 10 35
M  V30 40 1 11 36
M  V30 41 1 13 37
M  V30 42 1 14 38
M  V30 43 1 15 39
M  V30 44 1 18 40
M  V30 45 1 19 41
M  V30 46 1 19 42
M  V30 47 1 20 43
M  V30 48 1 20 44
M  V30 49 1 21 45
M  V30 50 1 22 46
M  V30 51 1 22 47
M  V30 52 1 23 48
M  V30 53 1 23 49
M  V30 54 1 24 50
M  V30 55 1 29 51
M  V30 END BOND
M  V30 END CTAB
M  END
>  <Dataset>  (540) 
ChEMBL_Kinases

>  <Ligand_Instance>  (540) 
nan

>  <PDB_ID>  (540) 
nan

>  <Standardized_SMILES>  (540) 
Cc1ccc2nnc(-c3ccc4cccc(OC5CCNCCC5F)c4n3)n2c1

>  <Name>  (540) 
nan

>  <Pocket>  (540) 
nan

>  <ATP_Site>  (540) 
nan

>  <Peripheral>  (540) 
nan

>  <Num_H_Atoms_ProtBoundConf>  (540) 
nan

>  <Num_Resolved_Atoms>  (540) 
nan

>  <Num_Not_Resolved_Atoms>  (540) 
nan

$$$$
CHEMBL3590123
     RDKit          3D

  0  0  0  0  0  0  0  0  0  0999 V3000
M  V30 BEGIN CTAB
M  V30 COUNTS 42 44 0 0 0
M  V30 BEGIN ATOM
M  V30 1 C 4.369977 -3.364506 0.302593 0
M  V30 2 C 3.109243 -3.376941 -0.130312 0
M  V30 3 C 2.877342 -2.252778 -1.030406 0
M  V30 4 O 3.965488 -1.606432 -1.117972 0
M  V30 5 N 1.592854 -2.028497 -1.646082 0
M  V30 6 C 1.604390 -0.860768 -2.491445 0
M  V30 7 C 1.974045 -1.227214 -3.785370 0
M  V30 8 C 2.076711 -0.279705 -4.789887 0
M  V30 9 C 1.812361 1.036179 -4.511819 0
M  V30 10 C 1.452922 1.378607 -3.246171 0
M  V30 11 C 1.334161 0.483462 -2.209749 0
M  V30 12 N 0.999498 0.668722 -0.850395 0
M  V30 13 C -0.057973 0.241620 -0.019957 0
M  V30 14 N 0.090627 0.490633 1.291703 0
M  V30 15 C -0.859167 0.139966 2.176786 0
M  V30 16 N -0.675632 0.414150 3.559070 0
M  V30 17 C -1.630933 0.067171 4.551574 0
M  V30 18 C -2.853468 -0.558097 4.439128 0
M  V30 19 C -3.443797 -0.692141 5.677208 0
M  V30 20 N -2.553837 -0.137998 6.519260 0
M  V30 21 N -1.507992 0.299798 5.868183 0
M  V30 22 C -0.379685 0.951278 6.543887 0
M  V30 23 N -1.940229 -0.460732 1.677629 0
M  V30 24 C -2.168523 -0.745414 0.388065 0
M  V30 25 C -1.184527 -0.378483 -0.504560 0
M  V30 26 Cl -1.406676 -0.686373 -2.212499 0
M  V30 27 H 4.834803 -4.087341 0.991478 0
M  V30 28 H 4.636718 -4.170249 0.981832 0
M  V30 29 H 2.355833 -4.114235 0.142702 0
M  V30 30 H 0.877158 -2.741291 -1.379373 0
M  V30 31 H 2.209698 -2.224036 -4.144460 0
M  V30 32 H 2.360469 -0.496512 -5.823049 0
M  V30 33 H 1.863496 1.842073 -5.216625 0
M  V30 34 H 1.223730 2.399836 -2.929306 0
M  V30 35 H 1.793059 1.262454 -0.541190 0
M  V30 36 H 0.203780 0.893830 3.858482 0
M  V30 37 H -3.312614 -0.904322 3.536377 0
M  V30 38 H -4.384139 -1.121765 5.990366 0
M  V30 39 H -0.300623 0.594947 7.581610 0
M  V30 40 H -0.560986 2.059627 6.497222 0
M  V30 41 H 0.540438 0.736315 5.989752 0
M  V30 42 H -3.073107 -1.237386 0.047435 0
M  V30 END ATOM
M  V30 BEGIN BOND
M  V30 1 2 1 2
M  V30 2 1 2 3
M  V30 3 2 3 4
M  V30 4 1 3 5
M  V30 5 1 5 6
M  V30 6 2 6 7
M  V30 7 1 7 8
M  V30 8 2 8 9
M  V30 9 1 9 10
M  V30 10 2 10 11
M  V30 11 1 11 12
M  V30 12 1 12 13
M  V30 13 2 13 14
M  V30 14 1 14 15
M  V30 15 1 15 16
M  V30 16 1 16 17
M  V30 17 2 17 18
M  V30 18 1 18 19
M  V30 19 2 19 20
M  V30 20 1 20 21
M  V30 21 1 21 22
M  V30 22 2 15 23
M  V30 23 1 23 24
M  V30 24 2 24 25
M  V30 25 1 25 26
M  V30 26 1 11 6
M  V30 27 1 25 13
M  V30 28 1 21 17
M  V30 29 1 1 27
M  V30 30 1 1 28
M  V30 31 1 2 29
M  V30 32 1 5 30
M  V30 33 1 7 31
M  V30 34 1 8 32
M  V30 35 1 9 33
M  V30 36 1 10 34
M  V30 37 1 12 35
M  V30 38 1 16 36
M  V30 39 1 18 37
M  V30 40 1 19 38
M  V30 41 1 22 39
M  V30 42 1 22 40
M  V30 43 1 22 41
M  V30 44 1 24 42
M  V30 END BOND
M  V30 END CTAB
M  END
>  <Dataset>  (541) 
ChEMBL_Kinases

>  <Ligand_Instance>  (541) 
nan

>  <PDB_ID>  (541) 
nan

>  <Standardized_SMILES>  (541) 
C=CC(=O)Nc1ccccc1Nc1nc(Nc2ccnn2C)ncc1Cl

>  <Name>  (541) 
nan

>  <Pocket>  (541) 
nan

>  <ATP_Site>  (541) 
nan

>  <Peripheral>  (541) 
nan

>  <Num_H_Atoms_ProtBoundConf>  (541) 
nan

>  <Num_Resolved_Atoms>  (541) 
nan

>  <Num_Not_Resolved_Atoms>  (541) 
nan

$$$$
CHEMBL3590125
     RDKit          3D

  0  0  0  0  0  0  0  0  0  0999 V3000
M  V30 BEGIN CTAB
M  V30 COUNTS 45 47 0 0 0
M  V30 BEGIN ATOM
M  V30 1 C 3.319171 -3.634600 1.668339 0
M  V30 2 C 3.110412 -3.248641 0.462772 0
M  V30 3 C 2.701487 -2.325814 -0.500661 0
M  V30 4 O 3.027166 -3.221603 -1.352953 0
M  V30 5 N 2.188174 -1.076060 -0.793229 0
M  V30 6 C 1.945039 -0.584659 -2.062458 0
M  V30 7 C 2.301461 -1.118472 -3.268855 0
M  V30 8 C 1.996274 -0.567597 -4.493982 0
M  V30 9 C 1.277953 0.608102 -4.450021 0
M  V30 10 C 0.891643 1.191749 -3.247729 0
M  V30 11 C 1.229925 0.584791 -2.028499 0
M  V30 12 N 0.677269 1.391649 -0.978973 0
M  V30 13 C -0.287994 1.002193 0.010701 0
M  V30 14 N 0.010736 0.690660 1.276569 0
M  V30 15 C -0.873345 0.307244 2.199395 0
M  V30 16 N -0.400771 -0.001528 3.501809 0
M  V30 17 C -1.252054 -0.489637 4.525321 0
M  V30 18 C -2.602706 -0.755332 4.504028 0
M  V30 19 C -3.006343 -1.232185 5.744173 0
M  V30 20 N -1.910059 -1.247171 6.487355 0
M  V30 21 N -0.876705 -0.816988 5.791534 0
M  V30 22 C 0.493733 -0.687694 6.249860 0
M  V30 23 N -2.133558 0.238631 1.811258 0
M  V30 24 C -2.586253 0.518613 0.584136 0
M  V30 25 C -1.638467 0.909545 -0.338215 0
M  V30 26 C -2.064597 1.219648 -1.716698 0
M  V30 27 H 3.724694 -4.647559 1.835447 0
M  V30 28 H 3.518960 -4.027262 2.632535 0
M  V30 29 H 2.864337 -2.521479 1.261823 0
M  V30 30 H 2.060661 -0.638599 0.131958 0
M  V30 31 H 2.863489 -2.033739 -3.272205 0
M  V30 32 H 2.318773 -1.062976 -5.396981 0
M  V30 33 H 1.046841 1.025379 -5.433053 0
M  V30 34 H 0.344414 2.100007 -3.422334 0
M  V30 35 H 0.986023 2.385897 -0.883893 0
M  V30 36 H 0.616823 0.136401 3.721707 0
M  V30 37 H -3.277587 -0.630922 3.685256 0
M  V30 38 H -4.017661 -1.528130 6.026791 0
M  V30 39 H 0.672368 -1.300467 7.165778 0
M  V30 40 H 1.208320 -0.966999 5.445794 0
M  V30 41 H 0.654940 0.381896 6.508068 0
M  V30 42 H -3.653708 0.432681 0.358531 0
M  V30 43 H -1.799012 0.397740 -2.423984 0
M  V30 44 H -1.671719 2.185226 -2.077243 0
M  V30 45 H -3.169715 1.285056 -1.728824 0
M  V30 END ATOM
M  V30 BEGIN BOND
M  V30 1 2 1 2
M  V30 2 1 2 3
M  V30 3 2 3 4
M  V30 4 1 3 5
M  V30 5 1 5 6
M  V30 6 2 6 7
M  V30 7 1 7 8
M  V30 8 2 8 9
M  V30 9 1 9 10
M  V30 10 2 10 11
M  V30 11 1 11 12
M  V30 12 1 12 13
M  V30 13 2 13 14
M  V30 14 1 14 15
M  V30 15 1 15 16
M  V30 16 1 16 17
M  V30 17 2 17 18
M  V30 18 1 18 19
M  V30 19 2 19 20
M  V30 20 1 20 21
M  V30 21 1 21 22
M  V30 22 2 15 23
M  V30 23 1 23 24
M  V30 24 2 24 25
M  V30 25 1 25 26
M  V30 26 1 11 6
M  V30 27 1 25 13
M  V30 28 1 21 17
M  V30 29 1 1 27
M  V30 30 1 1 28
M  V30 31 1 2 29
M  V30 32 1 5 30
M  V30 33 1 7 31
M  V30 34 1 8 32
M  V30 35 1 9 33
M  V30 36 1 10 34
M  V30 37 1 12 35
M  V30 38 1 16 36
M  V30 39 1 18 37
M  V30 40 1 19 38
M  V30 41 1 22 39
M  V30 42 1 22 40
M  V30 43 1 22 41
M  V30 44 1 24 42
M  V30 45 1 26 43
M  V30 46 1 26 44
M  V30 47 1 26 45
M  V30 END BOND
M  V30 END CTAB
M  END
>  <Dataset>  (542) 
ChEMBL_Kinases

>  <Ligand_Instance>  (542) 
nan

>  <PDB_ID>  (542) 
nan

>  <Standardized_SMILES>  (542) 
C=CC(=O)Nc1ccccc1Nc1nc(Nc2ccnn2C)ncc1C

>  <Name>  (542) 
nan

>  <Pocket>  (542) 
nan

>  <ATP_Site>  (542) 
nan

>  <Peripheral>  (542) 
nan

>  <Num_H_Atoms_ProtBoundConf>  (542) 
nan

>  <Num_Resolved_Atoms>  (542) 
nan

>  <Num_Not_Resolved_Atoms>  (542) 
nan

$$$$
CHEMBL359106
     RDKit          3D

  0  0  0  0  0  0  0  0  0  0999 V3000
M  V30 BEGIN CTAB
M  V30 COUNTS 29 31 0 0 0
M  V30 BEGIN ATOM
M  V30 1 N -2.993565 -2.116710 3.803963 0
M  V30 2 C -2.231587 -1.242021 2.972101 0
M  V30 3 N -1.116546 -1.730833 2.562381 0
M  V30 4 C -0.418247 -0.804356 1.743318 0
M  V30 5 C 0.677995 -0.900068 1.025737 0
M  V30 6 C 1.345985 -2.255520 1.033807 0
M  V30 7 C 1.164628 -2.869926 -0.334490 0
M  V30 8 N 1.702227 -2.124838 -1.436103 0
M  V30 9 C 1.803445 -0.753560 -1.891742 0
M  V30 10 O 1.996195 -0.375940 -3.055015 0
M  V30 11 C 1.679125 0.369475 -0.958610 0
M  V30 12 N 2.010086 1.657396 -1.081525 0
M  V30 13 C 1.747722 2.356261 0.062507 0
M  V30 14 Br 2.079500 4.228511 0.292002 0
M  V30 15 C 1.200769 1.517380 1.051377 0
M  V30 16 C 1.185221 0.322104 0.358728 0
M  V30 17 C -1.238950 0.387330 1.660314 0
M  V30 18 O -1.325016 1.529015 1.174356 0
M  V30 19 N -2.382136 0.092738 2.446252 0
M  V30 20 H -3.766275 -2.771773 3.548510 0
M  V30 21 H -2.697538 -2.057033 4.808167 0
M  V30 22 H 0.802061 -2.892343 1.760096 0
M  V30 23 H 2.424468 -2.205051 1.242299 0
M  V30 24 H 1.735822 -3.844832 -0.278774 0
M  V30 25 H 0.086611 -3.144244 -0.497908 0
M  V30 26 H 2.185453 -2.723913 -2.183883 0
M  V30 27 H 2.414935 2.015048 -1.973447 0
M  V30 28 H 0.916551 1.726333 2.056117 0
M  V30 29 H -3.266041 0.558969 2.738160 0
M  V30 END ATOM
M  V30 BEGIN BOND
M  V30 1 1 1 2
M  V30 2 2 2 3
M  V30 3 1 3 4
M  V30 4 2 4 5
M  V30 5 1 5 6
M  V30 6 1 6 7
M  V30 7 1 7 8
M  V30 8 1 8 9
M  V30 9 2 9 10
M  V30 10 1 9 11
M  V30 11 1 11 12
M  V30 12 1 12 13
M  V30 13 1 13 14
M  V30 14 2 13 15
M  V30 15 1 15 16
M  V30 16 1 4 17
M  V30 17 2 17 18
M  V30 18 1 17 19
M  V30 19 1 19 2
M  V30 20 1 16 5
M  V30 21 2 16 11
M  V30 22 1 1 20
M  V30 23 1 1 21
M  V30 24 1 6 22
M  V30 25 1 6 23
M  V30 26 1 7 24
M  V30 27 1 7 25
M  V30 28 1 8 26
M  V30 29 1 12 27
M  V30 30 1 15 28
M  V30 31 1 19 29
M  V30 END BOND
M  V30 END CTAB
M  END
>  <Dataset>  (543) 
ChEMBL_Kinases

>  <Ligand_Instance>  (543) 
nan

>  <PDB_ID>  (543) 
nan

>  <Standardized_SMILES>  (543) 
NC1=N/C(=C2\CCNC(=O)c3[nH]c(Br)cc32)C(=O)N1

>  <Name>  (543) 
nan

>  <Pocket>  (543) 
nan

>  <ATP_Site>  (543) 
nan

>  <Peripheral>  (543) 
nan

>  <Num_H_Atoms_ProtBoundConf>  (543) 
nan

>  <Num_Resolved_Atoms>  (543) 
nan

>  <Num_Not_Resolved_Atoms>  (543) 
nan

$$$$
CHEMBL3883766
     RDKit          3D

  0  0  0  0  0  0  0  0  0  0999 V3000
M  V30 BEGIN CTAB
M  V30 COUNTS 44 46 0 0 0
M  V30 BEGIN ATOM
M  V30 1 C -2.507784 -0.957468 2.405577 0
M  V30 2 C -1.624690 -1.110889 3.617635 0
M  V30 3 C -0.267072 -0.426804 3.396031 0 CFG=1
M  V30 4 C 0.502714 -0.661360 4.680566 0
M  V30 5 N 0.454900 -1.079260 2.326144 0
M  V30 6 C 0.685944 -2.477445 2.395976 0
M  V30 7 O 0.420183 -3.423701 3.187299 0
M  V30 8 C 1.451434 -2.923933 1.199249 0
M  V30 9 C 0.760459 -4.009267 0.425475 0
M  V30 10 C 2.854494 -3.379906 1.606846 0
M  V30 11 C 1.613721 -1.670829 0.443664 0
M  V30 12 C 2.208554 -1.348985 -0.758964 0
M  V30 13 N 2.214839 -0.088097 -1.225437 0
M  V30 14 C 1.648112 0.933286 -0.558761 0
M  V30 15 N 1.741157 2.201874 -1.191695 0
M  V30 16 C 0.708620 2.702415 -2.030829 0
M  V30 17 C -0.455560 2.004272 -2.256330 0
M  V30 18 C -1.405645 2.569653 -3.085477 0
M  V30 19 C -1.275591 3.810470 -3.721142 0
M  V30 20 N -0.107789 4.459505 -3.466273 0
M  V30 21 C 0.811417 3.904687 -2.659550 0
M  V30 22 N 1.043481 0.671437 0.639730 0
M  V30 23 C 1.035312 -0.608653 1.115858 0
M  V30 24 H -3.118218 -0.019489 2.482329 0
M  V30 25 H -3.236113 -1.791478 2.401831 0
M  V30 26 H -1.959789 -0.858264 1.454004 0
M  V30 27 H -2.123160 -0.571206 4.455216 0
M  V30 28 H -1.417179 -2.157515 3.874239 0
M  V30 29 H -0.383477 0.645714 3.240582 0
M  V30 30 H 0.221578 0.120258 5.432837 0
M  V30 31 H 1.594678 -0.695090 4.509040 0
M  V30 32 H 0.177080 -1.628664 5.156038 0
M  V30 33 H 0.050074 -4.540510 1.080441 0
M  V30 34 H 0.191032 -3.540841 -0.409589 0
M  V30 35 H 1.489140 -4.706950 -0.012657 0
M  V30 36 H 3.095193 -2.843468 2.555142 0
M  V30 37 H 3.517909 -3.094116 0.784338 0
M  V30 38 H 2.828139 -4.469244 1.725851 0
M  V30 39 H 2.691091 -2.134235 -1.356404 0
M  V30 40 H 2.592990 2.801943 -1.048074 0
M  V30 41 H -0.623715 1.042340 -1.799934 0
M  V30 42 H -2.319442 1.983679 -3.240481 0
M  V30 43 H -2.077076 4.167670 -4.351417 0
M  V30 44 H 1.695939 4.527646 -2.541337 0
M  V30 END ATOM
M  V30 BEGIN BOND
M  V30 1 1 1 2
M  V30 2 1 2 3
M  V30 3 1 3 4
M  V30 4 1 3 5
M  V30 5 1 5 6
M  V30 6 2 6 7
M  V30 7 1 6 8
M  V30 8 1 8 9
M  V30 9 1 8 10
M  V30 10 1 8 11
M  V30 11 2 11 12
M  V30 12 1 12 13
M  V30 13 2 13 14
M  V30 14 1 14 15
M  V30 15 1 15 16
M  V30 16 2 16 17
M  V30 17 1 17 18
M  V30 18 2 18 19
M  V30 19 1 19 20
M  V30 20 2 20 21
M  V30 21 1 14 22
M  V30 22 2 22 23
M  V30 23 1 23 5
M  V30 24 1 23 11
M  V30 25 1 21 16
M  V30 26 1 1 24
M  V30 27 1 1 25
M  V30 28 1 1 26
M  V30 29 1 2 27
M  V30 30 1 2 28
M  V30 31 1 3 29 CFG=3
M  V30 32 1 4 30
M  V30 33 1 4 31
M  V30 34 1 4 32
M  V30 35 1 9 33
M  V30 36 1 9 34
M  V30 37 1 9 35
M  V30 38 1 10 36
M  V30 39 1 10 37
M  V30 40 1 10 38
M  V30 41 1 12 39
M  V30 42 1 15 40
M  V30 43 1 17 41
M  V30 44 1 18 42
M  V30 45 1 19 43
M  V30 46 1 21 44
M  V30 END BOND
M  V30 END CTAB
M  END
>  <Dataset>  (544) 
ChEMBL_Kinases

>  <Ligand_Instance>  (544) 
nan

>  <PDB_ID>  (544) 
nan

>  <Standardized_SMILES>  (544) 
CC[C@@H](C)N1C(=O)C(C)(C)c2cnc(Nc3cccnc3)nc21

>  <Name>  (544) 
nan

>  <Pocket>  (544) 
nan

>  <ATP_Site>  (544) 
nan

>  <Peripheral>  (544) 
nan

>  <Num_H_Atoms_ProtBoundConf>  (544) 
nan

>  <Num_Resolved_Atoms>  (544) 
nan

>  <Num_Not_Resolved_Atoms>  (544) 
nan

$$$$
CHEMBL3883802
     RDKit          3D

  0  0  0  0  0  0  0  0  0  0999 V3000
M  V30 BEGIN CTAB
M  V30 COUNTS 49 52 0 0 0
M  V30 BEGIN ATOM
M  V30 1 C 1.271611 -4.755511 2.102027 0
M  V30 2 C 0.750712 -3.938572 0.953219 0
M  V30 3 C 0.108616 -4.754365 -0.130873 0
M  V30 4 C 1.838124 -3.106377 0.323404 0
M  V30 5 O 2.760291 -3.801073 -0.180995 0
M  V30 6 N 1.597543 -1.686752 0.428668 0
M  V30 7 C 2.518718 -0.736321 -0.111485 0
M  V30 8 C 1.990682 0.175964 -1.159598 0
M  V30 9 C 1.824480 1.594354 -0.773841 0
M  V30 10 C 2.881385 2.215122 0.060560 0
M  V30 11 C 3.936220 1.237422 0.457261 0
M  V30 12 C 3.208333 0.016975 1.019784 0
M  V30 13 C 0.373792 -1.590403 1.117499 0
M  V30 14 N -0.299526 -0.495973 1.474738 0
M  V30 15 C -1.473063 -0.529349 2.138951 0
M  V30 16 N -2.224622 0.612559 2.537331 0
M  V30 17 C -3.216417 1.110797 1.646697 0
M  V30 18 C -3.464134 0.511776 0.429899 0
M  V30 19 C -4.420630 0.969962 -0.457184 0
M  V30 20 C -5.175526 2.087331 -0.118157 0
M  V30 21 C -4.965313 2.728509 1.096797 0
M  V30 22 C -3.983826 2.215934 1.948894 0
M  V30 23 N -1.999753 -1.720218 2.462187 0
M  V30 24 C -1.342631 -2.841939 2.114566 0
M  V30 25 C -0.139405 -2.853879 1.434535 0
M  V30 26 H 1.364759 -4.063636 2.978650 0
M  V30 27 H 2.196288 -5.289450 1.874398 0
M  V30 28 H 0.494686 -5.499130 2.358715 0
M  V30 29 H 0.026943 -4.088755 -1.034746 0
M  V30 30 H -0.926448 -5.070239 0.108314 0
M  V30 31 H 0.773041 -5.599829 -0.378269 0
M  V30 32 H 3.360172 -1.322643 -0.575216 0
M  V30 33 H 0.984891 -0.212373 -1.468914 0
M  V30 34 H 2.596332 0.135895 -2.087500 0
M  V30 35 H 1.737534 2.208644 -1.720144 0
M  V30 36 H 0.829977 1.803570 -0.276526 0
M  V30 37 H 3.337925 3.117262 -0.444968 0
M  V30 38 H 2.462215 2.657681 1.011865 0
M  V30 39 H 4.585626 1.606720 1.271551 0
M  V30 40 H 4.508381 0.986226 -0.455707 0
M  V30 41 H 3.962623 -0.585877 1.551822 0
M  V30 42 H 2.471837 0.379524 1.733971 0
M  V30 43 H -2.097521 1.116816 3.448755 0
M  V30 44 H -2.858929 -0.356214 0.195897 0
M  V30 45 H -4.536384 0.428102 -1.384954 0
M  V30 46 H -5.904695 2.387829 -0.861511 0
M  V30 47 H -5.564163 3.582502 1.321445 0
M  V30 48 H -3.822108 2.721167 2.900641 0
M  V30 49 H -1.745745 -3.817217 2.363148 0
M  V30 END ATOM
M  V30 BEGIN BOND
M  V30 1 1 1 2
M  V30 2 1 2 3
M  V30 3 1 2 4
M  V30 4 2 4 5
M  V30 5 1 4 6
M  V30 6 1 6 7
M  V30 7 1 7 8
M  V30 8 1 8 9
M  V30 9 1 9 10
M  V30 10 1 10 11
M  V30 11 1 11 12
M  V30 12 1 6 13
M  V30 13 2 13 14
M  V30 14 1 14 15
M  V30 15 1 15 16
M  V30 16 1 16 17
M  V30 17 2 17 18
M  V30 18 1 18 19
M  V30 19 2 19 20
M  V30 20 1 20 21
M  V30 21 2 21 22
M  V30 22 2 15 23
M  V30 23 1 23 24
M  V30 24 2 24 25
M  V30 25 1 25 2
M  V30 26 1 12 7
M  V30 27 1 25 13
M  V30 28 1 22 17
M  V30 29 1 1 26
M  V30 30 1 1 27
M  V30 31 1 1 28
M  V30 32 1 3 29
M  V30 33 1 3 30
M  V30 34 1 3 31
M  V30 35 1 7 32
M  V30 36 1 8 33
M  V30 37 1 8 34
M  V30 38 1 9 35
M  V30 39 1 9 36
M  V30 40 1 10 37
M  V30 41 1 10 38
M  V30 42 1 11 39
M  V30 43 1 11 40
M  V30 44 1 12 41
M  V30 45 1 12 42
M  V30 46 1 16 43
M  V30 47 1 18 44
M  V30 48 1 19 45
M  V30 49 1 20 46
M  V30 50 1 21 47
M  V30 51 1 22 48
M  V30 52 1 24 49
M  V30 END BOND
M  V30 END CTAB
M  END
>  <Dataset>  (545) 
ChEMBL_Kinases

>  <Ligand_Instance>  (545) 
nan

>  <PDB_ID>  (545) 
nan

>  <Standardized_SMILES>  (545) 
CC1(C)C(=O)N(C2CCCCC2)c2nc(Nc3ccccc3)ncc21

>  <Name>  (545) 
nan

>  <Pocket>  (545) 
nan

>  <ATP_Site>  (545) 
nan

>  <Peripheral>  (545) 
nan

>  <Num_H_Atoms_ProtBoundConf>  (545) 
nan

>  <Num_Resolved_Atoms>  (545) 
nan

>  <Num_Not_Resolved_Atoms>  (545) 
nan

$$$$
CHEMBL3660086
     RDKit          3D

  0  0  0  0  0  0  0  0  0  0999 V3000
M  V30 BEGIN CTAB
M  V30 COUNTS 51 55 0 0 0
M  V30 BEGIN ATOM
M  V30 1 C -1.665568 -6.042443 2.177984 0
M  V30 2 C -0.561396 -5.065653 1.996783 0
M  V30 3 C -0.840333 -3.768775 1.598594 0
M  V30 4 C 0.213162 -2.896939 1.442330 0
M  V30 5 N 1.507101 -3.177342 1.638612 0
M  V30 6 C 2.600170 -2.417256 1.526805 0
M  V30 7 C 2.773511 -1.023683 1.165146 0
M  V30 8 C 4.073990 -0.536215 1.326969 0
M  V30 9 C 4.489863 0.751283 1.096972 0
M  V30 10 C 3.553192 1.659470 0.666272 0
M  V30 11 C 3.934024 2.963472 0.441149 0
M  V30 12 C 2.949362 3.834718 0.025050 0
M  V30 13 C 1.653800 3.354488 -0.141058 0
M  V30 14 C 1.288227 2.023814 0.092491 0
M  V30 15 O -0.029662 1.871812 -0.158672 0
M  V30 16 C -0.834039 0.746833 -0.184326 0
M  V30 17 C -1.721286 0.609231 1.031012 0
M  V30 18 C -2.996586 1.407227 0.894858 0
M  V30 19 N -4.082193 0.550665 0.391798 0
M  V30 20 C -4.023199 0.596315 -1.037545 0
M  V30 21 C -2.785192 -0.176838 -1.471714 0
M  V30 22 C -1.631480 0.774534 -1.466099 0
M  V30 23 F -0.760083 0.453722 -2.495400 0
M  V30 24 C 2.278540 1.176419 0.506949 0
M  V30 25 N 1.903410 -0.092202 0.741762 0
M  V30 26 N 3.577802 -3.273920 1.869469 0
M  V30 27 N 3.085548 -4.458113 2.161061 0
M  V30 28 C 1.748347 -4.438380 2.023903 0
M  V30 29 C 0.763623 -5.383963 2.207627 0
M  V30 30 H -2.139188 -5.961690 3.199779 0
M  V30 31 H -2.477211 -5.801137 1.469721 0
M  V30 32 H -1.330346 -7.090476 2.059682 0
M  V30 33 H -1.862477 -3.524037 1.436333 0
M  V30 34 H -0.081452 -1.916962 1.148867 0
M  V30 35 H 4.908700 -1.174185 1.667612 0
M  V30 36 H 5.503928 1.084322 1.235632 0
M  V30 37 H 4.968380 3.237634 0.598414 0
M  V30 38 H 3.267646 4.850633 -0.144661 0
M  V30 39 H 1.001037 4.160135 -0.470474 0
M  V30 40 H -0.216843 -0.165136 -0.224088 0
M  V30 41 H -1.970222 -0.441879 1.211116 0
M  V30 42 H -1.143145 0.974537 1.904337 0
M  V30 43 H -3.310434 1.713271 1.913877 0
M  V30 44 H -2.883001 2.307728 0.273513 0
M  V30 45 H -5.011876 0.897325 0.698821 0
M  V30 46 H -4.935530 0.212602 -1.531944 0
M  V30 47 H -3.950189 1.661866 -1.342586 0
M  V30 48 H -2.903513 -0.529362 -2.538002 0
M  V30 49 H -2.644162 -1.073111 -0.819286 0
M  V30 50 H -2.016607 1.819067 -1.610559 0
M  V30 51 H 1.011551 -6.390132 2.519774 0
M  V30 END ATOM
M  V30 BEGIN BOND
M  V30 1 1 1 2
M  V30 2 1 2 3
M  V30 3 2 3 4
M  V30 4 1 4 5
M  V30 5 1 5 6
M  V30 6 1 6 7
M  V30 7 2 7 8
M  V30 8 1 8 9
M  V30 9 2 9 10
M  V30 10 1 10 11
M  V30 11 2 11 12
M  V30 12 1 12 13
M  V30 13 2 13 14
M  V30 14 1 14 15
M  V30 15 1 15 16
M  V30 16 1 16 17
M  V30 17 1 17 18
M  V30 18 1 18 19
M  V30 19 1 19 20
M  V30 20 1 20 21
M  V30 21 1 21 22
M  V30 22 1 22 23
M  V30 23 1 14 24
M  V30 24 2 24 25
M  V30 25 2 6 26
M  V30 26 1 26 27
M  V30 27 2 27 28
M  V30 28 1 28 29
M  V30 29 2 29 2
M  V30 30 1 28 5
M  V30 31 1 25 7
M  V30 32 1 24 10
M  V30 33 1 22 16
M  V30 34 1 1 30
M  V30 35 1 1 31
M  V30 36 1 1 32
M  V30 37 1 3 33
M  V30 38 1 4 34
M  V30 39 1 8 35
M  V30 40 1 9 36
M  V30 41 1 11 37
M  V30 42 1 12 38
M  V30 43 1 13 39
M  V30 44 1 16 40
M  V30 45 1 17 41
M  V30 46 1 17 42
M  V30 47 1 18 43
M  V30 48 1 18 44
M  V30 49 1 19 45
M  V30 50 1 20 46
M  V30 51 1 20 47
M  V30 52 1 21 48
M  V30 53 1 21 49
M  V30 54 1 22 50
M  V30 55 1 29 51
M  V30 END BOND
M  V30 END CTAB
M  END
>  <Dataset>  (546) 
ChEMBL_Kinases

>  <Ligand_Instance>  (546) 
nan

>  <PDB_ID>  (546) 
nan

>  <Standardized_SMILES>  (546) 
Cc1ccn2c(-c3ccc4cccc(OC5CCNCCC5F)c4n3)nnc2c1

>  <Name>  (546) 
nan

>  <Pocket>  (546) 
nan

>  <ATP_Site>  (546) 
nan

>  <Peripheral>  (546) 
nan

>  <Num_H_Atoms_ProtBoundConf>  (546) 
nan

>  <Num_Resolved_Atoms>  (546) 
nan

>  <Num_Not_Resolved_Atoms>  (546) 
nan

$$$$
CHEMBL3590111
     RDKit          3D

  0  0  0  0  0  0  0  0  0  0999 V3000
M  V30 BEGIN CTAB
M  V30 COUNTS 37 39 0 0 0
M  V30 BEGIN ATOM
M  V30 1 C -0.569638 -2.614690 3.270616 0
M  V30 2 C 0.421990 -3.501510 3.186386 0
M  V30 3 S 2.039180 -2.854465 2.963276 0
M  V30 4 O 3.087734 -3.848014 3.327555 0
M  V30 5 O 2.155145 -1.693280 3.918528 0
M  V30 6 N 2.301115 -2.270928 1.394534 0
M  V30 7 C 2.183703 -3.255698 0.361862 0
M  V30 8 C 2.653661 -2.813494 -0.981452 0
M  V30 9 C 1.718321 -1.702185 -1.390765 0
M  V30 10 N 1.128295 -1.185145 -2.481634 0
M  V30 11 N 0.387688 -0.156598 -2.132080 0
M  V30 12 C 0.461812 0.044493 -0.790258 0
M  V30 13 C -0.300572 1.155363 -0.193403 0
M  V30 14 C 0.221646 2.026648 0.741690 0
M  V30 15 C -0.528223 3.054296 1.275459 0
M  V30 16 N -1.820154 3.218793 0.872587 0
M  V30 17 C -2.347501 2.363845 -0.051168 0
M  V30 18 C -3.779396 2.691794 -0.377613 0
M  V30 19 C -1.628207 1.335954 -0.597890 0
M  V30 20 C 1.320024 -0.949670 -0.300004 0
M  V30 21 C 1.641090 -1.042276 1.148999 0
M  V30 22 H -1.080867 -1.638463 3.292812 0
M  V30 23 H -1.071302 -1.656193 3.292375 0
M  V30 24 H -0.002451 -4.495280 3.278765 0
M  V30 25 H 1.090588 -3.472674 0.271014 0
M  V30 26 H 2.638614 -4.209778 0.696670 0
M  V30 27 H 2.508474 -3.674000 -1.674650 0
M  V30 28 H 3.678539 -2.443059 -1.017006 0
M  V30 29 H 1.312012 -1.627471 -3.416091 0
M  V30 30 H 1.247195 1.892323 1.058460 0
M  V30 31 H -0.048955 3.709689 2.014875 0
M  V30 32 H -3.887849 3.644055 -0.903471 0
M  V30 33 H -4.116933 1.873294 -1.047051 0
M  V30 34 H -4.365999 2.620460 0.566571 0
M  V30 35 H -2.124488 0.721247 -1.310844 0
M  V30 36 H 2.356126 -0.207784 1.401821 0
M  V30 37 H 0.717229 -0.996026 1.773497 0
M  V30 END ATOM
M  V30 BEGIN BOND
M  V30 1 2 1 2
M  V30 2 1 2 3
M  V30 3 2 3 4
M  V30 4 2 3 5
M  V30 5 1 3 6
M  V30 6 1 6 7
M  V30 7 1 7 8
M  V30 8 1 8 9
M  V30 9 1 9 10
M  V30 10 1 10 11
M  V30 11 2 11 12
M  V30 12 1 12 13
M  V30 13 2 13 14
M  V30 14 1 14 15
M  V30 15 2 15 16
M  V30 16 1 16 17
M  V30 17 1 17 18
M  V30 18 2 17 19
M  V30 19 1 12 20
M  V30 20 1 20 21
M  V30 21 1 21 6
M  V30 22 2 20 9
M  V30 23 1 19 13
M  V30 24 1 1 22
M  V30 25 1 1 23
M  V30 26 1 2 24
M  V30 27 1 7 25
M  V30 28 1 7 26
M  V30 29 1 8 27
M  V30 30 1 8 28
M  V30 31 1 10 29
M  V30 32 1 14 30
M  V30 33 1 15 31
M  V30 34 1 18 32
M  V30 35 1 18 33
M  V30 36 1 18 34
M  V30 37 1 19 35
M  V30 38 1 21 36
M  V30 39 1 21 37
M  V30 END BOND
M  V30 END CTAB
M  END
>  <Dataset>  (547) 
ChEMBL_Kinases

>  <Ligand_Instance>  (547) 
nan

>  <PDB_ID>  (547) 
nan

>  <Standardized_SMILES>  (547) 
C=CS(=O)(=O)N1CCc2[nH]nc(-c3ccnc(C)c3)c2C1

>  <Name>  (547) 
nan

>  <Pocket>  (547) 
nan

>  <ATP_Site>  (547) 
nan

>  <Peripheral>  (547) 
nan

>  <Num_H_Atoms_ProtBoundConf>  (547) 
nan

>  <Num_Resolved_Atoms>  (547) 
nan

>  <Num_Not_Resolved_Atoms>  (547) 
nan

$$$$
CHEMBL385907
     RDKit          3D

  0  0  0  0  0  0  0  0  0  0999 V3000
M  V30 BEGIN CTAB
M  V30 COUNTS 55 57 0 0 0
M  V30 BEGIN ATOM
M  V30 1 C 2.385781 1.738043 6.385442 0
M  V30 2 C 2.727879 0.287245 6.549404 0
M  V30 3 N 2.736487 -0.443311 5.277903 0
M  V30 4 C 3.644543 -0.003435 4.278383 0
M  V30 5 O 4.446116 0.960217 4.384203 0
M  V30 6 N 3.725158 -0.646330 3.018477 0
M  V30 7 C 4.689607 -0.119620 2.057844 0
M  V30 8 C 4.430518 -0.690059 0.661591 0
M  V30 9 C 2.945339 -0.549541 0.401644 0
M  V30 10 N 2.668700 -1.034531 -0.951631 0
M  V30 11 C 1.311209 -0.981317 -1.381340 0
M  V30 12 N 0.360732 -0.498671 -0.546942 0
M  V30 13 C -0.933756 -0.439386 -0.933914 0
M  V30 14 C -1.304879 -0.871533 -2.189012 0
M  V30 15 C -2.665742 -0.856581 -2.710294 0
M  V30 16 O -2.885928 -1.282400 -3.850432 0
M  V30 17 C -3.904309 -0.415928 -2.131694 0
M  V30 18 C -4.071798 0.775144 -1.453113 0
M  V30 19 C -5.245179 1.229414 -0.887806 0
M  V30 20 C -6.362629 0.429429 -1.003863 0
M  V30 21 C -6.275719 -0.758367 -1.658545 0
M  V30 22 C -5.070337 -1.185425 -2.218222 0
M  V30 23 O -4.973062 -2.396566 -2.888235 0
M  V30 24 C -6.104296 -3.233297 -3.020005 0
M  V30 25 C -0.345206 -1.365214 -3.047528 0
M  V30 26 N -0.599378 -1.843394 -4.370445 0
M  V30 27 N 0.947221 -1.402882 -2.606385 0
M  V30 28 C 2.132026 -1.350464 1.361997 0
M  V30 29 C 2.956849 -1.784454 2.550511 0
M  V30 30 H 1.556426 2.083584 7.063262 0
M  V30 31 H 3.265792 2.382361 6.660226 0
M  V30 32 H 2.100814 2.038353 5.364894 0
M  V30 33 H 1.938655 -0.151075 7.221065 0
M  V30 34 H 3.678660 0.166341 7.100492 0
M  V30 35 H 2.093547 -1.252987 5.129759 0
M  V30 36 H 4.721862 0.975878 2.039134 0
M  V30 37 H 5.688103 -0.476697 2.393197 0
M  V30 38 H 4.755317 -1.734918 0.586220 0
M  V30 39 H 4.979717 -0.064743 -0.064604 0
M  V30 40 H 2.681153 0.505202 0.472758 0
M  V30 41 H 3.385611 -1.411644 -1.615532 0
M  V30 42 H -1.696953 -0.058794 -0.278090 0
M  V30 43 H -3.227434 1.440428 -1.335494 0
M  V30 44 H -5.303628 2.170489 -0.371962 0
M  V30 45 H -7.291141 0.758666 -0.572607 0
M  V30 46 H -7.169243 -1.362962 -1.732858 0
M  V30 47 H -6.633224 -3.306240 -2.039275 0
M  V30 48 H -6.782226 -2.865396 -3.830297 0
M  V30 49 H -5.794810 -4.262330 -3.292453 0
M  V30 50 H -1.202502 -2.609898 -4.780885 0
M  V30 51 H -0.155456 -1.435813 -5.228845 0
M  V30 52 H 1.664441 -2.253607 0.882391 0
M  V30 53 H 1.300514 -0.726099 1.741875 0
M  V30 54 H 3.701394 -2.535868 2.168518 0
M  V30 55 H 2.323746 -2.219952 3.348367 0
M  V30 END ATOM
M  V30 BEGIN BOND
M  V30 1 1 1 2
M  V30 2 1 2 3
M  V30 3 1 3 4
M  V30 4 2 4 5
M  V30 5 1 4 6
M  V30 6 1 6 7
M  V30 7 1 7 8
M  V30 8 1 8 9
M  V30 9 1 9 10
M  V30 10 1 10 11
M  V30 11 2 11 12
M  V30 12 1 12 13
M  V30 13 2 13 14
M  V30 14 1 14 15
M  V30 15 2 15 16
M  V30 16 1 15 17
M  V30 17 2 17 18
M  V30 18 1 18 19
M  V30 19 2 19 20
M  V30 20 1 20 21
M  V30 21 2 21 22
M  V30 22 1 22 23
M  V30 23 1 23 24
M  V30 24 1 14 25
M  V30 25 1 25 26
M  V30 26 2 25 27
M  V30 27 1 9 28
M  V30 28 1 28 29
M  V30 29 1 29 6
M  V30 30 1 27 11
M  V30 31 1 22 17
M  V30 32 1 1 30
M  V30 33 1 1 31
M  V30 34 1 1 32
M  V30 35 1 2 33
M  V30 36 1 2 34
M  V30 37 1 3 35
M  V30 38 1 7 36
M  V30 39 1 7 37
M  V30 40 1 8 38
M  V30 41 1 8 39
M  V30 42 1 9 40
M  V30 43 1 10 41
M  V30 44 1 13 42
M  V30 45 1 18 43
M  V30 46 1 19 44
M  V30 47 1 20 45
M  V30 48 1 21 46
M  V30 49 1 24 47
M  V30 50 1 24 48
M  V30 51 1 24 49
M  V30 52 1 26 50
M  V30 53 1 26 51
M  V30 54 1 28 52
M  V30 55 1 28 53
M  V30 56 1 29 54
M  V30 57 1 29 55
M  V30 END BOND
M  V30 END CTAB
M  END
>  <Dataset>  (548) 
ChEMBL_Kinases

>  <Ligand_Instance>  (548) 
nan

>  <PDB_ID>  (548) 
nan

>  <Standardized_SMILES>  (548) 
CCNC(=O)N1CCC(Nc2ncc(C(=O)c3ccccc3OC)c(N)n2)CC1

>  <Name>  (548) 
nan

>  <Pocket>  (548) 
nan

>  <ATP_Site>  (548) 
nan

>  <Peripheral>  (548) 
nan

>  <Num_H_Atoms_ProtBoundConf>  (548) 
nan

>  <Num_Resolved_Atoms>  (548) 
nan

>  <Num_Not_Resolved_Atoms>  (548) 
nan

$$$$
CHEMBL386010
     RDKit          3D

  0  0  0  0  0  0  0  0  0  0999 V3000
M  V30 BEGIN CTAB
M  V30 COUNTS 52 53 0 0 0
M  V30 BEGIN ATOM
M  V30 1 C -0.799993 -0.695488 3.846861 0
M  V30 2 C 0.404098 -1.586968 3.861072 0
M  V30 3 O 0.289047 -2.175312 4.975228 0
M  V30 4 N 1.464434 -1.777798 2.889788 0
M  V30 5 C 2.319392 -2.762835 3.485331 0
M  V30 6 C 3.500080 -3.116155 2.622072 0
M  V30 7 N 3.075705 -3.677148 1.393986 0
M  V30 8 C 2.464321 -3.452820 0.141347 0
M  V30 9 N 2.102796 -2.191352 -0.127237 0
M  V30 10 C 1.534873 -1.732942 -1.229904 0
M  V30 11 C 1.162234 -0.343920 -1.477131 0
M  V30 12 O 0.615771 0.007334 -2.562978 0
M  V30 13 N 1.391266 0.680742 -0.519915 0
M  V30 14 C 1.068583 2.083712 -0.647344 0
M  V30 15 C -0.368301 2.335090 -0.454801 0
M  V30 16 C -1.368803 2.362550 -1.401361 0
M  V30 17 C -2.685316 2.608631 -1.080706 0
M  V30 18 C -3.080274 2.845480 0.231506 0
M  V30 19 S -4.757232 3.145194 0.549896 0
M  V30 20 C -5.640501 1.631429 0.889351 0
M  V30 21 O -5.405134 3.761074 -0.655499 0
M  V30 22 O -4.893508 4.091556 1.707062 0
M  V30 23 C -2.105317 2.826336 1.209950 0
M  V30 24 C -0.799080 2.576570 0.850334 0
M  V30 25 C 1.282003 -2.652964 -2.223028 0
M  V30 26 C 1.630848 -3.966663 -2.007284 0
M  V30 27 N 1.434975 -5.047588 -2.941577 0
M  V30 28 C 2.217985 -4.386398 -0.843141 0
M  V30 29 C 2.603380 -5.738818 -0.560321 0
M  V30 30 N 2.908101 -6.829535 -0.328276 0
M  V30 31 H -0.773467 -0.150216 2.873501 0
M  V30 32 H -1.750327 -1.278583 3.875004 0
M  V30 33 H -0.813923 0.014181 4.684769 0
M  V30 34 H 1.151937 -1.106017 2.159478 0
M  V30 35 H 2.723208 -2.344397 4.457864 0
M  V30 36 H 1.758923 -3.681898 3.783045 0
M  V30 37 H 4.265176 -3.694883 3.164318 0
M  V30 38 H 4.015978 -2.124254 2.426033 0
M  V30 39 H 3.322742 -4.717460 1.443367 0
M  V30 40 H 1.853161 0.326311 0.370799 0
M  V30 41 H 1.635723 2.638790 0.121532 0
M  V30 42 H 1.416591 2.501519 -1.619154 0
M  V30 43 H -1.044938 2.177947 -2.418352 0
M  V30 44 H -3.378490 2.604008 -1.913223 0
M  V30 45 H -4.922705 0.910737 1.305067 0
M  V30 46 H -6.508152 1.844993 1.522991 0
M  V30 47 H -6.034224 1.212749 -0.055871 0
M  V30 48 H -2.384225 3.006507 2.232540 0
M  V30 49 H -0.068115 2.572825 1.665718 0
M  V30 50 H 0.823709 -2.419446 -3.173389 0
M  V30 51 H 0.539314 -5.578829 -2.750529 0
M  V30 52 H 1.970009 -5.432123 -3.765101 0
M  V30 END ATOM
M  V30 BEGIN BOND
M  V30 1 1 1 2
M  V30 2 2 2 3
M  V30 3 1 2 4
M  V30 4 1 4 5
M  V30 5 1 5 6
M  V30 6 1 6 7
M  V30 7 1 7 8
M  V30 8 2 8 9
M  V30 9 1 9 10
M  V30 10 1 10 11
M  V30 11 2 11 12
M  V30 12 1 11 13
M  V30 13 1 13 14
M  V30 14 1 14 15
M  V30 15 2 15 16
M  V30 16 1 16 17
M  V30 17 2 17 18
M  V30 18 1 18 19
M  V30 19 1 19 20
M  V30 20 2 19 21
M  V30 21 2 19 22
M  V30 22 1 18 23
M  V30 23 2 23 24
M  V30 24 2 10 25
M  V30 25 1 25 26
M  V30 26 1 26 27
M  V30 27 2 26 28
M  V30 28 1 28 29
M  V30 29 3 29 30
M  V30 30 1 28 8
M  V30 31 1 24 15
M  V30 32 1 1 31
M  V30 33 1 1 32
M  V30 34 1 1 33
M  V30 35 1 4 34
M  V30 36 1 5 35
M  V30 37 1 5 36
M  V30 38 1 6 37
M  V30 39 1 6 38
M  V30 40 1 7 39
M  V30 41 1 13 40
M  V30 42 1 14 41
M  V30 43 1 14 42
M  V30 44 1 16 43
M  V30 45 1 17 44
M  V30 46 1 20 45
M  V30 47 1 20 46
M  V30 48 1 20 47
M  V30 49 1 23 48
M  V30 50 1 24 49
M  V30 51 1 25 50
M  V30 52 1 27 51
M  V30 53 1 27 52
M  V30 END BOND
M  V30 END CTAB
M  END
>  <Dataset>  (549) 
ChEMBL_Kinases

>  <Ligand_Instance>  (549) 
nan

>  <PDB_ID>  (549) 
nan

>  <Standardized_SMILES>  (549) 
CC(=O)NCCNc1nc(C(=O)NCc2ccc(S(C)(=O)=O)cc2)cc(N)c1C#N

>  <Name>  (549) 
nan

>  <Pocket>  (549) 
nan

>  <ATP_Site>  (549) 
nan

>  <Peripheral>  (549) 
nan

>  <Num_H_Atoms_ProtBoundConf>  (549) 
nan

>  <Num_Resolved_Atoms>  (549) 
nan

>  <Num_Not_Resolved_Atoms>  (549) 
nan

$$$$
CHEMBL4084102
     RDKit          3D

  0  0  0  0  0  0  0  0  0  0999 V3000
M  V30 BEGIN CTAB
M  V30 COUNTS 33 35 0 0 0
M  V30 BEGIN ATOM
M  V30 1 C -0.271912 -1.994222 2.582170 0
M  V30 2 C 0.537917 -2.616644 1.462455 0
M  V30 3 C -0.183804 -3.701466 0.744321 0
M  V30 4 N 1.797382 -3.081978 1.996774 0
M  V30 5 C 2.852719 -2.285190 1.425305 0
M  V30 6 O 4.102041 -2.353921 1.633489 0
M  V30 7 C 2.270679 -1.301605 0.498073 0
M  V30 8 C 2.680900 -0.293503 -0.339071 0
M  V30 9 Cl 4.412247 0.007470 -0.396387 0
M  V30 10 C 1.763508 0.439476 -1.090367 0
M  V30 11 C 0.393098 0.154083 -1.001307 0
M  V30 12 N -0.537470 0.930635 -1.777312 0
M  V30 13 C -1.414713 1.508593 -0.815869 0
M  V30 14 C -1.068006 2.420594 0.175789 0
M  V30 15 C -2.065372 2.896886 1.027895 0
M  V30 16 N -3.312614 2.445377 0.843592 0
M  V30 17 C -3.680922 1.577020 -0.090093 0
M  V30 18 N -2.716270 1.120794 -0.909724 0
M  V30 19 C 0.024212 -0.872218 -0.143939 0
M  V30 20 O -1.222198 -1.043689 -0.141955 0
M  V30 21 N 0.954241 -1.541914 0.554406 0
M  V30 22 H 0.348310 -1.162768 2.988568 0
M  V30 23 H -1.188638 -1.553003 2.173646 0
M  V30 24 H -0.442289 -2.750264 3.360214 0
M  V30 25 H -1.266067 -3.618493 1.050898 0
M  V30 26 H -0.126340 -3.570325 -0.353650 0
M  V30 27 H 0.172786 -4.713337 1.018908 0
M  V30 28 H 1.936211 -3.863394 2.678254 0
M  V30 29 H 2.136473 1.230604 -1.739280 0
M  V30 30 H -0.536419 1.018711 -2.817381 0
M  V30 31 H -0.019220 2.645199 0.150375 0
M  V30 32 H -1.667357 3.581005 1.737554 0
M  V30 33 H -4.722134 1.359418 -0.051243 0
M  V30 END ATOM
M  V30 BEGIN BOND
M  V30 1 1 1 2
M  V30 2 1 2 3
M  V30 3 1 2 4
M  V30 4 1 4 5
M  V30 5 2 5 6
M  V30 6 1 5 7
M  V30 7 2 7 8
M  V30 8 1 8 9
M  V30 9 1 8 10
M  V30 10 2 10 11
M  V30 11 1 11 12
M  V30 12 1 12 13
M  V30 13 2 13 14
M  V30 14 1 14 15
M  V30 15 2 15 16
M  V30 16 1 16 17
M  V30 17 2 17 18
M  V30 18 1 11 19
M  V30 19 2 19 20
M  V30 20 1 19 21
M  V30 21 1 21 2
M  V30 22 1 21 7
M  V30 23 1 18 13
M  V30 24 1 1 22
M  V30 25 1 1 23
M  V30 26 1 1 24
M  V30 27 1 3 25
M  V30 28 1 3 26
M  V30 29 1 3 27
M  V30 30 1 4 28
M  V30 31 1 10 29
M  V30 32 1 12 30
M  V30 33 1 14 31
M  V30 34 1 15 32
M  V30 35 1 17 33
M  V30 END BOND
M  V30 END CTAB
M  END
>  <Dataset>  (550) 
ChEMBL_Kinases

>  <Ligand_Instance>  (550) 
nan

>  <PDB_ID>  (550) 
nan

>  <Standardized_SMILES>  (550) 
CC1(C)NC(=O)c2c(Cl)cc(Nc3ccncn3)c(=O)n21

>  <Name>  (550) 
nan

>  <Pocket>  (550) 
nan

>  <ATP_Site>  (550) 
nan

>  <Peripheral>  (550) 
nan

>  <Num_H_Atoms_ProtBoundConf>  (550) 
nan

>  <Num_Resolved_Atoms>  (550) 
nan

>  <Num_Not_Resolved_Atoms>  (550) 
nan

$$$$
CHEMBL4083927
     RDKit          3D

  0  0  0  0  0  0  0  0  0  0999 V3000
M  V30 BEGIN CTAB
M  V30 COUNTS 39 42 0 0 0
M  V30 BEGIN ATOM
M  V30 1 C -0.332698 -6.240199 1.932620 0
M  V30 2 C 1.054487 -5.765084 1.848980 0
M  V30 3 N 2.130987 -6.531233 2.102778 0
M  V30 4 N 3.226507 -5.808886 1.939062 0
M  V30 5 C 2.940665 -4.524622 1.568017 0
M  V30 6 C 1.569392 -4.540403 1.523353 0
M  V30 7 C 0.790044 -3.374572 1.168118 0
M  V30 8 C 1.049710 -2.060558 0.808049 0
M  V30 9 C 0.025895 -1.222499 0.536268 0
M  V30 10 N 0.050996 0.051666 0.178929 0
M  V30 11 C -1.047657 0.781847 -0.065333 0
M  V30 12 C -0.869930 2.205862 -0.459556 0
M  V30 13 N -0.839435 3.154079 0.584362 0
M  V30 14 C -0.658898 4.461755 -0.034082 0
M  V30 15 C 0.842522 4.496117 -0.309400 0
M  V30 16 C 1.456417 3.527443 0.687386 0
M  V30 17 C 0.262227 3.114010 1.473437 0
M  V30 18 N -2.305063 0.308679 0.023117 0
M  V30 19 C -2.479220 -0.964126 0.374796 0
M  V30 20 O -3.526712 -1.627295 0.524111 0
M  V30 21 C -1.359620 -1.707880 0.623596 0
M  V30 22 S -1.097792 -3.502840 1.137302 0
M  V30 23 H -0.866235 -5.736051 2.768995 0
M  V30 24 H -0.395373 -7.318465 2.120551 0
M  V30 25 H -0.884492 -6.038736 0.987599 0
M  V30 26 H 4.210928 -6.173635 2.076781 0
M  V30 27 H 3.575260 -3.698664 1.358687 0
M  V30 28 H 2.084328 -1.795561 0.770228 0
M  V30 29 H -1.705903 2.471017 -1.141126 0
M  V30 30 H 0.036721 2.244918 -1.131781 0
M  V30 31 H -0.982849 5.288595 0.614699 0
M  V30 32 H -1.176818 4.453016 -1.013879 0
M  V30 33 H 1.074352 4.191802 -1.355038 0
M  V30 34 H 1.247414 5.517594 -0.163270 0
M  V30 35 H 1.989932 2.696524 0.188650 0
M  V30 36 H 2.221426 4.031362 1.338928 0
M  V30 37 H 0.084401 3.946412 2.217727 0
M  V30 38 H 0.370200 2.217419 2.097009 0
M  V30 39 H -3.179152 0.830388 -0.154555 0
M  V30 END ATOM
M  V30 BEGIN BOND
M  V30 1 1 1 2
M  V30 2 2 2 3
M  V30 3 1 3 4
M  V30 4 1 4 5
M  V30 5 2 5 6
M  V30 6 1 6 7
M  V30 7 2 7 8
M  V30 8 1 8 9
M  V30 9 1 9 10
M  V30 10 2 10 11
M  V30 11 1 11 12
M  V30 12 1 12 13
M  V30 13 1 13 14
M  V30 14 1 14 15
M  V30 15 1 15 16
M  V30 16 1 16 17
M  V30 17 1 11 18
M  V30 18 1 18 19
M  V30 19 2 19 20
M  V30 20 1 19 21
M  V30 21 1 21 22
M  V30 22 1 6 2
M  V30 23 1 22 7
M  V30 24 2 21 9
M  V30 25 1 17 13
M  V30 26 1 1 23
M  V30 27 1 1 24
M  V30 28 1 1 25
M  V30 29 1 4 26
M  V30 30 1 5 27
M  V30 31 1 8 28
M  V30 32 1 12 29
M  V30 33 1 12 30
M  V30 34 1 14 31
M  V30 35 1 14 32
M  V30 36 1 15 33
M  V30 37 1 15 34
M  V30 38 1 16 35
M  V30 39 1 16 36
M  V30 40 1 17 37
M  V30 41 1 17 38
M  V30 42 1 18 39
M  V30 END BOND
M  V30 END CTAB
M  END
>  <Dataset>  (551) 
ChEMBL_Kinases

>  <Ligand_Instance>  (551) 
nan

>  <PDB_ID>  (551) 
nan

>  <Standardized_SMILES>  (551) 
Cc1n[nH]cc1-c1cc2nc(CN3CCCC3)[nH]c(=O)c2s1

>  <Name>  (551) 
nan

>  <Pocket>  (551) 
nan

>  <ATP_Site>  (551) 
nan

>  <Peripheral>  (551) 
nan

>  <Num_H_Atoms_ProtBoundConf>  (551) 
nan

>  <Num_Resolved_Atoms>  (551) 
nan

>  <Num_Not_Resolved_Atoms>  (551) 
nan

$$$$
CHEMBL3586468
     RDKit          3D

  0  0  0  0  0  0  0  0  0  0999 V3000
M  V30 BEGIN CTAB
M  V30 COUNTS 49 53 0 0 0
M  V30 BEGIN ATOM
M  V30 1 O 6.595295 -3.015769 2.558345 0
M  V30 2 C 6.949671 -1.968598 1.922322 0
M  V30 3 O 8.316374 -1.839584 1.937049 0
M  V30 4 C 5.987658 -1.065195 1.284714 0
M  V30 5 C 6.348805 0.053339 0.603690 0
M  V30 6 C 5.402255 0.848578 0.036248 0
M  V30 7 C 4.048533 0.600908 0.098881 0
M  V30 8 N 3.122796 1.470542 -0.525831 0
M  V30 9 C 1.707228 1.469605 -0.441209 0
M  V30 10 N 1.009275 2.345690 -1.184162 0
M  V30 11 C -0.323377 2.459098 -1.195592 0
M  V30 12 C -1.058433 1.623329 -0.391191 0
M  V30 13 C -0.373749 0.711470 0.385539 0
M  V30 14 N 0.969908 0.642676 0.355689 0
M  V30 15 C -0.964582 -0.258550 1.306066 0
M  V30 16 C -0.071148 -0.623379 2.290877 0
M  V30 17 C -0.521980 -1.541299 3.216861 0
M  V30 18 C -1.815497 -2.068405 3.154258 0
M  V30 19 Cl -2.360607 -3.232940 4.344663 0
M  V30 20 C -2.700133 -1.677827 2.141869 0
M  V30 21 C -2.262631 -0.760422 1.208785 0
M  V30 22 C -3.305308 -0.455628 0.227373 0
M  V30 23 C -4.324090 -1.484317 0.038842 0
M  V30 24 C -4.042498 -2.672562 -0.603662 0
M  V30 25 C -5.067547 -3.576611 -0.732047 0
M  V30 26 C -6.320589 -3.256782 -0.216822 0
M  V30 27 C -6.589048 -2.064021 0.423966 0
M  V30 28 C -5.534088 -1.150263 0.548353 0
M  V30 29 F -5.824312 -0.000061 1.175508 0
M  V30 30 N -3.316707 0.662491 -0.426939 0
M  V30 31 C -2.524185 1.842256 -0.495724 0
M  V30 32 C 3.748756 -0.544149 0.800499 0
M  V30 33 C 4.657026 -1.389670 1.397204 0
M  V30 34 H 8.908829 -2.116974 2.718057 0
M  V30 35 H 7.404895 0.310008 0.514860 0
M  V30 36 H 5.762161 1.736610 -0.499684 0
M  V30 37 H 3.553125 2.217277 -1.135251 0
M  V30 38 H -0.811168 3.190779 -1.822740 0
M  V30 39 H 0.908105 -0.169709 2.274886 0
M  V30 40 H 0.156612 -1.846534 4.000946 0
M  V30 41 H -3.706195 -2.049433 2.043277 0
M  V30 42 H -3.041135 -2.842092 -0.974945 0
M  V30 43 H -4.883148 -4.522970 -1.232113 0
M  V30 44 H -7.099325 -3.992140 -0.337601 0
M  V30 45 H -7.582362 -1.875426 0.801720 0
M  V30 46 H -2.857683 2.559343 0.301968 0
M  V30 47 H -2.726667 2.317883 -1.488180 0
M  V30 48 H 2.713707 -0.831936 0.901890 0
M  V30 49 H 4.330077 -2.276086 1.934087 0
M  V30 END ATOM
M  V30 BEGIN BOND
M  V30 1 2 1 2
M  V30 2 1 2 3
M  V30 3 1 2 4
M  V30 4 2 4 5
M  V30 5 1 5 6
M  V30 6 2 6 7
M  V30 7 1 7 8
M  V30 8 1 8 9
M  V30 9 2 9 10
M  V30 10 1 10 11
M  V30 11 2 11 12
M  V30 12 1 12 13
M  V30 13 2 13 14
M  V30 14 1 13 15
M  V30 15 2 15 16
M  V30 16 1 16 17
M  V30 17 2 17 18
M  V30 18 1 18 19
M  V30 19 1 18 20
M  V30 20 2 20 21
M  V30 21 1 21 22
M  V30 22 1 22 23
M  V30 23 2 23 24
M  V30 24 1 24 25
M  V30 25 2 25 26
M  V30 26 1 26 27
M  V30 27 2 27 28
M  V30 28 1 28 29
M  V30 29 2 22 30
M  V30 30 1 30 31
M  V30 31 1 7 32
M  V30 32 2 32 33
M  V30 33 1 33 4
M  V30 34 1 14 9
M  V30 35 1 21 15
M  V30 36 1 28 23
M  V30 37 1 31 12
M  V30 38 1 3 34
M  V30 39 1 5 35
M  V30 40 1 6 36
M  V30 41 1 8 37
M  V30 42 1 11 38
M  V30 43 1 16 39
M  V30 44 1 17 40
M  V30 45 1 20 41
M  V30 46 1 24 42
M  V30 47 1 25 43
M  V30 48 1 26 44
M  V30 49 1 27 45
M  V30 50 1 31 46
M  V30 51 1 31 47
M  V30 52 1 32 48
M  V30 53 1 33 49
M  V30 END BOND
M  V30 END CTAB
M  END
>  <Dataset>  (552) 
ChEMBL_Kinases

>  <Ligand_Instance>  (552) 
nan

>  <PDB_ID>  (552) 
nan

>  <Standardized_SMILES>  (552) 
O=C(O)c1ccc(Nc2ncc3c(n2)-c2ccc(Cl)cc2C(c2ccccc2F)=NC3)cc1

>  <Name>  (552) 
nan

>  <Pocket>  (552) 
nan

>  <ATP_Site>  (552) 
nan

>  <Peripheral>  (552) 
nan

>  <Num_H_Atoms_ProtBoundConf>  (552) 
nan

>  <Num_Resolved_Atoms>  (552) 
nan

>  <Num_Not_Resolved_Atoms>  (552) 
nan

$$$$
CHEMBL386048
     RDKit          3D

  0  0  0  0  0  0  0  0  0  0999 V3000
M  V30 BEGIN CTAB
M  V30 COUNTS 38 42 0 0 0
M  V30 BEGIN ATOM
M  V30 1 O 2.263543 2.326708 1.973496 0
M  V30 2 C 1.998329 1.110611 2.079734 0
M  V30 3 N 2.532213 0.165062 3.013962 0
M  V30 4 C 1.935023 -1.092531 2.752233 0
M  V30 5 O 2.287426 -2.034989 3.476584 0
M  V30 6 C 1.006052 -1.006279 1.654087 0
M  V30 7 C 1.071956 0.315564 1.282731 0
M  V30 8 C 0.289496 0.775051 0.226906 0
M  V30 9 C 0.316958 2.166044 -0.212069 0
M  V30 10 C 1.244107 2.509898 -1.200674 0
M  V30 11 Cl 2.326514 1.341692 -1.889110 0
M  V30 12 C 1.324241 3.822730 -1.666824 0
M  V30 13 C 0.452238 4.742375 -1.105838 0
M  V30 14 C -0.479621 4.455119 -0.129521 0
M  V30 15 O -1.315074 5.437879 0.377789 0
M  V30 16 C -0.530560 3.131043 0.312047 0
M  V30 17 Cl -1.687271 2.685783 1.550253 0
M  V30 18 C -0.547000 -0.092698 -0.442078 0
M  V30 19 C -0.583916 -1.409819 -0.038963 0
M  V30 20 N -1.303683 -2.437764 -0.519427 0
M  V30 21 C -0.968294 -3.525653 0.234553 0
M  V30 22 C -1.468905 -4.801806 0.090245 0
M  V30 23 C -1.040234 -5.811313 0.925050 0
M  V30 24 C -0.093502 -5.460661 1.895820 0
M  V30 25 O 0.310655 -6.526059 2.721326 0
M  V30 26 C 0.359920 -4.169521 1.980755 0
M  V30 27 C -0.037704 -3.165913 1.183671 0
M  V30 28 C 0.192902 -1.854890 1.005491 0
M  V30 29 H 3.244156 0.478895 3.727020 0
M  V30 30 H 2.033450 4.128365 -2.435686 0
M  V30 31 H 0.473862 5.790144 -1.437388 0
M  V30 32 H -2.094514 5.136588 0.962446 0
M  V30 33 H -1.162345 0.264375 -1.270966 0
M  V30 34 H -1.972338 -2.374470 -1.310263 0
M  V30 35 H -2.198882 -5.039749 -0.669236 0
M  V30 36 H -1.418037 -6.818968 0.831224 0
M  V30 37 H -0.350962 -6.923870 3.398955 0
M  V30 38 H 1.064522 -4.058110 2.753847 0
M  V30 END ATOM
M  V30 BEGIN BOND
M  V30 1 2 1 2
M  V30 2 1 2 3
M  V30 3 1 3 4
M  V30 4 2 4 5
M  V30 5 1 4 6
M  V30 6 2 6 7
M  V30 7 1 7 8
M  V30 8 1 8 9
M  V30 9 2 9 10
M  V30 10 1 10 11
M  V30 11 1 10 12
M  V30 12 2 12 13
M  V30 13 1 13 14
M  V30 14 1 14 15
M  V30 15 2 14 16
M  V30 16 1 16 17
M  V30 17 2 8 18
M  V30 18 1 18 19
M  V30 19 1 19 20
M  V30 20 1 20 21
M  V30 21 2 21 22
M  V30 22 1 22 23
M  V30 23 2 23 24
M  V30 24 1 24 25
M  V30 25 1 24 26
M  V30 26 2 26 27
M  V30 27 1 27 28
M  V30 28 1 7 2
M  V30 29 1 16 9
M  V30 30 2 28 19
M  V30 31 1 28 6
M  V30 32 1 27 21
M  V30 33 1 3 29
M  V30 34 1 12 30
M  V30 35 1 13 31
M  V30 36 1 15 32
M  V30 37 1 18 33
M  V30 38 1 20 34
M  V30 39 1 22 35
M  V30 40 1 23 36
M  V30 41 1 25 37
M  V30 42 1 26 38
M  V30 END BOND
M  V30 END CTAB
M  END
>  <Dataset>  (553) 
ChEMBL_Kinases

>  <Ligand_Instance>  (553) 
nan

>  <PDB_ID>  (553) 
nan

>  <Standardized_SMILES>  (553) 
O=C1NC(=O)c2c1c(-c1c(Cl)ccc(O)c1Cl)cc1[nH]c3ccc(O)cc3c21

>  <Name>  (553) 
nan

>  <Pocket>  (553) 
nan

>  <ATP_Site>  (553) 
nan

>  <Peripheral>  (553) 
nan

>  <Num_H_Atoms_ProtBoundConf>  (553) 
nan

>  <Num_Resolved_Atoms>  (553) 
nan

>  <Num_Not_Resolved_Atoms>  (553) 
nan

$$$$
CHEMBL4083330
     RDKit          3D

  0  0  0  0  0  0  0  0  0  0999 V3000
M  V30 BEGIN CTAB
M  V30 COUNTS 52 55 0 0 0
M  V30 BEGIN ATOM
M  V30 1 C -0.751985 -3.831759 2.390679 0
M  V30 2 C -1.147388 -3.557871 0.978245 0
M  V30 3 C -1.002109 -2.369619 0.252159 0
M  V30 4 C -0.411355 -1.141613 0.774637 0
M  V30 5 C 0.764594 -1.218384 1.496553 0
M  V30 6 C 1.340732 -0.071123 2.001063 0
M  V30 7 C 0.809402 1.184546 1.830313 0
M  V30 8 N 1.411519 2.351884 2.352721 0
M  V30 9 C 2.639611 2.438145 3.094742 0
M  V30 10 C 3.645217 3.401900 2.508633 0
M  V30 11 N 3.104958 4.738822 2.393986 0
M  V30 12 C 4.038407 5.682356 1.873451 0
M  V30 13 C 1.872661 4.673533 1.636820 0
M  V30 14 C 0.895720 3.687752 2.237506 0
M  V30 15 C -0.359437 1.240708 1.110222 0
M  V30 16 C -0.959624 0.110870 0.592951 0
M  V30 17 N -1.493877 -2.550017 -0.998403 0
M  V30 18 C -1.525401 -1.560277 -2.045099 0
M  V30 19 C -1.951623 -3.816609 -1.102276 0
M  V30 20 N -2.533928 -4.491312 -2.138717 0
M  V30 21 C -2.908053 -5.773979 -1.985282 0
M  V30 22 C -3.531883 -6.534445 -3.060139 0
M  V30 23 N -3.903242 -6.277695 -4.383985 0
M  V30 24 O -3.909617 -7.732483 -2.999636 0
M  V30 25 C -2.740730 -6.484207 -0.814890 0
M  V30 26 C -2.142923 -5.778072 0.236176 0
M  V30 27 Cl -1.905514 -6.646556 1.761621 0
M  V30 28 C -1.747845 -4.460442 0.109547 0
M  V30 29 H -0.683343 -2.879932 2.963930 0
M  V30 30 H 0.114439 -4.493570 2.489129 0
M  V30 31 H -1.649060 -4.350849 2.839349 0
M  V30 32 H 1.199064 -2.201627 1.641440 0
M  V30 33 H 2.249782 -0.244105 2.545348 0
M  V30 34 H 3.131557 1.463126 3.131606 0
M  V30 35 H 2.377496 2.823292 4.116252 0
M  V30 36 H 4.524445 3.392695 3.151573 0
M  V30 37 H 3.943815 3.088825 1.492810 0
M  V30 38 H 5.081086 5.305064 1.860934 0
M  V30 39 H 4.088503 6.612719 2.511112 0
M  V30 40 H 3.815375 5.996857 0.828632 0
M  V30 41 H 1.355230 5.644072 1.621654 0
M  V30 42 H 2.125538 4.385032 0.605056 0
M  V30 43 H 0.677968 4.048480 3.282561 0
M  V30 44 H -0.033928 3.778877 1.668900 0
M  V30 45 H -0.890262 2.134976 0.893711 0
M  V30 46 H -1.874882 0.127631 0.025671 0
M  V30 47 H -2.487980 -0.979562 -2.028184 0
M  V30 48 H -0.647447 -0.882578 -2.034344 0
M  V30 49 H -1.513520 -2.036371 -3.050934 0
M  V30 50 H -3.300485 -6.448127 -5.222686 0
M  V30 51 H -4.801199 -5.888475 -4.775496 0
M  V30 52 H -3.034140 -7.507043 -0.677930 0
M  V30 END ATOM
M  V30 BEGIN BOND
M  V30 1 1 1 2
M  V30 2 2 2 3
M  V30 3 1 3 4
M  V30 4 2 4 5
M  V30 5 1 5 6
M  V30 6 2 6 7
M  V30 7 1 7 8
M  V30 8 1 8 9
M  V30 9 1 9 10
M  V30 10 1 10 11
M  V30 11 1 11 12
M  V30 12 1 11 13
M  V30 13 1 13 14
M  V30 14 1 7 15
M  V30 15 2 15 16
M  V30 16 1 3 17
M  V30 17 1 17 18
M  V30 18 1 17 19
M  V30 19 2 19 20
M  V30 20 1 20 21
M  V30 21 1 21 22
M  V30 22 1 22 23
M  V30 23 2 22 24
M  V30 24 2 21 25
M  V30 25 1 25 26
M  V30 26 1 26 27
M  V30 27 2 26 28
M  V30 28 1 28 2
M  V30 29 1 16 4
M  V30 30 1 28 19
M  V30 31 1 14 8
M  V30 32 1 1 29
M  V30 33 1 1 30
M  V30 34 1 1 31
M  V30 35 1 5 32
M  V30 36 1 6 33
M  V30 37 1 9 34
M  V30 38 1 9 35
M  V30 39 1 10 36
M  V30 40 1 10 37
M  V30 41 1 12 38
M  V30 42 1 12 39
M  V30 43 1 12 40
M  V30 44 1 13 41
M  V30 45 1 13 42
M  V30 46 1 14 43
M  V30 47 1 14 44
M  V30 48 1 15 45
M  V30 49 1 16 46
M  V30 50 1 18 47
M  V30 51 1 18 48
M  V30 52 1 18 49
M  V30 53 1 23 50
M  V30 54 1 23 51
M  V30 55 1 25 52
M  V30 END BOND
M  V30 END CTAB
M  END
>  <Dataset>  (554) 
ChEMBL_Kinases

>  <Ligand_Instance>  (554) 
nan

>  <PDB_ID>  (554) 
nan

>  <Standardized_SMILES>  (554) 
Cc1c(-c2ccc(N3CCN(C)CC3)cc2)n(C)c2nc(C(N)=O)cc(Cl)c12

>  <Name>  (554) 
nan

>  <Pocket>  (554) 
nan

>  <ATP_Site>  (554) 
nan

>  <Peripheral>  (554) 
nan

>  <Num_H_Atoms_ProtBoundConf>  (554) 
nan

>  <Num_Resolved_Atoms>  (554) 
nan

>  <Num_Not_Resolved_Atoms>  (554) 
nan

$$$$
CHEMBL386199
     RDKit          3D

  0  0  0  0  0  0  0  0  0  0999 V3000
M  V30 BEGIN CTAB
M  V30 COUNTS 45 49 0 0 0
M  V30 BEGIN ATOM
M  V30 1 C 1.855335 -4.748509 1.598119 0
M  V30 2 O 1.684818 -3.412275 1.230558 0
M  V30 3 C 2.685371 -2.607626 0.659149 0
M  V30 4 C 3.930133 -3.147499 0.434539 0
M  V30 5 C 4.914547 -2.355979 -0.127607 0
M  V30 6 C 4.599922 -1.062691 -0.435896 0
M  V30 7 C 3.341706 -0.520792 -0.207656 0
M  V30 8 O 3.009656 0.793934 -0.517182 0
M  V30 9 C 3.920392 1.711826 -1.095833 0
M  V30 10 C 2.331360 -1.299756 0.358757 0
M  V30 11 C 1.038247 -0.778034 0.604446 0
M  V30 12 C 0.770022 -0.191647 1.798363 0
M  V30 13 C -0.472213 0.330578 2.084660 0
M  V30 14 N -0.975957 0.942347 3.156903 0
M  V30 15 C -2.282243 1.263346 2.912643 0
M  V30 16 C -3.169643 1.903510 3.755675 0
M  V30 17 C -4.474822 2.153617 3.342829 0
M  V30 18 C -4.853485 1.739619 2.060009 0
M  V30 19 O -6.149374 1.982604 1.637332 0
M  V30 20 C -3.906058 1.109303 1.286996 0
M  V30 21 C -2.619786 0.842531 1.645372 0
M  V30 22 C -1.485903 0.270224 1.155415 0
M  V30 23 C -1.253286 -0.310474 -0.052476 0
M  V30 24 C -0.008183 -0.829506 -0.328920 0
M  V30 25 C 0.070478 -1.421829 -1.683807 0
M  V30 26 O 1.061776 -1.964707 -2.213781 0
M  V30 27 N -1.236396 -1.211765 -2.193712 0
M  V30 28 C -2.033781 -0.549244 -1.227592 0
M  V30 29 O -3.199904 -0.310847 -1.560775 0
M  V30 30 H 2.096037 -4.889716 2.679154 0
M  V30 31 H 0.851115 -5.237550 1.474419 0
M  V30 32 H 2.533202 -5.329600 0.944747 0
M  V30 33 H 4.186667 -4.163460 0.673749 0
M  V30 34 H 5.891009 -2.772549 -0.305995 0
M  V30 35 H 5.356847 -0.407181 -0.882941 0
M  V30 36 H 4.426576 1.335899 -1.999307 0
M  V30 37 H 4.627810 2.059742 -0.314938 0
M  V30 38 H 3.304701 2.586199 -1.401398 0
M  V30 39 H 1.526929 -0.121323 2.552577 0
M  V30 40 H -0.433141 1.126936 4.018471 0
M  V30 41 H -2.845401 2.210432 4.740419 0
M  V30 42 H -5.135670 2.656638 4.033487 0
M  V30 43 H -6.938240 1.981583 2.277548 0
M  V30 44 H -4.266621 0.826050 0.330710 0
M  V30 45 H -1.445715 -1.555364 -3.177085 0
M  V30 END ATOM
M  V30 BEGIN BOND
M  V30 1 1 1 2
M  V30 2 1 2 3
M  V30 3 2 3 4
M  V30 4 1 4 5
M  V30 5 2 5 6
M  V30 6 1 6 7
M  V30 7 1 7 8
M  V30 8 1 8 9
M  V30 9 2 7 10
M  V30 10 1 10 11
M  V30 11 2 11 12
M  V30 12 1 12 13
M  V30 13 1 13 14
M  V30 14 1 14 15
M  V30 15 2 15 16
M  V30 16 1 16 17
M  V30 17 2 17 18
M  V30 18 1 18 19
M  V30 19 1 18 20
M  V30 20 2 20 21
M  V30 21 1 21 22
M  V30 22 1 22 23
M  V30 23 2 23 24
M  V30 24 1 24 25
M  V30 25 2 25 26
M  V30 26 1 25 27
M  V30 27 1 27 28
M  V30 28 2 28 29
M  V30 29 1 10 3
M  V30 30 1 24 11
M  V30 31 2 22 13
M  V30 32 1 28 23
M  V30 33 1 21 15
M  V30 34 1 1 30
M  V30 35 1 1 31
M  V30 36 1 1 32
M  V30 37 1 4 33
M  V30 38 1 5 34
M  V30 39 1 6 35
M  V30 40 1 9 36
M  V30 41 1 9 37
M  V30 42 1 9 38
M  V30 43 1 12 39
M  V30 44 1 14 40
M  V30 45 1 16 41
M  V30 46 1 17 42
M  V30 47 1 19 43
M  V30 48 1 20 44
M  V30 49 1 27 45
M  V30 END BOND
M  V30 END CTAB
M  END
>  <Dataset>  (555) 
ChEMBL_Kinases

>  <Ligand_Instance>  (555) 
nan

>  <PDB_ID>  (555) 
nan

>  <Standardized_SMILES>  (555) 
COc1cccc(OC)c1-c1cc2[nH]c3ccc(O)cc3c2c2c1C(=O)NC2=O

>  <Name>  (555) 
nan

>  <Pocket>  (555) 
nan

>  <ATP_Site>  (555) 
nan

>  <Peripheral>  (555) 
nan

>  <Num_H_Atoms_ProtBoundConf>  (555) 
nan

>  <Num_Resolved_Atoms>  (555) 
nan

>  <Num_Not_Resolved_Atoms>  (555) 
nan

$$$$
CHEMBL386253
     RDKit          3D

  0  0  0  0  0  0  0  0  0  0999 V3000
M  V30 BEGIN CTAB
M  V30 COUNTS 65 68 0 0 0
M  V30 BEGIN ATOM
M  V30 1 C -1.193183 -2.267733 2.157892 0
M  V30 2 O -0.997400 -2.693450 0.842705 0
M  V30 3 C 0.225360 -2.887798 0.256980 0
M  V30 4 C 1.415217 -2.681999 0.912871 0
M  V30 5 C 2.593791 -2.912943 0.210251 0
M  V30 6 C 3.760624 -2.682494 0.924326 0
M  V30 7 N 3.713241 -2.267892 2.260062 0
M  V30 8 C 3.438267 -0.977100 2.719384 0
M  V30 9 C 3.124245 0.134717 2.002558 0
M  V30 10 C 2.911002 1.224764 2.812547 0
M  V30 11 C 2.534689 2.663251 2.636881 0
M  V30 12 C 1.054836 2.808333 2.690854 0
M  V30 13 O 0.723499 1.609243 2.845406 0
M  V30 14 N 0.145026 3.875952 2.611201 0
M  V30 15 C -1.257136 3.799245 2.684985 0
M  V30 16 C -1.916257 4.983823 2.598592 0
M  V30 17 C -3.311707 4.985242 2.660624 0
M  V30 18 C -4.064651 3.825172 2.807140 0
M  V30 19 C -3.383431 2.612063 2.895160 0
M  V30 20 F -4.039973 1.436870 3.036837 0
M  V30 21 C -2.010551 2.664742 2.829175 0
M  V30 22 N 3.113831 0.709821 4.064530 0
M  V30 23 N 3.421546 -0.574955 4.007806 0
M  V30 24 N 4.951174 -2.877211 0.316645 0
M  V30 25 C 4.981740 -3.296424 -0.987388 0
M  V30 26 N 3.856477 -3.517657 -1.671341 0
M  V30 27 C 2.654654 -3.334426 -1.099570 0
M  V30 28 C 1.458600 -3.541477 -1.758977 0
M  V30 29 C 0.262213 -3.313893 -1.067508 0
M  V30 30 O -0.941204 -3.519153 -1.728104 0
M  V30 31 C -0.903441 -3.937545 -3.058467 0
M  V30 32 C -2.281436 -4.116975 -3.653520 0
M  V30 33 C -2.944228 -2.733236 -3.529885 0
M  V30 34 N -2.958565 -2.459837 -2.085277 0
M  V30 35 C -3.549447 -1.199064 -1.781894 0
M  V30 36 C -2.752080 -0.004289 -2.232905 0
M  V30 37 O -1.494170 0.039544 -1.658869 0
M  V30 38 H -1.187397 -3.173184 2.828564 0
M  V30 39 H -2.146358 -1.711835 2.307859 0
M  V30 40 H -0.384725 -1.612541 2.516698 0
M  V30 41 H 1.413908 -2.351836 1.942666 0
M  V30 42 H 3.910354 -3.052598 2.930213 0
M  V30 43 H 3.028089 0.263260 0.929289 0
M  V30 44 H 2.952406 3.284394 3.454735 0
M  V30 45 H 2.969080 3.068091 1.685690 0
M  V30 46 H 0.683611 4.752733 2.485897 0
M  V30 47 H -1.461550 5.962250 2.483332 0
M  V30 48 H -3.854744 5.911496 2.595475 0
M  V30 49 H -5.141898 3.868024 2.849240 0
M  V30 50 H -1.525715 1.706775 2.901388 0
M  V30 51 H 3.049669 1.202604 4.968577 0
M  V30 52 H 5.967200 -3.438341 -1.427802 0
M  V30 53 H 1.457109 -3.872381 -2.789099 0
M  V30 54 H -0.288307 -3.290059 -3.709005 0
M  V30 55 H -0.414978 -4.955839 -3.065549 0
M  V30 56 H -2.891842 -4.862470 -3.150355 0
M  V30 57 H -2.241963 -4.354985 -4.732312 0
M  V30 58 H -3.940894 -2.697419 -3.967649 0
M  V30 59 H -2.285760 -1.951487 -3.957525 0
M  V30 60 H -3.513872 -3.207399 -1.636310 0
M  V30 61 H -3.679374 -1.163406 -0.673298 0
M  V30 62 H -4.564946 -1.147691 -2.242256 0
M  V30 63 H -2.627349 -0.018984 -3.330624 0
M  V30 64 H -3.307100 0.911499 -1.932902 0
M  V30 65 H -0.994886 0.748292 -2.131855 0
M  V30 END ATOM
M  V30 BEGIN BOND
M  V30 1 1 1 2
M  V30 2 1 2 3
M  V30 3 2 3 4
M  V30 4 1 4 5
M  V30 5 2 5 6
M  V30 6 1 6 7
M  V30 7 1 7 8
M  V30 8 1 8 9
M  V30 9 2 9 10
M  V30 10 1 10 11
M  V30 11 1 11 12
M  V30 12 2 12 13
M  V30 13 1 12 14
M  V30 14 1 14 15
M  V30 15 2 15 16
M  V30 16 1 16 17
M  V30 17 2 17 18
M  V30 18 1 18 19
M  V30 19 1 19 20
M  V30 20 2 19 21
M  V30 21 1 10 22
M  V30 22 1 22 23
M  V30 23 1 6 24
M  V30 24 2 24 25
M  V30 25 1 25 26
M  V30 26 2 26 27
M  V30 27 1 27 28
M  V30 28 2 28 29
M  V30 29 1 29 30
M  V30 30 1 30 31
M  V30 31 1 31 32
M  V30 32 1 32 33
M  V30 33 1 33 34
M  V30 34 1 34 35
M  V30 35 1 35 36
M  V30 36 1 36 37
M  V30 37 1 29 3
M  V30 38 1 27 5
M  V30 39 2 23 8
M  V30 40 1 21 15
M  V30 41 1 1 38
M  V30 42 1 1 39
M  V30 43 1 1 40
M  V30 44 1 4 41
M  V30 45 1 7 42
M  V30 46 1 9 43
M  V30 47 1 11 44
M  V30 48 1 11 45
M  V30 49 1 14 46
M  V30 50 1 16 47
M  V30 51 1 17 48
M  V30 52 1 18 49
M  V30 53 1 21 50
M  V30 54 1 22 51
M  V30 55 1 25 52
M  V30 56 1 28 53
M  V30 57 1 31 54
M  V30 58 1 31 55
M  V30 59 1 32 56
M  V30 60 1 32 57
M  V30 61 1 33 58
M  V30 62 1 33 59
M  V30 63 1 34 60
M  V30 64 1 35 61
M  V30 65 1 35 62
M  V30 66 1 36 63
M  V30 67 1 36 64
M  V30 68 1 37 65
M  V30 END BOND
M  V30 END CTAB
M  END
>  <Dataset>  (556) 
ChEMBL_Kinases

>  <Ligand_Instance>  (556) 
nan

>  <PDB_ID>  (556) 
nan

>  <Standardized_SMILES>  (556) 
COc1cc2c(Nc3cc(CC(=O)Nc4cccc(F)c4)[nH]n3)ncnc2cc1OCCCNCCO

>  <Name>  (556) 
nan

>  <Pocket>  (556) 
nan

>  <ATP_Site>  (556) 
nan

>  <Peripheral>  (556) 
nan

>  <Num_H_Atoms_ProtBoundConf>  (556) 
nan

>  <Num_Resolved_Atoms>  (556) 
nan

>  <Num_Not_Resolved_Atoms>  (556) 
nan

$$$$
CHEMBL3661031
     RDKit          3D

  0  0  0  0  0  0  0  0  0  0999 V3000
M  V30 BEGIN CTAB
M  V30 COUNTS 38 41 0 0 0
M  V30 BEGIN ATOM
M  V30 1 C -1.717066 -3.030230 4.253271 0
M  V30 2 C -1.036156 -2.373815 3.131069 0
M  V30 3 C -1.404302 -1.091375 2.789085 0
M  V30 4 C -0.721583 -0.528302 1.719006 0
M  V30 5 N -1.103555 0.792502 1.369880 0
M  V30 6 C -0.520412 1.531772 0.306369 0
M  V30 7 N 0.453876 1.163655 -0.541699 0
M  V30 8 N 0.746238 2.113126 -1.410198 0
M  V30 9 C -0.031666 3.185017 -1.183745 0
M  V30 10 N -0.142608 4.397478 -1.765259 0
M  V30 11 C -1.028553 5.297986 -1.321830 0
M  V30 12 C -1.839288 4.988550 -0.259421 0
M  V30 13 F -2.765382 5.866390 0.240873 0
M  V30 14 C -1.728416 3.749899 0.337340 0
M  V30 15 C -0.810050 2.808635 -0.117797 0
M  V30 16 N 0.234499 -1.183973 1.057263 0
M  V30 17 C 0.630069 -2.432203 1.349543 0
M  V30 18 C 1.678437 -2.996193 0.534067 0
M  V30 19 C 2.196529 -2.221964 -0.479557 0
M  V30 20 C 3.195684 -2.634683 -1.329098 0
M  V30 21 C 3.750420 -3.886617 -1.207612 0
M  V30 22 C 3.267497 -4.701076 -0.208981 0
M  V30 23 C 2.269259 -4.227727 0.604397 0
M  V30 24 Cl 1.756485 -5.362216 1.821250 0
M  V30 25 C -0.049234 -2.964853 2.398276 0
M  V30 26 H -2.722589 -3.327418 3.932816 0
M  V30 27 H -1.173218 -3.921605 4.633252 0
M  V30 28 H -1.759290 -2.320740 5.100584 0
M  V30 29 H -2.171318 -0.546127 3.308821 0
M  V30 30 H -1.853567 1.302730 1.891264 0
M  V30 31 H 1.484188 2.036677 -2.169780 0
M  V30 32 H -1.125450 6.277174 -1.783513 0
M  V30 33 H -2.356233 3.475521 1.180173 0
M  V30 34 H 1.856798 -1.218648 -0.691180 0
M  V30 35 H 3.586283 -2.009672 -2.117250 0
M  V30 36 H 4.533974 -4.201991 -1.878643 0
M  V30 37 H 3.708760 -5.680282 -0.121992 0
M  V30 38 H 0.185656 -3.946535 2.711135 0
M  V30 END ATOM
M  V30 BEGIN BOND
M  V30 1 1 1 2
M  V30 2 2 2 3
M  V30 3 1 3 4
M  V30 4 1 4 5
M  V30 5 1 5 6
M  V30 6 2 6 7
M  V30 7 1 7 8
M  V30 8 1 8 9
M  V30 9 2 9 10
M  V30 10 1 10 11
M  V30 11 2 11 12
M  V30 12 1 12 13
M  V30 13 1 12 14
M  V30 14 2 14 15
M  V30 15 2 4 16
M  V30 16 1 16 17
M  V30 17 1 17 18
M  V30 18 2 18 19
M  V30 19 1 19 20
M  V30 20 2 20 21
M  V30 21 1 21 22
M  V30 22 2 22 23
M  V30 23 1 23 24
M  V30 24 2 17 25
M  V30 25 1 25 2
M  V30 26 1 15 6
M  V30 27 1 23 18
M  V30 28 1 15 9
M  V30 29 1 1 26
M  V30 30 1 1 27
M  V30 31 1 1 28
M  V30 32 1 3 29
M  V30 33 1 5 30
M  V30 34 1 8 31
M  V30 35 1 11 32
M  V30 36 1 14 33
M  V30 37 1 19 34
M  V30 38 1 20 35
M  V30 39 1 21 36
M  V30 40 1 22 37
M  V30 41 1 25 38
M  V30 END BOND
M  V30 END CTAB
M  END
>  <Dataset>  (557) 
ChEMBL_Kinases

>  <Ligand_Instance>  (557) 
nan

>  <PDB_ID>  (557) 
nan

>  <Standardized_SMILES>  (557) 
Cc1cc(Nc2n[nH]c3ncc(F)cc23)nc(-c2ccccc2Cl)c1

>  <Name>  (557) 
nan

>  <Pocket>  (557) 
nan

>  <ATP_Site>  (557) 
nan

>  <Peripheral>  (557) 
nan

>  <Num_H_Atoms_ProtBoundConf>  (557) 
nan

>  <Num_Resolved_Atoms>  (557) 
nan

>  <Num_Not_Resolved_Atoms>  (557) 
nan

$$$$
CHEMBL386809
     RDKit          3D

  0  0  0  0  0  0  0  0  0  0999 V3000
M  V30 BEGIN CTAB
M  V30 COUNTS 37 41 0 0 0
M  V30 BEGIN ATOM
M  V30 1 O 3.767408 0.760890 0.703199 0
M  V30 2 C 2.995238 -0.202382 0.940395 0
M  V30 3 N 3.309442 -1.501801 1.480270 0
M  V30 4 C 2.111470 -2.251098 1.567895 0
M  V30 5 O 2.233286 -3.395338 2.018176 0
M  V30 6 C 1.004210 -1.469458 1.094212 0
M  V30 7 C 1.553629 -0.264918 0.730107 0
M  V30 8 C 0.744583 0.739862 0.220847 0
M  V30 9 C 1.282049 2.038332 -0.180548 0
M  V30 10 C 1.666029 2.042966 -1.523571 0
M  V30 11 C 2.199883 3.212547 -2.059762 0
M  V30 12 C 2.342707 4.335756 -1.275939 0
M  V30 13 C 1.955552 4.318137 0.063369 0
M  V30 14 C 1.426150 3.165000 0.602744 0
M  V30 15 F 1.012544 3.017112 1.885852 0
M  V30 16 C -0.612552 0.525719 0.081317 0
M  V30 17 C -1.144182 -0.692027 0.453275 0
M  V30 18 N -2.408382 -1.152376 0.421454 0
M  V30 19 C -2.366122 -2.428807 0.908564 0
M  V30 20 C -3.442814 -3.294591 1.059694 0
M  V30 21 C -3.256664 -4.570440 1.569917 0
M  V30 22 C -1.959941 -4.951438 1.923568 0
M  V30 23 O -1.773769 -6.225360 2.433066 0
M  V30 24 C -0.946707 -4.041399 1.745498 0
M  V30 25 C -1.079867 -2.780951 1.249664 0
M  V30 26 C -0.331401 -1.681565 0.957406 0
M  V30 27 H 4.315368 -1.715399 1.723793 0
M  V30 28 H 1.591199 1.212394 -2.211267 0
M  V30 29 H 2.527625 3.325581 -3.081264 0
M  V30 30 H 2.756148 5.265995 -1.663216 0
M  V30 31 H 2.043906 5.171159 0.729265 0
M  V30 32 H -1.285380 1.275162 -0.309781 0
M  V30 33 H -3.239725 -0.618845 0.085889 0
M  V30 34 H -4.439329 -2.983366 0.780983 0
M  V30 35 H -4.133479 -5.195080 1.662732 0
M  V30 36 H -0.824362 -6.537982 2.617412 0
M  V30 37 H 0.003897 -4.408417 2.037758 0
M  V30 END ATOM
M  V30 BEGIN BOND
M  V30 1 2 1 2
M  V30 2 1 2 3
M  V30 3 1 3 4
M  V30 4 2 4 5
M  V30 5 1 4 6
M  V30 6 2 6 7
M  V30 7 1 7 8
M  V30 8 1 8 9
M  V30 9 2 9 10
M  V30 10 1 10 11
M  V30 11 2 11 12
M  V30 12 1 12 13
M  V30 13 2 13 14
M  V30 14 1 14 15
M  V30 15 2 8 16
M  V30 16 1 16 17
M  V30 17 1 17 18
M  V30 18 1 18 19
M  V30 19 2 19 20
M  V30 20 1 20 21
M  V30 21 2 21 22
M  V30 22 1 22 23
M  V30 23 1 22 24
M  V30 24 2 24 25
M  V30 25 1 25 26
M  V30 26 1 7 2
M  V30 27 1 14 9
M  V30 28 2 26 17
M  V30 29 1 26 6
M  V30 30 1 25 19
M  V30 31 1 3 27
M  V30 32 1 10 28
M  V30 33 1 11 29
M  V30 34 1 12 30
M  V30 35 1 13 31
M  V30 36 1 16 32
M  V30 37 1 18 33
M  V30 38 1 20 34
M  V30 39 1 21 35
M  V30 40 1 23 36
M  V30 41 1 24 37
M  V30 END BOND
M  V30 END CTAB
M  END
>  <Dataset>  (558) 
ChEMBL_Kinases

>  <Ligand_Instance>  (558) 
nan

>  <PDB_ID>  (558) 
nan

>  <Standardized_SMILES>  (558) 
O=C1NC(=O)c2c1c(-c1ccccc1F)cc1[nH]c3ccc(O)cc3c21

>  <Name>  (558) 
nan

>  <Pocket>  (558) 
nan

>  <ATP_Site>  (558) 
nan

>  <Peripheral>  (558) 
nan

>  <Num_H_Atoms_ProtBoundConf>  (558) 
nan

>  <Num_Resolved_Atoms>  (558) 
nan

>  <Num_Not_Resolved_Atoms>  (558) 
nan

$$$$
CHEMBL387078
     RDKit          3D

  0  0  0  0  0  0  0  0  0  0999 V3000
M  V30 BEGIN CTAB
M  V30 COUNTS 37 41 0 0 0
M  V30 BEGIN ATOM
M  V30 1 O 4.441304 -2.762659 1.940098 0
M  V30 2 C 3.197209 -2.905653 1.875232 0
M  V30 3 N 2.381144 -4.015434 2.299835 0
M  V30 4 C 1.029283 -3.730930 2.027055 0
M  V30 5 O 0.236258 -4.616335 2.350901 0
M  V30 6 C 0.918369 -2.447845 1.425450 0
M  V30 7 C 2.196884 -1.971323 1.340591 0
M  V30 8 C 2.451944 -0.711102 0.787877 0
M  V30 9 C 1.383784 0.061157 0.320612 0
M  V30 10 C 1.740488 1.361720 -0.242191 0
M  V30 11 C 2.653626 2.104403 0.509054 0
M  V30 12 C 3.125887 3.371352 0.147492 0
M  V30 13 C 2.632419 3.886560 -1.037184 0
M  V30 14 C 1.729091 3.175850 -1.800781 0
M  V30 15 C 1.283691 1.928050 -1.414884 0
M  V30 16 C 0.111863 -0.461650 0.427540 0
M  V30 17 N -1.046111 0.077397 0.058813 0
M  V30 18 C -2.016485 -0.829795 0.374447 0
M  V30 19 C -3.369301 -0.690046 0.168880 0
M  V30 20 C -4.231859 -1.685422 0.536301 0
M  V30 21 C -3.698089 -2.826848 1.116726 0
M  V30 22 O -4.565683 -3.853859 1.498129 0
M  V30 23 C -2.336703 -2.901860 1.293446 0
M  V30 24 C -1.439230 -1.941830 0.945928 0
M  V30 25 C -0.099131 -1.689920 0.970160 0
M  V30 26 H 2.885736 -4.845413 2.734462 0
M  V30 27 H 3.477270 -0.327388 0.719141 0
M  V30 28 H 3.054969 1.717405 1.445390 0
M  V30 29 H 3.829002 3.887192 0.773446 0
M  V30 30 H 2.979571 4.864521 -1.342605 0
M  V30 31 H 1.329348 3.562065 -2.733950 0
M  V30 32 H 0.590838 1.335537 -1.961904 0
M  V30 33 H -1.182928 1.013438 -0.385220 0
M  V30 34 H -3.791389 0.193416 -0.281286 0
M  V30 35 H -5.298038 -1.605777 0.388270 0
M  V30 36 H -4.976126 -3.868401 2.424183 0
M  V30 37 H -2.011260 -3.806995 1.743515 0
M  V30 END ATOM
M  V30 BEGIN BOND
M  V30 1 2 1 2
M  V30 2 1 2 3
M  V30 3 1 3 4
M  V30 4 2 4 5
M  V30 5 1 4 6
M  V30 6 2 6 7
M  V30 7 1 7 8
M  V30 8 2 8 9
M  V30 9 1 9 10
M  V30 10 2 10 11
M  V30 11 1 11 12
M  V30 12 2 12 13
M  V30 13 1 13 14
M  V30 14 2 14 15
M  V30 15 1 9 16
M  V30 16 1 16 17
M  V30 17 1 17 18
M  V30 18 2 18 19
M  V30 19 1 19 20
M  V30 20 2 20 21
M  V30 21 1 21 22
M  V30 22 1 21 23
M  V30 23 2 23 24
M  V30 24 1 24 25
M  V30 25 1 7 2
M  V30 26 1 15 10
M  V30 27 2 25 16
M  V30 28 1 25 6
M  V30 29 1 24 18
M  V30 30 1 3 26
M  V30 31 1 8 27
M  V30 32 1 11 28
M  V30 33 1 12 29
M  V30 34 1 13 30
M  V30 35 1 14 31
M  V30 36 1 15 32
M  V30 37 1 17 33
M  V30 38 1 19 34
M  V30 39 1 20 35
M  V30 40 1 22 36
M  V30 41 1 23 37
M  V30 END BOND
M  V30 END CTAB
M  END
>  <Dataset>  (559) 
ChEMBL_Kinases

>  <Ligand_Instance>  (559) 
nan

>  <PDB_ID>  (559) 
nan

>  <Standardized_SMILES>  (559) 
O=C1NC(=O)c2c1cc(-c1ccccc1)c1[nH]c3ccc(O)cc3c21

>  <Name>  (559) 
nan

>  <Pocket>  (559) 
nan

>  <ATP_Site>  (559) 
nan

>  <Peripheral>  (559) 
nan

>  <Num_H_Atoms_ProtBoundConf>  (559) 
nan

>  <Num_Resolved_Atoms>  (559) 
nan

>  <Num_Not_Resolved_Atoms>  (559) 
nan

$$$$
CHEMBL387253
     RDKit          3D

  0  0  0  0  0  0  0  0  0  0999 V3000
M  V30 BEGIN CTAB
M  V30 COUNTS 44 46 0 0 0
M  V30 BEGIN ATOM
M  V30 1 C 3.714153 -3.557256 4.581320 0
M  V30 2 S 5.016447 -3.027541 3.472402 0
M  V30 3 O 6.046199 -2.338205 4.349504 0
M  V30 4 O 5.647473 -4.256180 2.922181 0
M  V30 5 C 4.411153 -1.962481 2.250020 0
M  V30 6 C 3.952317 -2.582600 1.084129 0
M  V30 7 C 3.463734 -1.720396 0.096934 0
M  V30 8 C 3.405010 -0.331791 0.192058 0
M  V30 9 C 2.847084 0.385184 -0.981500 0
M  V30 10 N 1.412971 0.497182 -0.797213 0
M  V30 11 C 0.765181 1.422436 0.057190 0
M  V30 12 O 1.393433 2.252870 0.748015 0
M  V30 13 C -0.693585 1.410925 0.138356 0
M  V30 14 C -1.397339 2.290615 0.934933 0
M  V30 15 C -2.793263 2.264741 0.995781 0
M  V30 16 N -3.521405 3.171935 1.817073 0
M  V30 17 C -3.505394 1.333537 0.239895 0
M  V30 18 C -4.935098 1.236280 0.242332 0
M  V30 19 N -6.092220 1.171514 0.240672 0
M  V30 20 C -2.764020 0.472950 -0.542463 0
M  V30 21 C -3.361369 -0.557475 -1.386454 0
M  V30 22 C -4.389313 -1.354167 -0.879528 0
M  V30 23 C -4.778626 -2.253491 -1.880171 0
M  V30 24 O -4.014433 -1.999369 -2.931971 0
M  V30 25 C -3.182817 -1.019633 -2.673075 0
M  V30 26 N -1.421943 0.529715 -0.574121 0
M  V30 27 C 3.874245 0.183842 1.363349 0
M  V30 28 C 4.370929 -0.600910 2.382909 0
M  V30 29 H 3.159076 -2.656399 4.883984 0
M  V30 30 H 4.130291 -4.015029 5.489302 0
M  V30 31 H 3.019117 -4.247869 4.060783 0
M  V30 32 H 3.951751 -3.649157 0.904881 0
M  V30 33 H 3.105149 -2.213573 -0.817237 0
M  V30 34 H 3.330109 1.377467 -1.095487 0
M  V30 35 H 3.077695 -0.185569 -1.890339 0
M  V30 36 H 0.800781 -0.167220 -1.346178 0
M  V30 37 H -0.859613 3.025855 1.533010 0
M  V30 38 H -3.643097 4.133060 1.428189 0
M  V30 39 H -3.860749 2.770680 2.735308 0
M  V30 40 H -4.925180 -1.430127 0.059718 0
M  V30 41 H -5.504711 -3.047113 -1.982507 0
M  V30 42 H -2.419307 -0.547733 -3.288287 0
M  V30 43 H 3.836945 1.260890 1.448337 0
M  V30 44 H 4.730125 -0.141214 3.291549 0
M  V30 END ATOM
M  V30 BEGIN BOND
M  V30 1 1 1 2
M  V30 2 2 2 3
M  V30 3 2 2 4
M  V30 4 1 2 5
M  V30 5 2 5 6
M  V30 6 1 6 7
M  V30 7 2 7 8
M  V30 8 1 8 9
M  V30 9 1 9 10
M  V30 10 1 10 11
M  V30 11 2 11 12
M  V30 12 1 11 13
M  V30 13 2 13 14
M  V30 14 1 14 15
M  V30 15 1 15 16
M  V30 16 2 15 17
M  V30 17 1 17 18
M  V30 18 3 18 19
M  V30 19 1 17 20
M  V30 20 1 20 21
M  V30 21 1 21 22
M  V30 22 2 22 23
M  V30 23 1 23 24
M  V30 24 1 24 25
M  V30 25 2 20 26
M  V30 26 1 8 27
M  V30 27 2 27 28
M  V30 28 1 28 5
M  V30 29 1 26 13
M  V30 30 2 25 21
M  V30 31 1 1 29
M  V30 32 1 1 30
M  V30 33 1 1 31
M  V30 34 1 6 32
M  V30 35 1 7 33
M  V30 36 1 9 34
M  V30 37 1 9 35
M  V30 38 1 10 36
M  V30 39 1 14 37
M  V30 40 1 16 38
M  V30 41 1 16 39
M  V30 42 1 22 40
M  V30 43 1 23 41
M  V30 44 1 25 42
M  V30 45 1 27 43
M  V30 46 1 28 44
M  V30 END BOND
M  V30 END CTAB
M  END
>  <Dataset>  (560) 
ChEMBL_Kinases

>  <Ligand_Instance>  (560) 
nan

>  <PDB_ID>  (560) 
nan

>  <Standardized_SMILES>  (560) 
CS(=O)(=O)c1ccc(CNC(=O)c2cc(N)c(C#N)c(-c3ccoc3)n2)cc1

>  <Name>  (560) 
nan

>  <Pocket>  (560) 
nan

>  <ATP_Site>  (560) 
nan

>  <Peripheral>  (560) 
nan

>  <Num_H_Atoms_ProtBoundConf>  (560) 
nan

>  <Num_Resolved_Atoms>  (560) 
nan

>  <Num_Not_Resolved_Atoms>  (560) 
nan

$$$$
CHEMBL387377
     RDKit          3D

  0  0  0  0  0  0  0  0  0  0999 V3000
M  V30 BEGIN CTAB
M  V30 COUNTS 53 58 0 0 0
M  V30 BEGIN ATOM
M  V30 1 C -1.353839 -10.165181 0.054522 0
M  V30 2 C -0.645630 -10.404726 1.436503 0
M  V30 3 S -0.140377 -8.608190 1.687372 0
M  V30 4 C -0.868087 -7.986073 0.126865 0
M  V30 5 C -0.736402 -6.554229 -0.167661 0
M  V30 6 C -0.088198 -5.701962 0.697100 0
M  V30 7 C -0.009540 -4.370285 0.343290 0
M  V30 8 C -0.536949 -3.880282 -0.802322 0
M  V30 9 C -0.580786 -2.622181 -1.352230 0
M  V30 10 C -0.066708 -1.358257 -0.886084 0
M  V30 11 C 0.611078 -0.913709 0.184971 0
M  V30 12 C 0.850992 0.444133 0.115583 0
M  V30 13 C 1.492421 1.335220 0.953404 0
M  V30 14 C 1.603043 2.677755 0.653817 0
M  V30 15 C 2.272865 3.701117 1.497204 0
M  V30 16 N 1.387586 4.313020 2.410151 0
M  V30 17 C 0.731231 3.519002 3.372525 0
M  V30 18 C -0.691232 3.162323 3.059120 0
M  V30 19 C -1.329547 4.094295 2.063226 0
M  V30 20 C -0.761711 5.466463 2.181601 0
M  V30 21 C 0.705347 5.470625 1.950908 0
M  V30 22 C 1.031979 3.085328 -0.540873 0
M  V30 23 C 0.390331 2.197829 -1.380476 0
M  V30 24 C 0.284003 0.856943 -1.073540 0
M  V30 25 N -0.249271 -0.237193 -1.638131 0
M  V30 26 N -1.251804 -2.818342 -2.503686 0
M  V30 27 N -1.604597 -4.078796 -2.676809 0
M  V30 28 C -1.175668 -4.793067 -1.627167 0
M  V30 29 C -1.301547 -6.140095 -1.353815 0
M  V30 30 N -1.441055 -8.988335 -0.544338 0
M  V30 31 H -1.875285 -10.848789 -0.641729 0
M  V30 32 H -0.817133 -11.555119 1.553325 0
M  V30 33 H 0.346512 -6.033333 1.614309 0
M  V30 34 H 0.485941 -3.719388 1.004519 0
M  V30 35 H 0.936286 -1.487943 0.993086 0
M  V30 36 H 1.920317 0.991383 1.860001 0
M  V30 37 H 3.128607 3.224469 2.042332 0
M  V30 38 H 2.681842 4.476531 0.831020 0
M  V30 39 H 1.291426 2.577944 3.533306 0
M  V30 40 H 0.764799 4.050628 4.352516 0
M  V30 41 H -0.793672 2.130325 2.666411 0
M  V30 42 H -1.296836 3.207765 3.992873 0
M  V30 43 H -1.329501 3.678115 1.034016 0
M  V30 44 H -2.427398 4.194552 2.310369 0
M  V30 45 H -1.269717 6.082723 1.384106 0
M  V30 46 H -1.059468 5.883402 3.159717 0
M  V30 47 H 0.901758 5.727442 0.890266 0
M  V30 48 H 1.119730 6.343158 2.534259 0
M  V30 49 H 1.061245 4.103852 -0.868290 0
M  V30 50 H -0.047456 2.533961 -2.305184 0
M  V30 51 H -0.725525 -0.095260 -2.560439 0
M  V30 52 H -2.131239 -4.368313 -3.529850 0
M  V30 53 H -1.807096 -6.815234 -2.024370 0
M  V30 END ATOM
M  V30 BEGIN BOND
M  V30 1 2 1 2
M  V30 2 1 2 3
M  V30 3 1 3 4
M  V30 4 1 4 5
M  V30 5 2 5 6
M  V30 6 1 6 7
M  V30 7 2 7 8
M  V30 8 1 8 9
M  V30 9 1 9 10
M  V30 10 2 10 11
M  V30 11 1 11 12
M  V30 12 2 12 13
M  V30 13 1 13 14
M  V30 14 1 14 15
M  V30 15 1 15 16
M  V30 16 1 16 17
M  V30 17 1 17 18
M  V30 18 1 18 19
M  V30 19 1 19 20
M  V30 20 1 20 21
M  V30 21 2 14 22
M  V30 22 1 22 23
M  V30 23 2 23 24
M  V30 24 1 24 25
M  V30 25 2 9 26
M  V30 26 1 26 27
M  V30 27 1 27 28
M  V30 28 2 28 29
M  V30 29 2 4 30
M  V30 30 1 30 1
M  V30 31 1 29 5
M  V30 32 1 28 8
M  V30 33 1 25 10
M  V30 34 1 24 12
M  V30 35 1 21 16
M  V30 36 1 1 31
M  V30 37 1 2 32
M  V30 38 1 6 33
M  V30 39 1 7 34
M  V30 40 1 11 35
M  V30 41 1 13 36
M  V30 42 1 15 37
M  V30 43 1 15 38
M  V30 44 1 17 39
M  V30 45 1 17 40
M  V30 46 1 18 41
M  V30 47 1 18 42
M  V30 48 1 19 43
M  V30 49 1 19 44
M  V30 50 1 20 45
M  V30 51 1 20 46
M  V30 52 1 21 47
M  V30 53 1 21 48
M  V30 54 1 22 49
M  V30 55 1 23 50
M  V30 56 1 25 51
M  V30 57 1 27 52
M  V30 58 1 29 53
M  V30 END BOND
M  V30 END CTAB
M  END
>  <Dataset>  (561) 
ChEMBL_Kinases

>  <Ligand_Instance>  (561) 
nan

>  <PDB_ID>  (561) 
nan

>  <Standardized_SMILES>  (561) 
c1csc(-c2ccc3c(-c4cc5cc(CN6CCCCC6)ccc5[nH]4)n[nH]c3c2)n1

>  <Name>  (561) 
nan

>  <Pocket>  (561) 
nan

>  <ATP_Site>  (561) 
nan

>  <Peripheral>  (561) 
nan

>  <Num_H_Atoms_ProtBoundConf>  (561) 
nan

>  <Num_Resolved_Atoms>  (561) 
nan

>  <Num_Not_Resolved_Atoms>  (561) 
nan

$$$$
CHEMBL387385
     RDKit          3D

  0  0  0  0  0  0  0  0  0  0999 V3000
M  V30 BEGIN CTAB
M  V30 COUNTS 48 51 0 0 0
M  V30 BEGIN ATOM
M  V30 1 O 0.528630 1.720993 -1.880731 0
M  V30 2 C 0.792350 0.757611 -1.131807 0
M  V30 3 N 1.990861 0.995561 -0.416841 0
M  V30 4 C 2.773204 2.202283 -0.562285 0 CFG=2
M  V30 5 C 4.184906 1.922452 -1.012585 0
M  V30 6 O 4.905871 1.122241 -0.151336 0
M  V30 7 C 2.826830 2.862819 0.767516 0
M  V30 8 C 1.573454 2.894347 1.384442 0
M  V30 9 C 1.438977 3.478272 2.639871 0
M  V30 10 C 2.486556 4.036381 3.321489 0
M  V30 11 F 2.398140 4.612330 4.539954 0
M  V30 12 C 3.716877 3.984729 2.673669 0
M  V30 13 Cl 5.175088 4.652559 3.399497 0
M  V30 14 C 3.890527 3.415602 1.431164 0
M  V30 15 C 0.088632 -0.499778 -0.900750 0
M  V30 16 C 0.260652 -1.615357 -0.126301 0
M  V30 17 C -0.793314 -2.467617 -0.382579 0
M  V30 18 C -0.926112 -3.763205 0.279382 0
M  V30 19 N 0.018741 -4.709463 0.129554 0
M  V30 20 N -0.290974 -5.793007 0.804207 0
M  V30 21 C -1.478315 -5.596653 1.438007 0
M  V30 22 C -1.865677 -4.309154 1.095675 0
M  V30 23 C -3.063056 -3.568284 1.491029 0
M  V30 24 C -3.182811 -2.407718 2.213304 0
M  V30 25 C -4.436325 -1.902203 2.457707 0
M  V30 26 C -5.585042 -2.505396 2.011544 0
M  V30 27 C -5.470884 -3.673917 1.283844 0
M  V30 28 Cl -6.965506 -4.406842 0.735883 0
M  V30 29 C -4.207845 -4.207066 1.022658 0
M  V30 30 C -1.618374 -1.864616 -1.324834 0
M  V30 31 N -1.056605 -0.675768 -1.617170 0
M  V30 32 H 2.426223 0.325612 0.283285 0
M  V30 33 H 2.358172 2.931539 -1.278504 0
M  V30 34 H 4.203386 1.525654 -2.068400 0
M  V30 35 H 4.704482 2.900136 -1.090389 0
M  V30 36 H 5.258167 0.321782 -0.655828 0
M  V30 37 H 0.652593 2.488806 0.959118 0
M  V30 38 H 0.473485 3.514067 3.138604 0
M  V30 39 H 4.810931 3.349735 0.891154 0
M  V30 40 H 1.126080 -1.661428 0.519770 0
M  V30 41 H 0.260408 -6.667856 0.861556 0
M  V30 42 H -2.057688 -6.243078 2.080306 0
M  V30 43 H -2.234071 -2.012219 2.517165 0
M  V30 44 H -4.465652 -0.978032 3.036669 0
M  V30 45 H -6.558270 -2.076595 2.224277 0
M  V30 46 H -4.259288 -5.119103 0.446525 0
M  V30 47 H -2.498429 -2.370224 -1.659223 0
M  V30 48 H -1.565962 -0.088149 -2.324537 0
M  V30 END ATOM
M  V30 BEGIN BOND
M  V30 1 2 1 2
M  V30 2 1 2 3
M  V30 3 1 3 4
M  V30 4 1 4 5
M  V30 5 1 5 6
M  V30 6 1 4 7
M  V30 7 2 7 8
M  V30 8 1 8 9
M  V30 9 2 9 10
M  V30 10 1 10 11
M  V30 11 1 10 12
M  V30 12 1 12 13
M  V30 13 2 12 14
M  V30 14 1 2 15
M  V30 15 2 15 16
M  V30 16 1 16 17
M  V30 17 1 17 18
M  V30 18 2 18 19
M  V30 19 1 19 20
M  V30 20 1 20 21
M  V30 21 2 21 22
M  V30 22 1 22 23
M  V30 23 2 23 24
M  V30 24 1 24 25
M  V30 25 2 25 26
M  V30 26 1 26 27
M  V30 27 1 27 28
M  V30 28 2 27 29
M  V30 29 2 17 30
M  V30 30 1 30 31
M  V30 31 1 14 7
M  V30 32 1 31 15
M  V30 33 1 22 18
M  V30 34 1 29 23
M  V30 35 1 3 32
M  V30 36 1 4 33 CFG=3
M  V30 37 1 5 34
M  V30 38 1 5 35
M  V30 39 1 6 36
M  V30 40 1 8 37
M  V30 41 1 9 38
M  V30 42 1 14 39
M  V30 43 1 16 40
M  V30 44 1 20 41
M  V30 45 1 21 42
M  V30 46 1 24 43
M  V30 47 1 25 44
M  V30 48 1 26 45
M  V30 49 1 29 46
M  V30 50 1 30 47
M  V30 51 1 31 48
M  V30 END BOND
M  V30 END CTAB
M  END
>  <Dataset>  (562) 
ChEMBL_Kinases

>  <Ligand_Instance>  (562) 
nan

>  <PDB_ID>  (562) 
nan

>  <Standardized_SMILES>  (562) 
O=C(N[C@H](CO)c1ccc(F)c(Cl)c1)c1cc(-c2n[nH]cc2-c2cccc(Cl)c2)c[nH]1

>  <Name>  (562) 
nan

>  <Pocket>  (562) 
nan

>  <ATP_Site>  (562) 
nan

>  <Peripheral>  (562) 
nan

>  <Num_H_Atoms_ProtBoundConf>  (562) 
nan

>  <Num_Resolved_Atoms>  (562) 
nan

>  <Num_Not_Resolved_Atoms>  (562) 
nan

$$$$
CHEMBL387448
     RDKit          3D

  0  0  0  0  0  0  0  0  0  0999 V3000
M  V30 BEGIN CTAB
M  V30 COUNTS 45 47 0 0 0
M  V30 BEGIN ATOM
M  V30 1 C 1.628009 -4.470649 1.285608 0
M  V30 2 O 1.153517 -3.641437 0.246512 0
M  V30 3 C 1.695104 -3.785688 -1.016776 0
M  V30 4 C 2.677669 -4.716887 -1.272581 0
M  V30 5 C 3.199145 -4.842336 -2.541273 0
M  V30 6 C 2.765836 -4.055161 -3.585437 0
M  V30 7 C 1.784474 -3.147656 -3.259347 0
M  V30 8 C 1.195428 -2.947116 -2.005291 0
M  V30 9 C 0.185111 -1.916961 -1.853634 0
M  V30 10 O -0.682819 -2.047297 -2.776473 0
M  V30 11 C -0.002502 -0.836505 -0.904471 0
M  V30 12 C 0.836001 -0.463284 0.109720 0
M  V30 13 N 0.571477 0.568666 0.931886 0
M  V30 14 C -0.569860 1.268498 0.750642 0
M  V30 15 N -0.832310 2.351125 1.624802 0
M  V30 16 C 0.065790 2.710990 2.672229 0
M  V30 17 C -0.470293 3.912218 3.453802 0
M  V30 18 C -1.759318 3.546517 4.120970 0
M  V30 19 N -2.031980 2.137957 3.942146 0
M  V30 20 C -0.969025 1.276088 4.352589 0
M  V30 21 C 0.326743 1.639721 3.684961 0
M  V30 22 N -1.424180 0.937776 -0.234123 0
M  V30 23 C -1.150223 -0.090777 -1.045379 0
M  V30 24 N -2.156764 -0.307990 -2.034328 0
M  V30 25 H 2.686114 -4.191830 1.536430 0
M  V30 26 H 1.037792 -4.285691 2.207263 0
M  V30 27 H 1.624736 -5.531108 1.012487 0
M  V30 28 H 3.035641 -5.347526 -0.470538 0
M  V30 29 H 3.972097 -5.575029 -2.741835 0
M  V30 30 H 3.128041 -4.098371 -4.602602 0
M  V30 31 H 1.417279 -2.503404 -4.074339 0
M  V30 32 H 1.742352 -1.015550 0.242879 0
M  V30 33 H -1.715307 2.902192 1.494113 0
M  V30 34 H 1.028443 3.027023 2.231139 0
M  V30 35 H 0.271016 4.086220 4.277810 0
M  V30 36 H -0.509434 4.805882 2.813270 0
M  V30 37 H -1.821407 3.799313 5.179285 0
M  V30 38 H -2.577503 4.079673 3.554970 0
M  V30 39 H -2.929187 1.853788 4.343511 0
M  V30 40 H -1.238729 0.251911 3.998884 0
M  V30 41 H -0.855761 1.193851 5.465943 0
M  V30 42 H 0.871027 0.771190 3.284547 0
M  V30 43 H 0.987773 2.093918 4.462095 0
M  V30 44 H -2.536737 0.283987 -2.814365 0
M  V30 45 H -2.824441 -1.053257 -2.327555 0
M  V30 END ATOM
M  V30 BEGIN BOND
M  V30 1 1 1 2
M  V30 2 1 2 3
M  V30 3 2 3 4
M  V30 4 1 4 5
M  V30 5 2 5 6
M  V30 6 1 6 7
M  V30 7 2 7 8
M  V30 8 1 8 9
M  V30 9 2 9 10
M  V30 10 1 9 11
M  V30 11 2 11 12
M  V30 12 1 12 13
M  V30 13 2 13 14
M  V30 14 1 14 15
M  V30 15 1 15 16
M  V30 16 1 16 17
M  V30 17 1 17 18
M  V30 18 1 18 19
M  V30 19 1 19 20
M  V30 20 1 20 21
M  V30 21 1 14 22
M  V30 22 2 22 23
M  V30 23 1 23 24
M  V30 24 1 8 3
M  V30 25 1 23 11
M  V30 26 1 21 16
M  V30 27 1 1 25
M  V30 28 1 1 26
M  V30 29 1 1 27
M  V30 30 1 4 28
M  V30 31 1 5 29
M  V30 32 1 6 30
M  V30 33 1 7 31
M  V30 34 1 12 32
M  V30 35 1 15 33
M  V30 36 1 16 34
M  V30 37 1 17 35
M  V30 38 1 17 36
M  V30 39 1 18 37
M  V30 40 1 18 38
M  V30 41 1 19 39
M  V30 42 1 20 40
M  V30 43 1 20 41
M  V30 44 1 21 42
M  V30 45 1 21 43
M  V30 46 1 24 44
M  V30 47 1 24 45
M  V30 END BOND
M  V30 END CTAB
M  END
>  <Dataset>  (563) 
ChEMBL_Kinases

>  <Ligand_Instance>  (563) 
nan

>  <PDB_ID>  (563) 
nan

>  <Standardized_SMILES>  (563) 
COc1ccccc1C(=O)c1cnc(NC2CCNCC2)nc1N

>  <Name>  (563) 
nan

>  <Pocket>  (563) 
nan

>  <ATP_Site>  (563) 
nan

>  <Peripheral>  (563) 
nan

>  <Num_H_Atoms_ProtBoundConf>  (563) 
nan

>  <Num_Resolved_Atoms>  (563) 
nan

>  <Num_Not_Resolved_Atoms>  (563) 
nan

$$$$
CHEMBL3589668
     RDKit          3D

  0  0  0  0  0  0  0  0  0  0999 V3000
M  V30 BEGIN CTAB
M  V30 COUNTS 30 33 0 0 0
M  V30 BEGIN ATOM
M  V30 1 O -0.037116 -2.057459 4.430891 0
M  V30 2 C 0.677015 -1.912833 3.430753 0
M  V30 3 O 1.645592 -2.584602 4.139559 0
M  V30 4 C 0.880958 -1.424008 2.080327 0
M  V30 5 N 2.082800 -1.635972 1.542886 0
M  V30 6 C 2.507356 -1.287746 0.338229 0
M  V30 7 C 3.787959 -1.578367 -0.078960 0
M  V30 8 C 4.107903 -1.157718 -1.366168 0
M  V30 9 Cl 5.728753 -1.507447 -1.937640 0
M  V30 10 C 3.181044 -0.492525 -2.155087 0
M  V30 11 C 1.897342 -0.224496 -1.681021 0
M  V30 12 C 1.560602 -0.633121 -0.408044 0
M  V30 13 C 0.284444 -0.347570 0.017462 0
M  V30 14 N -0.772572 0.265707 -0.534600 0
M  V30 15 C -1.764113 0.248654 0.368326 0
M  V30 16 C -3.043345 0.749171 0.279225 0
M  V30 17 Cl -3.568264 1.549238 -1.183348 0
M  V30 18 C -3.896779 0.612517 1.348184 0
M  V30 19 C -3.444956 -0.033544 2.504936 0
M  V30 20 C -2.160561 -0.517555 2.549997 0
M  V30 21 C -1.307297 -0.388140 1.498625 0
M  V30 22 C -0.014676 -0.770629 1.292416 0
M  V30 23 H 1.573190 -3.528917 4.489515 0
M  V30 24 H 4.456885 -2.100485 0.591242 0
M  V30 25 H 3.527202 -0.201426 -3.154405 0
M  V30 26 H 1.201872 0.297313 -2.327387 0
M  V30 27 H -0.788162 0.673697 -1.499641 0
M  V30 28 H -4.890800 1.013912 1.249060 0
M  V30 29 H -4.215185 -0.076977 3.278059 0
M  V30 30 H -1.994215 -0.965813 3.479513 0
M  V30 END ATOM
M  V30 BEGIN BOND
M  V30 1 2 1 2
M  V30 2 1 2 3
M  V30 3 1 2 4
M  V30 4 2 4 5
M  V30 5 1 5 6
M  V30 6 2 6 7
M  V30 7 1 7 8
M  V30 8 1 8 9
M  V30 9 2 8 10
M  V30 10 1 10 11
M  V30 11 2 11 12
M  V30 12 1 12 13
M  V30 13 1 13 14
M  V30 14 1 14 15
M  V30 15 2 15 16
M  V30 16 1 16 17
M  V30 17 1 16 18
M  V30 18 2 18 19
M  V30 19 1 19 20
M  V30 20 2 20 21
M  V30 21 1 21 22
M  V30 22 1 22 4
M  V30 23 1 12 6
M  V30 24 2 22 13
M  V30 25 1 21 15
M  V30 26 1 3 23
M  V30 27 1 7 24
M  V30 28 1 10 25
M  V30 29 1 11 26
M  V30 30 1 14 27
M  V30 31 1 18 28
M  V30 32 1 19 29
M  V30 33 1 20 30
M  V30 END BOND
M  V30 END CTAB
M  END
>  <Dataset>  (564) 
ChEMBL_Kinases

>  <Ligand_Instance>  (564) 
nan

>  <PDB_ID>  (564) 
nan

>  <Standardized_SMILES>  (564) 
O=C(O)c1nc2cc(Cl)ccc2c2[nH]c3c(Cl)cccc3c12

>  <Name>  (564) 
nan

>  <Pocket>  (564) 
nan

>  <ATP_Site>  (564) 
nan

>  <Peripheral>  (564) 
nan

>  <Num_H_Atoms_ProtBoundConf>  (564) 
nan

>  <Num_Resolved_Atoms>  (564) 
nan

>  <Num_Not_Resolved_Atoms>  (564) 
nan

$$$$
CHEMBL3661033
     RDKit          3D

  0  0  0  0  0  0  0  0  0  0999 V3000
M  V30 BEGIN CTAB
M  V30 COUNTS 41 44 0 0 0
M  V30 BEGIN ATOM
M  V30 1 C 0.728673 -4.951153 1.659679 0
M  V30 2 C 0.921732 -3.490645 1.365276 0
M  V30 3 C 1.676323 -3.043970 0.303101 0
M  V30 4 C 1.821397 -1.677600 0.084999 0
M  V30 5 N 2.588771 -1.184829 -1.036006 0
M  V30 6 C 1.525624 -0.777122 -1.923753 0
M  V30 7 N 0.723676 -1.344698 -2.836896 0
M  V30 8 N -0.093941 -0.467546 -3.376470 0
M  V30 9 C 0.096855 0.764389 -2.863982 0
M  V30 10 N -0.510219 1.904920 -3.135788 0
M  V30 11 C -0.154083 3.022898 -2.499488 0
M  V30 12 C 0.855144 2.932448 -1.563009 0
M  V30 13 F 1.196480 4.079405 -0.930463 0
M  V30 14 C 1.489869 1.743951 -1.278304 0
M  V30 15 C 1.124969 0.563544 -1.941276 0
M  V30 16 N 1.218006 -0.845969 0.922833 0
M  V30 17 C 0.459786 -1.227830 1.990427 0
M  V30 18 C -0.091908 -0.105765 2.729149 0
M  V30 19 C -0.714910 0.890543 1.961783 0
M  V30 20 C -1.289489 2.039112 2.451610 0
M  V30 21 C -1.259360 2.243262 3.816813 0
M  V30 22 C -0.660473 1.293923 4.607875 0
M  V30 23 C -0.097264 0.160624 4.075958 0
M  V30 24 C 0.318768 -2.575953 2.200651 0
M  V30 25 C -0.509955 -3.001433 3.333055 0
M  V30 26 H -0.255616 -5.302164 1.296839 0
M  V30 27 H 1.507695 -5.499006 1.065382 0
M  V30 28 H 0.928123 -5.213369 2.705493 0
M  V30 29 H 2.140478 -3.773592 -0.340209 0
M  V30 30 H 3.622300 -1.118684 -1.209975 0
M  V30 31 H -0.757134 -0.834226 -4.108771 0
M  V30 32 H -0.671434 3.929798 -2.745688 0
M  V30 33 H 2.272458 1.674482 -0.551230 0
M  V30 34 H -0.776323 0.797835 0.876143 0
M  V30 35 H -1.754995 2.778567 1.805382 0
M  V30 36 H -1.694305 3.125041 4.267707 0
M  V30 37 H -0.583978 1.360791 5.689559 0
M  V30 38 H 0.380130 -0.587473 4.689507 0
M  V30 39 H 0.063813 -2.870220 4.275964 0
M  V30 40 H -1.471745 -2.415945 3.429913 0
M  V30 41 H -0.761104 -4.092392 3.291293 0
M  V30 END ATOM
M  V30 BEGIN BOND
M  V30 1 1 1 2
M  V30 2 2 2 3
M  V30 3 1 3 4
M  V30 4 1 4 5
M  V30 5 1 5 6
M  V30 6 2 6 7
M  V30 7 1 7 8
M  V30 8 1 8 9
M  V30 9 2 9 10
M  V30 10 1 10 11
M  V30 11 2 11 12
M  V30 12 1 12 13
M  V30 13 1 12 14
M  V30 14 2 14 15
M  V30 15 2 4 16
M  V30 16 1 16 17
M  V30 17 1 17 18
M  V30 18 2 18 19
M  V30 19 1 19 20
M  V30 20 2 20 21
M  V30 21 1 21 22
M  V30 22 2 22 23
M  V30 23 2 17 24
M  V30 24 1 24 25
M  V30 25 1 24 2
M  V30 26 1 15 6
M  V30 27 1 23 18
M  V30 28 1 15 9
M  V30 29 1 1 26
M  V30 30 1 1 27
M  V30 31 1 1 28
M  V30 32 1 3 29
M  V30 33 1 5 30
M  V30 34 1 8 31
M  V30 35 1 11 32
M  V30 36 1 14 33
M  V30 37 1 19 34
M  V30 38 1 20 35
M  V30 39 1 21 36
M  V30 40 1 22 37
M  V30 41 1 23 38
M  V30 42 1 25 39
M  V30 43 1 25 40
M  V30 44 1 25 41
M  V30 END BOND
M  V30 END CTAB
M  END
>  <Dataset>  (565) 
ChEMBL_Kinases

>  <Ligand_Instance>  (565) 
nan

>  <PDB_ID>  (565) 
nan

>  <Standardized_SMILES>  (565) 
Cc1cc(Nc2n[nH]c3ncc(F)cc23)nc(-c2ccccc2)c1C

>  <Name>  (565) 
nan

>  <Pocket>  (565) 
nan

>  <ATP_Site>  (565) 
nan

>  <Peripheral>  (565) 
nan

>  <Num_H_Atoms_ProtBoundConf>  (565) 
nan

>  <Num_Resolved_Atoms>  (565) 
nan

>  <Num_Not_Resolved_Atoms>  (565) 
nan

$$$$
CHEMBL3661032
     RDKit          3D

  0  0  0  0  0  0  0  0  0  0999 V3000
M  V30 BEGIN CTAB
M  V30 COUNTS 41 44 0 0 0
M  V30 BEGIN ATOM
M  V30 1 C 1.787943 -4.040078 1.762462 0
M  V30 2 C 1.618907 -2.686351 1.173327 0
M  V30 3 C 1.591554 -2.436375 -0.179774 0
M  V30 4 C 1.436740 -1.174854 -0.701289 0
M  V30 5 C 1.402255 -0.916370 -2.136296 0
M  V30 6 C 1.471668 -1.918808 -3.097290 0
M  V30 7 C 1.432841 -1.627745 -4.446200 0
M  V30 8 C 1.322901 -0.315129 -4.894919 0
M  V30 9 C 1.253795 0.684229 -3.945664 0
M  V30 10 C 1.292076 0.397203 -2.590658 0
M  V30 11 Cl 1.208857 1.747775 -1.458900 0
M  V30 12 N 1.312694 -0.194814 0.208272 0
M  V30 13 C 1.325156 -0.326919 1.524679 0
M  V30 14 N 1.178002 0.854082 2.342705 0
M  V30 15 C -0.130035 1.465067 2.338571 0
M  V30 16 N -0.352352 2.481228 1.476405 0
M  V30 17 N -1.596213 2.936989 1.583061 0
M  V30 18 C -2.224325 2.203638 2.545687 0
M  V30 19 N -3.468404 2.192966 3.090439 0
M  V30 20 C -3.760618 1.307899 4.048736 0
M  V30 21 C -2.844875 0.391344 4.518240 0
M  V30 22 F -3.125823 -0.525415 5.500684 0
M  V30 23 C -1.545399 0.341340 4.007067 0
M  V30 24 C -1.308544 1.278162 3.023460 0
M  V30 25 C 1.484515 -1.616490 2.023947 0
M  V30 26 C 1.509485 -1.820485 3.496824 0
M  V30 27 H 1.882929 -4.799427 0.988057 0
M  V30 28 H 2.619630 -4.086104 2.501342 0
M  V30 29 H 0.829716 -4.261406 2.298514 0
M  V30 30 H 1.704511 -3.293498 -0.808302 0
M  V30 31 H 1.556877 -2.938497 -2.795559 0
M  V30 32 H 1.487784 -2.437231 -5.185631 0
M  V30 33 H 1.288738 -0.099395 -5.952668 0
M  V30 34 H 1.165883 1.738987 -4.255058 0
M  V30 35 H 1.806907 1.421059 2.974678 0
M  V30 36 H -2.128314 3.689982 1.104029 0
M  V30 37 H -4.751837 1.295401 4.485843 0
M  V30 38 H -0.799048 -0.343431 4.332065 0
M  V30 39 H 0.561299 -2.279299 3.833678 0
M  V30 40 H 1.731757 -0.858243 4.038661 0
M  V30 41 H 2.323202 -2.527039 3.781856 0
M  V30 END ATOM
M  V30 BEGIN BOND
M  V30 1 1 1 2
M  V30 2 2 2 3
M  V30 3 1 3 4
M  V30 4 1 4 5
M  V30 5 2 5 6
M  V30 6 1 6 7
M  V30 7 2 7 8
M  V30 8 1 8 9
M  V30 9 2 9 10
M  V30 10 1 10 11
M  V30 11 2 4 12
M  V30 12 1 12 13
M  V30 13 1 13 14
M  V30 14 1 14 15
M  V30 15 2 15 16
M  V30 16 1 16 17
M  V30 17 1 17 18
M  V30 18 2 18 19
M  V30 19 1 19 20
M  V30 20 2 20 21
M  V30 21 1 21 22
M  V30 22 1 21 23
M  V30 23 2 23 24
M  V30 24 2 13 25
M  V30 25 1 25 26
M  V30 26 1 25 2
M  V30 27 1 10 5
M  V30 28 1 24 15
M  V30 29 1 24 18
M  V30 30 1 1 27
M  V30 31 1 1 28
M  V30 32 1 1 29
M  V30 33 1 3 30
M  V30 34 1 6 31
M  V30 35 1 7 32
M  V30 36 1 8 33
M  V30 37 1 9 34
M  V30 38 1 14 35
M  V30 39 1 17 36
M  V30 40 1 20 37
M  V30 41 1 23 38
M  V30 42 1 26 39
M  V30 43 1 26 40
M  V30 44 1 26 41
M  V30 END BOND
M  V30 END CTAB
M  END
>  <Dataset>  (566) 
ChEMBL_Kinases

>  <Ligand_Instance>  (566) 
nan

>  <PDB_ID>  (566) 
nan

>  <Standardized_SMILES>  (566) 
Cc1cc(-c2ccccc2Cl)nc(Nc2n[nH]c3ncc(F)cc23)c1C

>  <Name>  (566) 
nan

>  <Pocket>  (566) 
nan

>  <ATP_Site>  (566) 
nan

>  <Peripheral>  (566) 
nan

>  <Num_H_Atoms_ProtBoundConf>  (566) 
nan

>  <Num_Resolved_Atoms>  (566) 
nan

>  <Num_Not_Resolved_Atoms>  (566) 
nan

$$$$
CHEMBL386636
     RDKit          3D

  0  0  0  0  0  0  0  0  0  0999 V3000
M  V30 BEGIN CTAB
M  V30 COUNTS 40 45 0 0 0
M  V30 BEGIN ATOM
M  V30 1 O 0.104858 -3.161537 3.618221 0
M  V30 2 C 0.642253 -2.187746 3.090441 0
M  V30 3 N 1.764680 -1.817647 3.866749 0
M  V30 4 C 2.350562 -0.675500 3.198548 0
M  V30 5 O 3.373619 -0.141648 3.683794 0
M  V30 6 C 1.507864 -0.450225 2.046584 0
M  V30 7 C 0.469254 -1.347098 1.955977 0
M  V30 8 C -0.414064 -1.292042 0.944338 0
M  V30 9 C -0.328026 -0.347206 -0.044672 0
M  V30 10 C 0.702125 0.576065 0.006006 0
M  V30 11 N 1.008256 1.604200 -0.840483 0
M  V30 12 C 2.105572 2.201547 -0.343109 0
M  V30 13 C 2.761642 3.290264 -0.881583 0
M  V30 14 C 3.876042 3.768485 -0.228599 0
M  V30 15 C 4.276251 3.140027 0.920846 0
M  V30 16 C 3.565204 2.061933 1.387960 0
M  V30 17 C 2.458856 1.528163 0.807070 0
M  V30 18 C 1.593520 0.496812 1.055504 0
M  V30 19 C -1.253351 -0.235290 -1.163097 0
M  V30 20 C -2.337849 -1.218400 -1.267597 0
M  V30 21 C -2.429434 -2.205362 -0.193744 0
M  V30 22 C -3.511152 -3.049974 -0.371379 0
M  V30 23 C -3.696824 -4.042528 0.598575 0
M  V30 24 C -2.811326 -4.124276 1.656896 0
M  V30 25 C -1.792618 -3.207509 1.681339 0
M  V30 26 C -1.505431 -2.217191 0.823825 0
M  V30 27 H 2.190027 -2.210833 4.764377 0
M  V30 28 H 0.484322 1.878004 -1.717305 0
M  V30 29 H 2.442992 3.783787 -1.788928 0
M  V30 30 H 4.385105 4.616916 -0.650632 0
M  V30 31 H 5.141505 3.500973 1.439749 0
M  V30 32 H 3.924662 1.627237 2.273054 0
M  V30 33 H -0.620319 -0.339102 -2.095650 0
M  V30 34 H -1.595245 0.828725 -1.206474 0
M  V30 35 H -3.314919 -0.653322 -1.289865 0
M  V30 36 H -2.329027 -1.792078 -2.237471 0
M  V30 37 H -4.218005 -3.021078 -1.172979 0
M  V30 38 H -4.530811 -4.732281 0.506810 0
M  V30 39 H -3.020981 -4.914560 2.361944 0
M  V30 40 H -1.216311 -3.367149 2.510787 0
M  V30 END ATOM
M  V30 BEGIN BOND
M  V30 1 2 1 2
M  V30 2 1 2 3
M  V30 3 1 3 4
M  V30 4 2 4 5
M  V30 5 1 4 6
M  V30 6 2 6 7
M  V30 7 1 7 8
M  V30 8 2 8 9
M  V30 9 1 9 10
M  V30 10 1 10 11
M  V30 11 1 11 12
M  V30 12 2 12 13
M  V30 13 1 13 14
M  V30 14 2 14 15
M  V30 15 1 15 16
M  V30 16 2 16 17
M  V30 17 1 17 18
M  V30 18 1 9 19
M  V30 19 1 19 20
M  V30 20 1 20 21
M  V30 21 2 21 22
M  V30 22 1 22 23
M  V30 23 2 23 24
M  V30 24 1 24 25
M  V30 25 2 25 26
M  V30 26 1 7 2
M  V30 27 1 26 8
M  V30 28 1 18 6
M  V30 29 1 26 21
M  V30 30 2 18 10
M  V30 31 1 17 12
M  V30 32 1 3 27
M  V30 33 1 11 28
M  V30 34 1 13 29
M  V30 35 1 14 30
M  V30 36 1 15 31
M  V30 37 1 16 32
M  V30 38 1 19 33
M  V30 39 1 19 34
M  V30 40 1 20 35
M  V30 41 1 20 36
M  V30 42 1 22 37
M  V30 43 1 23 38
M  V30 44 1 24 39
M  V30 45 1 25 40
M  V30 END BOND
M  V30 END CTAB
M  END
>  <Dataset>  (567) 
ChEMBL_Kinases

>  <Ligand_Instance>  (567) 
nan

>  <PDB_ID>  (567) 
nan

>  <Standardized_SMILES>  (567) 
O=C1NC(=O)c2c1c1c(c3[nH]c4ccccc4c23)CCc2ccccc2-1

>  <Name>  (567) 
nan

>  <Pocket>  (567) 
nan

>  <ATP_Site>  (567) 
nan

>  <Peripheral>  (567) 
nan

>  <Num_H_Atoms_ProtBoundConf>  (567) 
nan

>  <Num_Resolved_Atoms>  (567) 
nan

>  <Num_Not_Resolved_Atoms>  (567) 
nan

$$$$
CHEMBL3819633
     RDKit          3D

  0  0  0  0  0  0  0  0  0  0999 V3000
M  V30 BEGIN CTAB
M  V30 COUNTS 67 72 0 0 0
M  V30 BEGIN ATOM
M  V30 1 C 6.296575 -1.508806 4.448874 0
M  V30 2 N 5.947110 -2.234570 3.236612 0
M  V30 3 C 4.959966 -1.856186 2.300969 0
M  V30 4 N 5.365011 -1.374776 1.129430 0
M  V30 5 C 4.482784 -0.978342 0.154576 0
M  V30 6 C 3.136827 -1.123950 0.493106 0
M  V30 7 C 2.284522 -0.720063 -0.508592 0
M  V30 8 C 0.936180 -0.821608 -0.274100 0
M  V30 9 C -0.275894 -0.528780 -1.060006 0
M  V30 10 C -0.842104 0.708873 -0.810101 0
M  V30 11 C -2.006571 1.002491 -1.488994 0
M  V30 12 C -2.535364 0.066178 -2.363210 0
M  V30 13 N -3.773008 0.409183 -2.996457 0
M  V30 14 C -4.167655 0.806634 -4.218626 0
M  V30 15 C -5.500848 1.053785 -4.483079 0
M  V30 16 C -6.442188 0.894382 -3.491981 0
M  V30 17 C -6.076084 0.485107 -2.215320 0
M  V30 18 C -7.118168 0.310504 -1.161062 0
M  V30 19 C -4.712031 0.250278 -2.006559 0
M  V30 20 O -4.538630 -0.115392 -0.797727 0
M  V30 21 C -1.978478 -1.175352 -2.623608 0
M  V30 22 C -0.818309 -1.449793 -1.938976 0
M  V30 23 C -0.138428 -2.729204 -2.149858 0
M  V30 24 C 0.698933 -2.746985 -3.439849 0
M  V30 25 C -0.459101 -3.681033 -3.220449 0
M  V30 26 C 0.500224 -1.324924 0.958768 0
M  V30 27 O -0.684624 -1.497855 1.370251 0
M  V30 28 N 1.369990 -1.711246 1.914034 0
M  V30 29 C 1.009698 -2.221842 3.221557 0
M  V30 30 C 0.901641 -1.139652 4.258893 0 CFG=2
M  V30 31 C -0.103035 -0.074481 3.974358 0
M  V30 32 N -0.104407 0.827695 5.110644 0
M  V30 33 C 1.132179 1.602766 5.007913 0
M  V30 34 C 2.238693 0.755196 4.467229 0
M  V30 35 O 2.100572 -0.593754 4.641579 0
M  V30 36 C 2.707452 -1.620646 1.701275 0
M  V30 37 N 3.656627 -1.982825 2.597059 0
M  V30 38 H 5.428813 -1.551120 5.170979 0
M  V30 39 H 7.128449 -2.014292 4.973516 0
M  V30 40 H 6.622900 -0.473693 4.235203 0
M  V30 41 H 6.441568 -3.105699 2.991957 0
M  V30 42 H 4.823999 -0.582671 -0.793879 0
M  V30 43 H 2.461580 -0.318932 -1.491690 0
M  V30 44 H -0.421256 1.425625 -0.120747 0
M  V30 45 H -2.525987 1.962575 -1.359823 0
M  V30 46 H -3.269334 0.862090 -4.829213 0
M  V30 47 H -5.666166 1.365052 -5.504227 0
M  V30 48 H -7.479638 1.102407 -3.760116 0
M  V30 49 H -8.116594 0.561916 -1.519967 0
M  V30 50 H -7.073044 -0.778874 -0.868244 0
M  V30 51 H -6.823116 0.858722 -0.224066 0
M  V30 52 H -2.412184 -1.873101 -3.312272 0
M  V30 53 H 0.445459 -3.148263 -1.297053 0
M  V30 54 H 1.696764 -3.214419 -3.425291 0
M  V30 55 H 0.587521 -1.949838 -4.173318 0
M  V30 56 H -1.291825 -3.577335 -3.935519 0
M  V30 57 H -0.237745 -4.769342 -3.036267 0
M  V30 58 H 1.706961 -2.981995 3.605407 0
M  V30 59 H -0.041536 -2.610370 3.092202 0
M  V30 60 H 0.518957 -1.677368 5.187645 0
M  V30 61 H 0.107098 0.513542 3.074288 0
M  V30 62 H -1.121578 -0.534309 3.893339 0
M  V30 63 H -0.891306 1.497937 5.088799 0
M  V30 64 H 0.925686 2.460198 4.323390 0
M  V30 65 H 1.391924 2.073003 5.992109 0
M  V30 66 H 3.195859 1.042179 4.992868 0
M  V30 67 H 2.448475 0.975155 3.396190 0
M  V30 END ATOM
M  V30 BEGIN BOND
M  V30 1 1 1 2
M  V30 2 1 2 3
M  V30 3 2 3 4
M  V30 4 1 4 5
M  V30 5 2 5 6
M  V30 6 1 6 7
M  V30 7 2 7 8
M  V30 8 1 8 9
M  V30 9 2 9 10
M  V30 10 1 10 11
M  V30 11 2 11 12
M  V30 12 1 12 13
M  V30 13 1 13 14
M  V30 14 2 14 15
M  V30 15 1 15 16
M  V30 16 2 16 17
M  V30 17 1 17 18
M  V30 18 1 17 19
M  V30 19 2 19 20
M  V30 20 1 12 21
M  V30 21 2 21 22
M  V30 22 1 22 23
M  V30 23 1 23 24
M  V30 24 1 24 25
M  V30 25 1 8 26
M  V30 26 2 26 27
M  V30 27 1 26 28
M  V30 28 1 28 29
M  V30 29 1 29 30
M  V30 30 1 30 31
M  V30 31 1 31 32
M  V30 32 1 32 33
M  V30 33 1 33 34
M  V30 34 1 34 35
M  V30 35 1 28 36
M  V30 36 2 36 37
M  V30 37 1 37 3
M  V30 38 1 36 6
M  V30 39 1 22 9
M  V30 40 1 25 23
M  V30 41 1 35 30
M  V30 42 1 19 13
M  V30 43 1 1 38
M  V30 44 1 1 39
M  V30 45 1 1 40
M  V30 46 1 2 41
M  V30 47 1 5 42
M  V30 48 1 7 43
M  V30 49 1 10 44
M  V30 50 1 11 45
M  V30 51 1 14 46
M  V30 52 1 15 47
M  V30 53 1 16 48
M  V30 54 1 18 49
M  V30 55 1 18 50
M  V30 56 1 18 51
M  V30 57 1 21 52
M  V30 58 1 23 53
M  V30 59 1 24 54
M  V30 60 1 24 55
M  V30 61 1 25 56
M  V30 62 1 25 57
M  V30 63 1 29 58
M  V30 64 1 29 59
M  V30 65 1 30 60 CFG=1
M  V30 66 1 31 61
M  V30 67 1 31 62
M  V30 68 1 32 63
M  V30 69 1 33 64
M  V30 70 1 33 65
M  V30 71 1 34 66
M  V30 72 1 34 67
M  V30 END BOND
M  V30 END CTAB
M  END
>  <Dataset>  (568) 
ChEMBL_Kinases

>  <Ligand_Instance>  (568) 
nan

>  <PDB_ID>  (568) 
nan

>  <Standardized_SMILES>  (568) 
CNc1ncc2cc(-c3ccc(-n4cccc(C)c4=O)cc3C3CC3)c(=O)n(C[C@@H]3CNCCO3)c2n1

>  <Name>  (568) 
nan

>  <Pocket>  (568) 
nan

>  <ATP_Site>  (568) 
nan

>  <Peripheral>  (568) 
nan

>  <Num_H_Atoms_ProtBoundConf>  (568) 
nan

>  <Num_Resolved_Atoms>  (568) 
nan

>  <Num_Not_Resolved_Atoms>  (568) 
nan

$$$$
CHEMBL3823101
     RDKit          3D

  0  0  0  0  0  0  0  0  0  0999 V3000
M  V30 BEGIN CTAB
M  V30 COUNTS 49 51 0 0 0
M  V30 BEGIN ATOM
M  V30 1 C 1.868703 -4.019369 0.901205 0
M  V30 2 O 0.595244 -3.695939 1.417221 0
M  V30 3 C 0.137446 -2.398090 1.274855 0
M  V30 4 C 0.736615 -1.303656 0.685744 0
M  V30 5 C 0.081577 -0.081243 0.659520 0
M  V30 6 C 0.911807 0.941135 -0.015803 0
M  V30 7 C 0.793163 1.139451 -1.380786 0
M  V30 8 N 1.592714 2.091197 -1.894378 0
M  V30 9 C 1.542509 2.377645 -3.330433 0
M  V30 10 C 2.471698 2.834556 -1.172439 0
M  V30 11 O 3.185709 3.711661 -1.747780 0
M  V30 12 C 2.592698 2.638887 0.192290 0
M  V30 13 C 3.481430 3.383891 0.947987 0
M  V30 14 N 3.588056 3.177287 2.292834 0
M  V30 15 C 2.820779 2.239567 2.888754 0
M  V30 16 C 1.945924 1.512342 2.119126 0
M  V30 17 C 1.792256 1.675186 0.752222 0
M  V30 18 C -1.169587 0.080385 1.211201 0
M  V30 19 O -1.687305 1.351065 1.105762 0
M  V30 20 C -2.945527 1.739172 1.597788 0
M  V30 21 C -1.769316 -1.012037 1.799881 0
M  V30 22 C -1.126870 -2.245440 1.835114 0
M  V30 23 C -1.888038 -3.327904 2.494734 0
M  V30 24 N -2.508101 -4.267758 1.644586 0
M  V30 25 C -3.469951 -3.764882 0.723009 0
M  V30 26 C -1.787739 -5.406105 1.233297 0
M  V30 27 H 2.589872 -3.183304 1.011116 0
M  V30 28 H 1.833727 -4.342486 -0.161656 0
M  V30 29 H 2.341175 -4.858150 1.493567 0
M  V30 30 H 1.708325 -1.517388 0.280452 0
M  V30 31 H 0.111379 0.573069 -1.983818 0
M  V30 32 H 0.552873 2.087299 -3.737648 0
M  V30 33 H 2.320233 1.789486 -3.855150 0
M  V30 34 H 1.654752 3.463309 -3.528542 0
M  V30 35 H 4.107499 4.139541 0.499799 0
M  V30 36 H 2.863847 2.031793 3.959151 0
M  V30 37 H 1.317933 0.749314 2.589838 0
M  V30 38 H -2.948357 2.860416 1.640827 0
M  V30 39 H -3.135064 1.378415 2.630048 0
M  V30 40 H -3.790687 1.439547 0.945764 0
M  V30 41 H -2.737311 -0.858977 2.218743 0
M  V30 42 H -2.633508 -2.931048 3.208561 0
M  V30 43 H -1.166147 -3.898341 3.143587 0
M  V30 44 H -2.991663 -3.317587 -0.156131 0
M  V30 45 H -4.047958 -4.656660 0.342333 0
M  V30 46 H -4.218630 -3.098707 1.152478 0
M  V30 47 H -1.286018 -5.316736 0.247506 0
M  V30 48 H -1.103606 -5.772287 1.999052 0
M  V30 49 H -2.535660 -6.238975 1.070211 0
M  V30 END ATOM
M  V30 BEGIN BOND
M  V30 1 1 1 2
M  V30 2 1 2 3
M  V30 3 2 3 4
M  V30 4 1 4 5
M  V30 5 1 5 6
M  V30 6 2 6 7
M  V30 7 1 7 8
M  V30 8 1 8 9
M  V30 9 1 8 10
M  V30 10 2 10 11
M  V30 11 1 10 12
M  V30 12 2 12 13
M  V30 13 1 13 14
M  V30 14 2 14 15
M  V30 15 1 15 16
M  V30 16 2 16 17
M  V30 17 2 5 18
M  V30 18 1 18 19
M  V30 19 1 19 20
M  V30 20 1 18 21
M  V30 21 2 21 22
M  V30 22 1 22 23
M  V30 23 1 23 24
M  V30 24 1 24 25
M  V30 25 1 24 26
M  V30 26 1 22 3
M  V30 27 1 17 6
M  V30 28 1 17 12
M  V30 29 1 1 27
M  V30 30 1 1 28
M  V30 31 1 1 29
M  V30 32 1 4 30
M  V30 33 1 7 31
M  V30 34 1 9 32
M  V30 35 1 9 33
M  V30 36 1 9 34
M  V30 37 1 13 35
M  V30 38 1 15 36
M  V30 39 1 16 37
M  V30 40 1 20 38
M  V30 41 1 20 39
M  V30 42 1 20 40
M  V30 43 1 21 41
M  V30 44 1 23 42
M  V30 45 1 23 43
M  V30 46 1 25 44
M  V30 47 1 25 45
M  V30 48 1 25 46
M  V30 49 1 26 47
M  V30 50 1 26 48
M  V30 51 1 26 49
M  V30 END BOND
M  V30 END CTAB
M  END
>  <Dataset>  (569) 
ChEMBL_Kinases

>  <Ligand_Instance>  (569) 
nan

>  <PDB_ID>  (569) 
nan

>  <Standardized_SMILES>  (569) 
COc1cc(-c2cn(C)c(=O)c3cnccc23)c(OC)cc1CN(C)C

>  <Name>  (569) 
nan

>  <Pocket>  (569) 
nan

>  <ATP_Site>  (569) 
nan

>  <Peripheral>  (569) 
nan

>  <Num_H_Atoms_ProtBoundConf>  (569) 
nan

>  <Num_Resolved_Atoms>  (569) 
nan

>  <Num_Not_Resolved_Atoms>  (569) 
nan

$$$$
CHEMBL3823483
     RDKit          3D

  0  0  0  0  0  0  0  0  0  0999 V3000
M  V30 BEGIN CTAB
M  V30 COUNTS 25 27 0 0 0
M  V30 BEGIN ATOM
M  V30 1 N 0.131262 -2.949281 4.525222 0
M  V30 2 C 0.563438 -2.402872 3.268251 0
M  V30 3 N 1.611971 -2.901966 2.589151 0
M  V30 4 C 2.016816 -2.390594 1.412295 0
M  V30 5 C 1.309570 -1.304954 0.897350 0
M  V30 6 C 1.665190 -0.717246 -0.316345 0
M  V30 7 C 0.990153 0.357309 -0.857660 0
M  V30 8 C 1.390047 0.891778 -2.058232 0
M  V30 9 N 0.677613 1.943490 -2.522512 0
M  V30 10 C -0.371619 2.438077 -1.836669 0
M  V30 11 C -0.805477 1.931226 -0.628978 0
M  V30 12 C -0.080984 0.845675 -0.136005 0
M  V30 13 C -0.461033 0.293720 1.062169 0
M  V30 14 N -1.565835 0.800576 1.802416 0
M  V30 15 C 0.230423 -0.781784 1.583930 0
M  V30 16 N -0.131783 -1.341703 2.769872 0
M  V30 17 H -0.885875 -3.184179 4.490083 0
M  V30 18 H 0.665176 -3.133564 5.419639 0
M  V30 19 H 2.865074 -2.798676 0.868513 0
M  V30 20 H 2.497594 -1.122046 -0.844310 0
M  V30 21 H 2.238429 0.472094 -2.587118 0
M  V30 22 H -0.942630 3.285151 -2.214155 0
M  V30 23 H -1.659233 2.358703 -0.103446 0
M  V30 24 H -1.280195 1.188488 2.739025 0
M  V30 25 H -2.582646 0.817940 1.507477 0
M  V30 END ATOM
M  V30 BEGIN BOND
M  V30 1 1 1 2
M  V30 2 2 2 3
M  V30 3 1 3 4
M  V30 4 2 4 5
M  V30 5 1 5 6
M  V30 6 2 6 7
M  V30 7 1 7 8
M  V30 8 2 8 9
M  V30 9 1 9 10
M  V30 10 2 10 11
M  V30 11 1 11 12
M  V30 12 2 12 13
M  V30 13 1 13 14
M  V30 14 1 13 15
M  V30 15 2 15 16
M  V30 16 1 16 2
M  V30 17 1 15 5
M  V30 18 1 12 7
M  V30 19 1 1 17
M  V30 20 1 1 18
M  V30 21 1 4 19
M  V30 22 1 6 20
M  V30 23 1 8 21
M  V30 24 1 10 22
M  V30 25 1 11 23
M  V30 26 1 14 24
M  V30 27 1 14 25
M  V30 END BOND
M  V30 END CTAB
M  END
>  <Dataset>  (570) 
ChEMBL_Kinases

>  <Ligand_Instance>  (570) 
nan

>  <PDB_ID>  (570) 
nan

>  <Standardized_SMILES>  (570) 
Nc1ncc2cc3cnccc3c(N)c2n1

>  <Name>  (570) 
nan

>  <Pocket>  (570) 
nan

>  <ATP_Site>  (570) 
nan

>  <Peripheral>  (570) 
nan

>  <Num_H_Atoms_ProtBoundConf>  (570) 
nan

>  <Num_Resolved_Atoms>  (570) 
nan

>  <Num_Not_Resolved_Atoms>  (570) 
nan

$$$$
CHEMBL3823532
     RDKit          3D

  0  0  0  0  0  0  0  0  0  0999 V3000
M  V30 BEGIN CTAB
M  V30 COUNTS 25 27 0 0 0
M  V30 BEGIN ATOM
M  V30 1 N -3.107535 0.769092 3.538872 0
M  V30 2 C -1.957815 0.099481 3.042810 0
M  V30 3 N -1.428327 -0.960963 3.711848 0
M  V30 4 C -0.320734 -1.559906 3.173425 0
M  V30 5 C 0.150235 -1.022220 1.997461 0
M  V30 6 C 1.266482 -1.632278 1.456268 0
M  V30 7 C 1.885533 -1.245581 0.284770 0
M  V30 8 C 3.000413 -1.863894 -0.248580 0
M  V30 9 N 3.527072 -1.413129 -1.396060 0
M  V30 10 C 2.994753 -0.366933 -2.046705 0
M  V30 11 C 1.875630 0.297393 -1.564059 0
M  V30 12 C 1.328578 -0.160534 -0.384358 0
M  V30 13 C 0.215786 0.473178 0.125934 0
M  V30 14 N -0.415513 1.596477 -0.500976 0 CHG=1 VAL=4
M  V30 15 O -1.128780 1.683920 -1.512969 0
M  V30 16 O -0.098920 2.720675 0.244940 0 CHG=-1 VAL=1
M  V30 17 C -0.364528 0.048919 1.298848 0
M  V30 18 N -1.457156 0.599258 1.878698 0
M  V30 19 H -3.827677 0.078074 3.164822 0
M  V30 20 H -4.131207 0.881153 3.684981 0
M  V30 21 H 0.162033 -2.407164 3.640421 0
M  V30 22 H 1.722001 -2.476891 1.943579 0
M  V30 23 H 3.365029 -2.694693 0.339496 0
M  V30 24 H 3.413040 0.003720 -2.978003 0
M  V30 25 H 1.417052 1.148211 -2.065500 0
M  V30 END ATOM
M  V30 BEGIN BOND
M  V30 1 1 1 2
M  V30 2 2 2 3
M  V30 3 1 3 4
M  V30 4 2 4 5
M  V30 5 1 5 6
M  V30 6 2 6 7
M  V30 7 1 7 8
M  V30 8 2 8 9
M  V30 9 1 9 10
M  V30 10 2 10 11
M  V30 11 1 11 12
M  V30 12 2 12 13
M  V30 13 1 13 14
M  V30 14 2 14 15
M  V30 15 1 14 16
M  V30 16 1 13 17
M  V30 17 2 17 18
M  V30 18 1 18 2
M  V30 19 1 17 5
M  V30 20 1 12 7
M  V30 21 1 1 19
M  V30 22 1 1 20
M  V30 23 1 4 21
M  V30 24 1 6 22
M  V30 25 1 8 23
M  V30 26 1 10 24
M  V30 27 1 11 25
M  V30 END BOND
M  V30 END CTAB
M  END
>  <Dataset>  (571) 
ChEMBL_Kinases

>  <Ligand_Instance>  (571) 
nan

>  <PDB_ID>  (571) 
nan

>  <Standardized_SMILES>  (571) 
Nc1ncc2cc3cnccc3c([N+](=O)[O-])c2n1

>  <Name>  (571) 
nan

>  <Pocket>  (571) 
nan

>  <ATP_Site>  (571) 
nan

>  <Peripheral>  (571) 
nan

>  <Num_H_Atoms_ProtBoundConf>  (571) 
nan

>  <Num_Resolved_Atoms>  (571) 
nan

>  <Num_Not_Resolved_Atoms>  (571) 
nan

$$$$
CHEMBL3823844
     RDKit          3D

  0  0  0  0  0  0  0  0  0  0999 V3000
M  V30 BEGIN CTAB
M  V30 COUNTS 69 74 0 0 0
M  V30 BEGIN ATOM
M  V30 1 O 2.293442 -3.016290 4.689509 0
M  V30 2 C 2.049584 -1.860078 4.285980 0
M  V30 3 N 1.416547 -0.851160 5.098020 0
M  V30 4 C 1.299230 0.351210 4.315200 0
M  V30 5 C 0.748992 1.557738 4.677689 0
M  V30 6 C 0.707850 2.606238 3.787376 0
M  V30 7 C 1.251045 2.332364 2.550736 0
M  V30 8 N 1.242374 3.329328 1.502654 0
M  V30 9 C 0.074001 2.974189 0.777882 0
M  V30 10 O -0.446107 1.951148 1.356050 0
M  V30 11 C -0.633256 3.464756 -0.402378 0 CFG=2
M  V30 12 N -1.757979 2.544882 -0.714281 0
M  V30 13 C -1.207352 1.268918 -0.907953 0
M  V30 14 O -0.080482 0.762725 -0.878275 0
M  V30 15 C -1.590506 -0.034791 -1.210924 0
M  V30 16 C -2.994302 0.306835 -1.666913 0
M  V30 17 C -4.044749 -0.547191 -2.151883 0
M  V30 18 C -3.742407 -1.933574 -2.221769 0
M  V30 19 N -2.483318 -2.342996 -1.823873 0
M  V30 20 C -1.941325 -3.671573 -1.805604 0
M  V30 21 C -2.190411 -4.409930 -0.532257 0
M  V30 22 C -1.346290 -4.421367 0.563649 0
M  V30 23 C -1.640304 -5.116763 1.710416 0
M  V30 24 C -2.827686 -5.831671 1.764443 0
M  V30 25 F -3.207765 -6.548628 2.847455 0
M  V30 26 C -3.673778 -5.812547 0.648236 0
M  V30 27 F -4.841803 -6.526747 0.731900 0
M  V30 28 C -3.386758 -5.112629 -0.516376 0
M  V30 29 C -1.958552 -1.281994 -1.500994 0
M  V30 30 O -0.686755 -1.573787 -1.082957 0
M  V30 31 C 0.168640 3.614816 -1.626729 0
M  V30 32 C 1.498001 3.525598 -1.958754 0
M  V30 33 C 1.869193 3.758897 -3.262654 0
M  V30 34 C 1.034383 4.080736 -4.300946 0
M  V30 35 C -0.299517 4.171226 -3.975157 0
M  V30 36 C -0.743416 3.943792 -2.659876 0
M  V30 37 C 1.814291 1.124855 2.152197 0
M  V30 38 C 1.835652 0.096488 3.076211 0
M  V30 39 C 2.320565 -1.270231 2.996740 0
M  V30 40 C 2.867496 -1.907891 1.982534 0
M  V30 41 C 3.288494 -3.297607 1.956349 0
M  V30 42 C 4.428868 -4.019349 1.622941 0
M  V30 43 N 4.122042 -5.339288 1.764878 0
M  V30 44 C 2.829882 -5.435978 2.173978 0
M  V30 45 N 2.306441 -4.183792 2.294358 0
M  V30 46 H 1.103589 -0.985918 6.078718 0
M  V30 47 H 0.315613 1.781285 5.656760 0
M  V30 48 H 0.316190 3.603642 3.905826 0
M  V30 49 H 1.676385 4.162626 1.047612 0
M  V30 50 H -1.162737 4.419126 -0.156459 0
M  V30 51 H -2.755685 2.621536 -0.805336 0
M  V30 52 H -3.640646 1.259810 -1.781006 0
M  V30 53 H -5.079586 -0.361344 -2.499510 0
M  V30 54 H -4.423172 -2.714929 -2.565077 0
M  V30 55 H -0.813164 -3.629928 -1.976695 0
M  V30 56 H -2.293468 -4.261035 -2.675537 0
M  V30 57 H -0.423979 -3.855043 0.488504 0
M  V30 58 H -0.965271 -5.116429 2.570726 0
M  V30 59 H -4.087786 -5.143210 -1.342645 0
M  V30 60 H 2.075291 3.271971 -1.103811 0
M  V30 61 H 2.948303 3.665428 -3.413941 0
M  V30 62 H 1.432399 4.245748 -5.297569 0
M  V30 63 H -0.946998 4.422914 -4.804845 0
M  V30 64 H -1.825755 4.063094 -2.632359 0
M  V30 65 H 2.226566 0.961346 1.188106 0
M  V30 66 H 3.032480 -1.371966 1.064533 0
M  V30 67 H 5.301183 -3.470497 1.332056 0
M  V30 68 H 2.554733 -6.482004 2.297717 0
M  V30 69 H 1.302155 -4.310888 2.601731 0
M  V30 END ATOM
M  V30 BEGIN BOND
M  V30 1 2 1 2
M  V30 2 1 2 3
M  V30 3 1 3 4
M  V30 4 2 4 5
M  V30 5 1 5 6
M  V30 6 2 6 7
M  V30 7 1 7 8
M  V30 8 1 8 9
M  V30 9 2 9 10
M  V30 10 1 9 11
M  V30 11 1 11 12
M  V30 12 1 12 13
M  V30 13 2 13 14
M  V30 14 1 13 15
M  V30 15 2 15 16
M  V30 16 1 16 17
M  V30 17 2 17 18
M  V30 18 1 18 19
M  V30 19 1 19 20
M  V30 20 1 20 21
M  V30 21 2 21 22
M  V30 22 1 22 23
M  V30 23 2 23 24
M  V30 24 1 24 25
M  V30 25 1 24 26
M  V30 26 1 26 27
M  V30 27 2 26 28
M  V30 28 1 19 29
M  V30 29 2 29 30
M  V30 30 1 11 31
M  V30 31 2 31 32
M  V30 32 1 32 33
M  V30 33 2 33 34
M  V30 34 1 34 35
M  V30 35 2 35 36
M  V30 36 1 7 37
M  V30 37 2 37 38
M  V30 38 1 38 39
M  V30 39 2 39 40
M  V30 40 1 40 41
M  V30 41 2 41 42
M  V30 42 1 42 43
M  V30 43 2 43 44
M  V30 44 1 44 45
M  V30 45 1 39 2
M  V30 46 1 45 41
M  V30 47 1 38 4
M  V30 48 1 29 15
M  V30 49 1 36 31
M  V30 50 1 28 21
M  V30 51 1 3 46
M  V30 52 1 5 47
M  V30 53 1 6 48
M  V30 54 1 8 49
M  V30 55 1 11 50 CFG=1
M  V30 56 1 12 51
M  V30 57 1 16 52
M  V30 58 1 17 53
M  V30 59 1 18 54
M  V30 60 1 20 55
M  V30 61 1 20 56
M  V30 62 1 22 57
M  V30 63 1 23 58
M  V30 64 1 28 59
M  V30 65 1 32 60
M  V30 66 1 33 61
M  V30 67 1 34 62
M  V30 68 1 35 63
M  V30 69 1 36 64
M  V30 70 1 37 65
M  V30 71 1 40 66
M  V30 72 1 42 67
M  V30 73 1 44 68
M  V30 74 1 45 69
M  V30 END BOND
M  V30 END CTAB
M  END
>  <Dataset>  (572) 
ChEMBL_Kinases

>  <Ligand_Instance>  (572) 
nan

>  <PDB_ID>  (572) 
nan

>  <Standardized_SMILES>  (572) 
O=C1Nc2ccc(NC(=O)[C@H](NC(=O)c3cccn(Cc4ccc(F)c(F)c4)c3=O)c3ccccc3)cc2/C1=C/c1cnc[nH]1

>  <Name>  (572) 
nan

>  <Pocket>  (572) 
nan

>  <ATP_Site>  (572) 
nan

>  <Peripheral>  (572) 
nan

>  <Num_H_Atoms_ProtBoundConf>  (572) 
nan

>  <Num_Resolved_Atoms>  (572) 
nan

>  <Num_Not_Resolved_Atoms>  (572) 
nan

$$$$
CHEMBL3824075
     RDKit          3D

  0  0  0  0  0  0  0  0  0  0999 V3000
M  V30 BEGIN CTAB
M  V30 COUNTS 44 48 0 0 0
M  V30 BEGIN ATOM
M  V30 1 C 1.332159 -3.888312 4.111317 0
M  V30 2 C 2.207058 -3.673614 3.072496 0
M  V30 3 C 2.204892 -2.567533 2.252787 0
M  V30 4 N 3.176251 -2.516437 1.217934 0
M  V30 5 C 3.390112 -1.385548 0.386432 0
M  V30 6 C 2.817277 -0.138680 0.501165 0
M  V30 7 C 3.266223 0.695357 -0.518646 0
M  V30 8 C 2.866918 2.122387 -0.722886 0
M  V30 9 C 2.320456 2.439663 -2.132379 0
M  V30 10 C 3.699259 2.927122 -1.615515 0
M  V30 11 N 4.092691 -0.071729 -1.213039 0
M  V30 12 N 4.162460 -1.264441 -0.692212 0
M  V30 13 N 1.274409 -1.636736 2.495210 0
M  V30 14 C 0.413328 -1.833856 3.506169 0
M  V30 15 N -0.618665 -0.857773 3.781978 0
M  V30 16 C -0.988651 0.287626 3.018239 0
M  V30 17 C -1.642218 -0.002998 1.716721 0
M  V30 18 C -1.118570 -0.162654 0.454204 0
M  V30 19 C -1.860503 -0.437165 -0.654788 0
M  V30 20 C -3.218513 -0.562894 -0.505505 0
M  V30 21 N -4.194810 -0.827087 -1.399897 0
M  V30 22 C -5.355983 -0.839962 -0.719517 0
M  V30 23 C -5.147361 -0.581632 0.639927 0
M  V30 24 C -3.786112 -0.408761 0.754614 0
M  V30 25 N -3.003256 -0.139731 1.804932 0
M  V30 26 N 0.426598 -2.921564 4.302197 0
M  V30 27 H 1.313405 -4.740651 4.763371 0
M  V30 28 H 2.949919 -4.471850 2.917724 0
M  V30 29 H 3.789292 -3.337069 1.023461 0
M  V30 30 H 2.119780 0.205530 1.256428 0
M  V30 31 H 2.266591 2.593679 0.074497 0
M  V30 32 H 2.334591 1.615030 -2.874554 0
M  V30 33 H 1.507985 3.174572 -2.216299 0
M  V30 34 H 3.759241 4.043671 -1.556908 0
M  V30 35 H 4.574635 2.490641 -2.142588 0
M  V30 36 H 4.621501 0.241245 -2.069829 0
M  V30 37 H -1.192533 -0.995972 4.674091 0
M  V30 38 H -0.070846 0.939127 2.856889 0
M  V30 39 H -1.661910 0.935554 3.601415 0
M  V30 40 H -0.067934 -0.049878 0.421145 0
M  V30 41 H -1.331474 -0.536988 -1.579171 0
M  V30 42 H -4.047454 -0.985607 -2.413540 0
M  V30 43 H -6.329444 -1.025156 -1.153875 0
M  V30 44 H -5.852909 -0.519747 1.453391 0
M  V30 END ATOM
M  V30 BEGIN BOND
M  V30 1 2 1 2
M  V30 2 1 2 3
M  V30 3 1 3 4
M  V30 4 1 4 5
M  V30 5 1 5 6
M  V30 6 2 6 7
M  V30 7 1 7 8
M  V30 8 1 8 9
M  V30 9 1 9 10
M  V30 10 1 7 11
M  V30 11 1 11 12
M  V30 12 2 3 13
M  V30 13 1 13 14
M  V30 14 1 14 15
M  V30 15 1 15 16
M  V30 16 1 16 17
M  V30 17 2 17 18
M  V30 18 1 18 19
M  V30 19 2 19 20
M  V30 20 1 20 21
M  V30 21 1 21 22
M  V30 22 2 22 23
M  V30 23 1 23 24
M  V30 24 2 24 25
M  V30 25 2 14 26
M  V30 26 1 26 1
M  V30 27 2 12 5
M  V30 28 1 25 17
M  V30 29 1 10 8
M  V30 30 1 24 20
M  V30 31 1 1 27
M  V30 32 1 2 28
M  V30 33 1 4 29
M  V30 34 1 6 30
M  V30 35 1 8 31
M  V30 36 1 9 32
M  V30 37 1 9 33
M  V30 38 1 10 34
M  V30 39 1 10 35
M  V30 40 1 11 36
M  V30 41 1 15 37
M  V30 42 1 16 38
M  V30 43 1 16 39
M  V30 44 1 18 40
M  V30 45 1 19 41
M  V30 46 1 21 42
M  V30 47 1 22 43
M  V30 48 1 23 44
M  V30 END BOND
M  V30 END CTAB
M  END
>  <Dataset>  (573) 
ChEMBL_Kinases

>  <Ligand_Instance>  (573) 
nan

>  <PDB_ID>  (573) 
nan

>  <Standardized_SMILES>  (573) 
c1cc(Nc2cc(C3CC3)[nH]n2)nc(NCc2ccc3[nH]ccc3n2)n1

>  <Name>  (573) 
nan

>  <Pocket>  (573) 
nan

>  <ATP_Site>  (573) 
nan

>  <Peripheral>  (573) 
nan

>  <Num_H_Atoms_ProtBoundConf>  (573) 
nan

>  <Num_Resolved_Atoms>  (573) 
nan

>  <Num_Not_Resolved_Atoms>  (573) 
nan

$$$$
CHEMBL382590
     RDKit          3D

  0  0  0  0  0  0  0  0  0  0999 V3000
M  V30 BEGIN CTAB
M  V30 COUNTS 50 53 0 0 0
M  V30 BEGIN ATOM
M  V30 1 C 1.603937 -6.893894 3.814572 0
M  V30 2 O 1.878411 -6.210740 2.605881 0
M  V30 3 C 2.072360 -4.838104 2.567196 0
M  V30 4 C 1.972057 -4.213415 3.797702 0
M  V30 5 C 2.147278 -2.839663 3.886200 0
M  V30 6 N 2.065210 -2.175546 5.066031 0
M  V30 7 C 2.257228 -0.825371 5.054838 0
M  V30 8 N 2.525581 -0.129131 3.909919 0
M  V30 9 C 2.607744 -0.796837 2.724448 0
M  V30 10 N 2.890755 0.086458 1.648917 0
M  V30 11 C 1.789764 0.797473 1.044628 0
M  V30 12 C 2.035143 1.711292 0.037523 0
M  V30 13 C 0.978372 2.410027 -0.545058 0
M  V30 14 C -0.306019 2.178375 -0.104839 0
M  V30 15 N -1.518650 2.789713 -0.558916 0
M  V30 16 C -2.161287 2.146365 -1.639955 0
M  V30 17 O -1.658145 1.106824 -2.138413 0
M  V30 18 C -3.404241 2.643157 -2.212942 0
M  V30 19 C -3.989318 1.992364 -3.278717 0
M  V30 20 C -5.160145 2.355177 -3.910895 0
M  V30 21 C -5.814703 3.487775 -3.426079 0
M  V30 22 C -5.254082 4.158095 -2.362360 0
M  V30 23 C -4.063238 3.764324 -1.741778 0
M  V30 24 C -0.574138 1.256117 0.914125 0
M  V30 25 C 0.498885 0.572037 1.478510 0
M  V30 26 C 2.417460 -2.151206 2.723130 0
M  V30 27 C 2.526690 -2.740078 1.465891 0
M  V30 28 C 2.344355 -4.104781 1.435585 0
M  V30 29 O 2.415810 -4.869082 0.283147 0
M  V30 30 C 2.681906 -4.352443 -0.995304 0
M  V30 31 H 0.610829 -6.597198 4.204787 0
M  V30 32 H 1.651042 -7.998374 3.622293 0
M  V30 33 H 2.337007 -6.649589 4.610162 0
M  V30 34 H 1.761968 -4.681090 4.760478 0
M  V30 35 H 2.191866 -0.284544 5.996100 0
M  V30 36 H 3.854064 0.242810 1.279223 0
M  V30 37 H 3.023537 1.923562 -0.337256 0
M  V30 38 H 1.052786 3.138148 -1.328622 0
M  V30 39 H -1.910383 3.655089 -0.120698 0
M  V30 40 H -3.484984 1.100362 -3.670627 0
M  V30 41 H -5.542493 1.773988 -4.747357 0
M  V30 42 H -6.736528 3.813268 -3.887046 0
M  V30 43 H -5.791262 5.037369 -2.010273 0
M  V30 44 H -3.658991 4.318953 -0.910204 0
M  V30 45 H -1.537022 1.011207 1.318446 0
M  V30 46 H 0.345156 -0.150715 2.269656 0
M  V30 47 H 2.737783 -2.184739 0.571653 0
M  V30 48 H 2.147702 -3.370323 -1.049212 0
M  V30 49 H 3.758367 -4.097673 -1.135086 0
M  V30 50 H 2.286096 -4.957230 -1.810140 0
M  V30 END ATOM
M  V30 BEGIN BOND
M  V30 1 1 1 2
M  V30 2 1 2 3
M  V30 3 2 3 4
M  V30 4 1 4 5
M  V30 5 2 5 6
M  V30 6 1 6 7
M  V30 7 2 7 8
M  V30 8 1 8 9
M  V30 9 1 9 10
M  V30 10 1 10 11
M  V30 11 2 11 12
M  V30 12 1 12 13
M  V30 13 2 13 14
M  V30 14 1 14 15
M  V30 15 1 15 16
M  V30 16 2 16 17
M  V30 17 1 16 18
M  V30 18 2 18 19
M  V30 19 1 19 20
M  V30 20 2 20 21
M  V30 21 1 21 22
M  V30 22 2 22 23
M  V30 23 1 14 24
M  V30 24 2 24 25
M  V30 25 2 9 26
M  V30 26 1 26 27
M  V30 27 2 27 28
M  V30 28 1 28 29
M  V30 29 1 29 30
M  V30 30 1 28 3
M  V30 31 1 26 5
M  V30 32 1 25 11
M  V30 33 1 23 18
M  V30 34 1 1 31
M  V30 35 1 1 32
M  V30 36 1 1 33
M  V30 37 1 4 34
M  V30 38 1 7 35
M  V30 39 1 10 36
M  V30 40 1 12 37
M  V30 41 1 13 38
M  V30 42 1 15 39
M  V30 43 1 19 40
M  V30 44 1 20 41
M  V30 45 1 21 42
M  V30 46 1 22 43
M  V30 47 1 23 44
M  V30 48 1 24 45
M  V30 49 1 25 46
M  V30 50 1 27 47
M  V30 51 1 30 48
M  V30 52 1 30 49
M  V30 53 1 30 50
M  V30 END BOND
M  V30 END CTAB
M  END
>  <Dataset>  (574) 
ChEMBL_Kinases

>  <Ligand_Instance>  (574) 
nan

>  <PDB_ID>  (574) 
nan

>  <Standardized_SMILES>  (574) 
COc1cc2ncnc(Nc3ccc(NC(=O)c4ccccc4)cc3)c2cc1OC

>  <Name>  (574) 
ANILINOQUINAZOLINE1

>  <Pocket>  (574) 
nan

>  <ATP_Site>  (574) 
nan

>  <Peripheral>  (574) 
nan

>  <Num_H_Atoms_ProtBoundConf>  (574) 
nan

>  <Num_Resolved_Atoms>  (574) 
nan

>  <Num_Not_Resolved_Atoms>  (574) 
nan

$$$$
CHEMBL382607
     RDKit          3D

  0  0  0  0  0  0  0  0  0  0999 V3000
M  V30 BEGIN CTAB
M  V30 COUNTS 58 62 0 0 0
M  V30 BEGIN ATOM
M  V30 1 N 3.440139 -0.417919 4.903789 0
M  V30 2 C 3.826152 -0.084757 3.539984 0 CFG=1
M  V30 3 C 5.302953 0.185861 3.432339 0
M  V30 4 C 5.578051 0.757829 2.056375 0
M  V30 5 C 4.923730 -0.096583 0.990576 0 CFG=2
M  V30 6 N 3.737116 0.574604 0.494989 0
M  V30 7 C 2.829627 0.114883 -0.532016 0
M  V30 8 C 1.726679 0.849542 -0.914784 0
M  V30 9 C 0.919304 0.324422 -1.899416 0
M  V30 10 N -0.232722 1.009448 -2.361240 0
M  V30 11 C -1.433647 0.800130 -1.609140 0
M  V30 12 C -1.398581 0.048654 -0.433113 0
M  V30 13 C -2.503858 -0.204470 0.357862 0
M  V30 14 C -3.712381 0.338689 -0.074534 0
M  V30 15 S -5.089246 -0.010691 0.978527 0
M  V30 16 O -4.670508 -0.079987 2.415434 0
M  V30 17 O -6.085391 1.106185 0.829123 0
M  V30 18 C -5.810306 -1.536088 0.515738 0
M  V30 19 C -6.828278 -1.726088 -0.394641 0
M  V30 20 C -7.314894 -2.986775 -0.674824 0
M  V30 21 C -6.772954 -4.101180 -0.029488 0
M  V30 22 C -5.743796 -3.942961 0.895125 0
M  V30 23 C -5.281070 -2.667038 1.151628 0
M  V30 24 C -3.788743 1.089811 -1.235923 0
M  V30 25 C -2.659346 1.316359 -1.993030 0
M  V30 26 N 1.143419 -0.860106 -2.508402 0
M  V30 27 N 0.528874 -1.558077 -3.456245 0
M  V30 28 C 1.192427 -2.700875 -3.691102 0
M  V30 29 N 2.246717 -2.690454 -2.852683 0
M  V30 30 C 2.230364 -1.564030 -2.118583 0
M  V30 31 N 3.011359 -1.048424 -1.160356 0
M  V30 32 C 4.500590 -1.437529 1.548843 0
M  V30 33 C 3.504965 -1.277257 2.675003 0
M  V30 34 H 2.917435 0.321554 5.381900 0
M  V30 35 H 3.004080 -1.371415 4.978190 0
M  V30 36 H 3.222566 0.815174 3.267046 0
M  V30 37 H 5.847244 -0.763660 3.561297 0
M  V30 38 H 5.590481 0.929312 4.203540 0
M  V30 39 H 6.676184 0.698318 1.921258 0
M  V30 40 H 5.282825 1.815682 2.024234 0
M  V30 41 H 5.638336 -0.201428 0.158674 0
M  V30 42 H 3.481094 1.514906 0.917102 0
M  V30 43 H 1.513438 1.790159 -0.458738 0
M  V30 44 H -0.295526 1.644793 -3.185265 0
M  V30 45 H -0.449155 -0.377683 -0.094706 0
M  V30 46 H -2.418272 -0.794153 1.261469 0
M  V30 47 H -7.202229 -0.820562 -0.858482 0
M  V30 48 H -8.127157 -3.082940 -1.407887 0
M  V30 49 H -7.163015 -5.105468 -0.254347 0
M  V30 50 H -5.303822 -4.799599 1.412861 0
M  V30 51 H -4.473287 -2.579853 1.882319 0
M  V30 52 H -4.768995 1.475632 -1.500709 0
M  V30 53 H -2.726066 1.908027 -2.906451 0
M  V30 54 H 0.887804 -3.437441 -4.420303 0
M  V30 55 H 4.002442 -1.998128 0.741257 0
M  V30 56 H 5.395604 -1.942627 1.950253 0
M  V30 57 H 2.535677 -1.037071 2.180083 0
M  V30 58 H 3.360176 -2.164507 3.286856 0
M  V30 END ATOM
M  V30 BEGIN BOND
M  V30 1 1 1 2
M  V30 2 1 2 3
M  V30 3 1 3 4
M  V30 4 1 4 5
M  V30 5 1 5 6
M  V30 6 1 6 7
M  V30 7 1 7 8
M  V30 8 2 8 9
M  V30 9 1 9 10
M  V30 10 1 10 11
M  V30 11 2 11 12
M  V30 12 1 12 13
M  V30 13 2 13 14
M  V30 14 1 14 15
M  V30 15 2 15 16
M  V30 16 2 15 17
M  V30 17 1 15 18
M  V30 18 2 18 19
M  V30 19 1 19 20
M  V30 20 2 20 21
M  V30 21 1 21 22
M  V30 22 2 22 23
M  V30 23 1 14 24
M  V30 24 2 24 25
M  V30 25 1 9 26
M  V30 26 1 26 27
M  V30 27 2 27 28
M  V30 28 1 28 29
M  V30 29 2 29 30
M  V30 30 1 30 31
M  V30 31 1 5 32
M  V30 32 1 32 33
M  V30 33 1 33 2
M  V30 34 2 31 7
M  V30 35 1 25 11
M  V30 36 1 30 26
M  V30 37 1 23 18
M  V30 38 1 1 34
M  V30 39 1 1 35
M  V30 40 1 2 36 CFG=3
M  V30 41 1 3 37
M  V30 42 1 3 38
M  V30 43 1 4 39
M  V30 44 1 4 40
M  V30 45 1 5 41 CFG=3
M  V30 46 1 6 42
M  V30 47 1 8 43
M  V30 48 1 10 44
M  V30 49 1 12 45
M  V30 50 1 13 46
M  V30 51 1 19 47
M  V30 52 1 20 48
M  V30 53 1 21 49
M  V30 54 1 22 50
M  V30 55 1 23 51
M  V30 56 1 24 52
M  V30 57 1 25 53
M  V30 58 1 28 54
M  V30 59 1 32 55
M  V30 60 1 32 56
M  V30 61 1 33 57
M  V30 62 1 33 58
M  V30 END BOND
M  V30 END CTAB
M  END
>  <Dataset>  (575) 
ChEMBL_Kinases

>  <Ligand_Instance>  (575) 
nan

>  <PDB_ID>  (575) 
nan

>  <Standardized_SMILES>  (575) 
N[C@H]1CC[C@H](Nc2cc(Nc3ccc(S(=O)(=O)c4ccccc4)cc3)n3ncnc3n2)CC1

>  <Name>  (575) 
nan

>  <Pocket>  (575) 
nan

>  <ATP_Site>  (575) 
nan

>  <Peripheral>  (575) 
nan

>  <Num_H_Atoms_ProtBoundConf>  (575) 
nan

>  <Num_Resolved_Atoms>  (575) 
nan

>  <Num_Not_Resolved_Atoms>  (575) 
nan

$$$$
CHEMBL3577856
     RDKit          3D

  0  0  0  0  0  0  0  0  0  0999 V3000
M  V30 BEGIN CTAB
M  V30 COUNTS 41 44 0 0 0
M  V30 BEGIN ATOM
M  V30 1 O -1.712303 -3.656552 4.960429 0
M  V30 2 C -1.114755 -3.380376 3.721011 0 CFG=1
M  V30 3 C -0.895625 -4.727389 3.071596 0
M  V30 4 C -0.242648 -4.556818 1.738963 0
M  V30 5 C -0.779413 -3.394607 0.945327 0 CFG=2
M  V30 6 N 0.178187 -2.314414 0.842426 0
M  V30 7 C 0.033626 -1.100433 0.117014 0
M  V30 8 N -1.047254 -0.778122 -0.608365 0
M  V30 9 C -1.179955 0.369691 -1.292120 0
M  V30 10 C -0.138551 1.268897 -1.242418 0
M  V30 11 C -0.121028 2.487660 -1.887470 0
M  V30 12 C 0.979205 3.340447 -1.782781 0
M  V30 13 C 2.097066 2.985353 -1.020903 0
M  V30 14 C 3.278319 3.881055 -0.897793 0
M  V30 15 C 3.791246 3.997115 0.546403 0
M  V30 16 C 4.576437 3.292545 -0.517879 0
M  V30 17 N 2.064190 1.793054 -0.397888 0
M  V30 18 C 0.985130 0.967198 -0.506219 0
M  V30 19 N 1.030985 -0.202291 0.144798 0
M  V30 20 C -2.098869 -2.895849 1.466172 0
M  V30 21 C -2.067562 -2.531012 2.922696 0
M  V30 22 H -1.126843 -3.481828 5.723362 0
M  V30 23 H -0.170728 -2.880319 3.932480 0
M  V30 24 H -0.174562 -5.269904 3.723156 0
M  V30 25 H -1.819966 -5.313655 3.031420 0
M  V30 26 H -0.298821 -5.521871 1.194232 0
M  V30 27 H 0.835724 -4.350327 1.907500 0
M  V30 28 H -0.955561 -3.764493 -0.085548 0
M  V30 29 H 1.079119 -2.469284 1.375948 0
M  V30 30 H -2.047807 0.621981 -1.871029 0
M  V30 31 H -0.987985 2.757241 -2.475238 0
M  V30 32 H 0.965314 4.296826 -2.303079 0
M  V30 33 H 3.194694 4.834222 -1.452045 0
M  V30 34 H 3.324851 3.366805 1.328894 0
M  V30 35 H 4.100997 4.995479 0.900814 0
M  V30 36 H 4.654264 2.184540 -0.496309 0
M  V30 37 H 5.522846 3.806722 -0.769805 0
M  V30 38 H -2.898732 -3.642363 1.249595 0
M  V30 39 H -2.367695 -1.989938 0.895896 0
M  V30 40 H -1.797728 -1.460567 3.100331 0
M  V30 41 H -3.094973 -2.660467 3.321504 0
M  V30 END ATOM
M  V30 BEGIN BOND
M  V30 1 1 1 2
M  V30 2 1 2 3
M  V30 3 1 3 4
M  V30 4 1 4 5
M  V30 5 1 5 6
M  V30 6 1 6 7
M  V30 7 2 7 8
M  V30 8 1 8 9
M  V30 9 2 9 10
M  V30 10 1 10 11
M  V30 11 2 11 12
M  V30 12 1 12 13
M  V30 13 1 13 14
M  V30 14 1 14 15
M  V30 15 1 15 16
M  V30 16 2 13 17
M  V30 17 1 17 18
M  V30 18 2 18 19
M  V30 19 1 5 20
M  V30 20 1 20 21
M  V30 21 1 21 2
M  V30 22 1 19 7
M  V30 23 1 18 10
M  V30 24 1 16 14
M  V30 25 1 1 22
M  V30 26 1 2 23 CFG=1
M  V30 27 1 3 24
M  V30 28 1 3 25
M  V30 29 1 4 26
M  V30 30 1 4 27
M  V30 31 1 5 28 CFG=3
M  V30 32 1 6 29
M  V30 33 1 9 30
M  V30 34 1 11 31
M  V30 35 1 12 32
M  V30 36 1 14 33
M  V30 37 1 15 34
M  V30 38 1 15 35
M  V30 39 1 16 36
M  V30 40 1 16 37
M  V30 41 1 20 38
M  V30 42 1 20 39
M  V30 43 1 21 40
M  V30 44 1 21 41
M  V30 END BOND
M  V30 END CTAB
M  END
>  <Dataset>  (576) 
ChEMBL_Kinases

>  <Ligand_Instance>  (576) 
nan

>  <PDB_ID>  (576) 
nan

>  <Standardized_SMILES>  (576) 
O[C@H]1CC[C@H](Nc2ncc3ccc(C4CC4)nc3n2)CC1

>  <Name>  (576) 
nan

>  <Pocket>  (576) 
nan

>  <ATP_Site>  (576) 
nan

>  <Peripheral>  (576) 
nan

>  <Num_H_Atoms_ProtBoundConf>  (576) 
nan

>  <Num_Resolved_Atoms>  (576) 
nan

>  <Num_Not_Resolved_Atoms>  (576) 
nan

$$$$
CHEMBL384356
     RDKit          3D

  0  0  0  0  0  0  0  0  0  0999 V3000
M  V30 BEGIN CTAB
M  V30 COUNTS 56 58 0 0 0
M  V30 BEGIN ATOM
M  V30 1 C -1.039937 -2.041282 5.033253 0
M  V30 2 C -0.707336 -0.688810 4.457276 0
M  V30 3 C 0.758338 -0.626018 4.080401 0
M  V30 4 C 1.009534 -1.683350 3.070952 0
M  V30 5 O 0.096067 -2.453519 2.662947 0
M  V30 6 N 2.342127 -1.788914 2.579887 0
M  V30 7 C 3.545220 -1.037033 2.884893 0
M  V30 8 C 3.798122 -0.174479 1.655333 0
M  V30 9 C 4.184475 -1.099028 0.533125 0
M  V30 10 N 3.772806 -0.571186 -0.764292 0
M  V30 11 C 2.391830 -0.310720 -1.067866 0
M  V30 12 N 1.394035 -0.528783 -0.199299 0
M  V30 13 C 0.110127 -0.278812 -0.503339 0
M  V30 14 C -0.247252 0.215387 -1.725714 0
M  V30 15 C -1.584156 0.516876 -2.158237 0
M  V30 16 O -1.790165 0.955768 -3.305698 0
M  V30 17 C -2.871374 0.412130 -1.487041 0
M  V30 18 C -3.066307 0.854058 -0.196089 0
M  V30 19 C -4.268027 0.784522 0.498818 0
M  V30 20 C -5.346979 0.224228 -0.171705 0
M  V30 21 C -5.219957 -0.237934 -1.465998 0
M  V30 22 C -3.995453 -0.140074 -2.103880 0
M  V30 23 O -3.816420 -0.589033 -3.401770 0
M  V30 24 C -4.865153 -1.168848 -4.144983 0
M  V30 25 C 0.761509 0.440327 -2.616006 0
M  V30 26 N 0.519270 0.951402 -3.917271 0
M  V30 27 N 2.027214 0.174885 -2.265339 0
M  V30 28 C 3.831228 -2.530258 0.742800 0
M  V30 29 C 2.641394 -2.806169 1.591938 0
M  V30 30 H -1.591709 -1.951201 5.994620 0
M  V30 31 H -1.681731 -2.639686 4.336104 0
M  V30 32 H -0.137335 -2.657965 5.226538 0
M  V30 33 H -1.325454 -0.561182 3.535745 0
M  V30 34 H -0.994319 0.140965 5.134538 0
M  V30 35 H 1.017298 0.390078 3.747622 0
M  V30 36 H 1.319887 -0.806933 5.031795 0
M  V30 37 H 4.416143 -1.667639 3.048863 0
M  V30 38 H 3.400527 -0.343198 3.738864 0
M  V30 39 H 4.594801 0.576731 1.866323 0
M  V30 40 H 2.920811 0.399172 1.351172 0
M  V30 41 H 5.317663 -1.046768 0.500449 0
M  V30 42 H 4.459744 -0.356465 -1.537374 0
M  V30 43 H -0.660645 -0.469023 0.222989 0
M  V30 44 H -2.264813 1.298584 0.370965 0
M  V30 45 H -4.378053 1.139178 1.500994 0
M  V30 46 H -6.312963 0.132726 0.294225 0
M  V30 47 H -6.081364 -0.668184 -1.957128 0
M  V30 48 H -5.483777 -1.834893 -3.520295 0
M  V30 49 H -4.455769 -1.799114 -4.966017 0
M  V30 50 H -5.500638 -0.386438 -4.589375 0
M  V30 51 H 0.006412 0.692376 -4.803241 0
M  V30 52 H 0.706104 1.744948 -4.568755 0
M  V30 53 H 4.733260 -3.135212 1.064717 0
M  V30 54 H 3.620930 -2.954138 -0.284803 0
M  V30 55 H 1.762477 -3.039349 0.958703 0
M  V30 56 H 2.851238 -3.778568 2.127512 0
M  V30 END ATOM
M  V30 BEGIN BOND
M  V30 1 1 1 2
M  V30 2 1 2 3
M  V30 3 1 3 4
M  V30 4 2 4 5
M  V30 5 1 4 6
M  V30 6 1 6 7
M  V30 7 1 7 8
M  V30 8 1 8 9
M  V30 9 1 9 10
M  V30 10 1 10 11
M  V30 11 2 11 12
M  V30 12 1 12 13
M  V30 13 2 13 14
M  V30 14 1 14 15
M  V30 15 2 15 16
M  V30 16 1 15 17
M  V30 17 2 17 18
M  V30 18 1 18 19
M  V30 19 2 19 20
M  V30 20 1 20 21
M  V30 21 2 21 22
M  V30 22 1 22 23
M  V30 23 1 23 24
M  V30 24 1 14 25
M  V30 25 1 25 26
M  V30 26 2 25 27
M  V30 27 1 9 28
M  V30 28 1 28 29
M  V30 29 1 29 6
M  V30 30 1 27 11
M  V30 31 1 22 17
M  V30 32 1 1 30
M  V30 33 1 1 31
M  V30 34 1 1 32
M  V30 35 1 2 33
M  V30 36 1 2 34
M  V30 37 1 3 35
M  V30 38 1 3 36
M  V30 39 1 7 37
M  V30 40 1 7 38
M  V30 41 1 8 39
M  V30 42 1 8 40
M  V30 43 1 9 41
M  V30 44 1 10 42
M  V30 45 1 13 43
M  V30 46 1 18 44
M  V30 47 1 19 45
M  V30 48 1 20 46
M  V30 49 1 21 47
M  V30 50 1 24 48
M  V30 51 1 24 49
M  V30 52 1 24 50
M  V30 53 1 26 51
M  V30 54 1 26 52
M  V30 55 1 28 53
M  V30 56 1 28 54
M  V30 57 1 29 55
M  V30 58 1 29 56
M  V30 END BOND
M  V30 END CTAB
M  END
>  <Dataset>  (577) 
ChEMBL_Kinases

>  <Ligand_Instance>  (577) 
nan

>  <PDB_ID>  (577) 
nan

>  <Standardized_SMILES>  (577) 
CCCC(=O)N1CCC(Nc2ncc(C(=O)c3ccccc3OC)c(N)n2)CC1

>  <Name>  (577) 
nan

>  <Pocket>  (577) 
nan

>  <ATP_Site>  (577) 
nan

>  <Peripheral>  (577) 
nan

>  <Num_H_Atoms_ProtBoundConf>  (577) 
nan

>  <Num_Resolved_Atoms>  (577) 
nan

>  <Num_Not_Resolved_Atoms>  (577) 
nan

$$$$
CHEMBL382639
     RDKit          3D

  0  0  0  0  0  0  0  0  0  0999 V3000
M  V30 BEGIN CTAB
M  V30 COUNTS 46 47 0 0 0
M  V30 BEGIN ATOM
M  V30 1 C 0.006217 0.485567 -3.952759 0
M  V30 2 C -0.543523 -0.866516 -3.660932 0
M  V30 3 O 0.429156 -1.847777 -3.347266 0
M  V30 4 C 1.281740 -1.765354 -2.279949 0
M  V30 5 N 1.374946 -0.794206 -1.356894 0
M  V30 6 C 2.254344 -0.823437 -0.346135 0
M  V30 7 N 2.377143 0.201715 0.665399 0
M  V30 8 C 1.440885 -0.239776 1.667146 0
M  V30 9 O 0.839852 -1.320923 1.335166 0
M  V30 10 C 1.054331 0.313780 2.983547 0
M  V30 11 C -0.385527 0.430313 3.205667 0
M  V30 12 C -0.957319 1.709303 3.181946 0
M  V30 13 C -2.305109 1.897098 3.399007 0
M  V30 14 O -2.881636 3.160200 3.377958 0
M  V30 15 C -2.098850 4.334919 3.129327 0
M  V30 16 C -3.115514 0.811411 3.644985 0
M  V30 17 Br -4.993962 1.019866 3.950956 0
M  V30 18 C -2.615798 -0.497400 3.683403 0
M  V30 19 C -1.256772 -0.636525 3.460056 0
M  V30 20 O -0.600304 -1.840539 3.461681 0
M  V30 21 C -1.144163 -3.105985 3.675343 0
M  V30 22 C 3.144397 -1.851602 -0.160251 0
M  V30 23 C 3.077699 -2.866093 -1.089149 0
M  V30 24 N 3.966360 -3.946935 -0.941602 0
M  V30 25 C 2.158890 -2.802858 -2.118129 0
M  V30 26 C 2.175070 -3.923066 -3.038993 0
M  V30 27 N 2.181870 -4.829345 -3.758267 0
M  V30 28 H 1.087494 0.460368 -4.269352 0
M  V30 29 H 0.001553 1.086609 -3.024791 0
M  V30 30 H -0.588166 1.052013 -4.702479 0
M  V30 31 H -1.217972 -1.171208 -4.455637 0
M  V30 32 H -1.176064 -0.790654 -2.727885 0
M  V30 33 H 2.845066 1.088558 0.949099 0
M  V30 34 H 1.529290 1.307274 3.090514 0
M  V30 35 H 1.450938 -0.395298 3.745144 0
M  V30 36 H -0.297475 2.568077 2.986641 0
M  V30 37 H -2.776956 5.161173 2.911850 0
M  V30 38 H -1.462502 4.506834 4.037342 0
M  V30 39 H -1.389321 4.133799 2.288705 0
M  V30 40 H -3.221425 -1.368097 3.871935 0
M  V30 41 H -0.880282 -3.489705 4.689089 0
M  V30 42 H -2.250912 -3.136138 3.631220 0
M  V30 43 H -0.717356 -3.793721 2.899081 0
M  V30 44 H 3.874867 -1.912161 0.647148 0
M  V30 45 H 4.866571 -3.856001 -0.415906 0
M  V30 46 H 4.346527 -4.904024 -1.035080 0
M  V30 END ATOM
M  V30 BEGIN BOND
M  V30 1 1 1 2
M  V30 2 1 2 3
M  V30 3 1 3 4
M  V30 4 2 4 5
M  V30 5 1 5 6
M  V30 6 1 6 7
M  V30 7 1 7 8
M  V30 8 2 8 9
M  V30 9 1 8 10
M  V30 10 1 10 11
M  V30 11 2 11 12
M  V30 12 1 12 13
M  V30 13 1 13 14
M  V30 14 1 14 15
M  V30 15 2 13 16
M  V30 16 1 16 17
M  V30 17 1 16 18
M  V30 18 2 18 19
M  V30 19 1 19 20
M  V30 20 1 20 21
M  V30 21 2 6 22
M  V30 22 1 22 23
M  V30 23 1 23 24
M  V30 24 2 23 25
M  V30 25 1 25 26
M  V30 26 3 26 27
M  V30 27 1 25 4
M  V30 28 1 19 11
M  V30 29 1 1 28
M  V30 30 1 1 29
M  V30 31 1 1 30
M  V30 32 1 2 31
M  V30 33 1 2 32
M  V30 34 1 7 33
M  V30 35 1 10 34
M  V30 36 1 10 35
M  V30 37 1 12 36
M  V30 38 1 15 37
M  V30 39 1 15 38
M  V30 40 1 15 39
M  V30 41 1 18 40
M  V30 42 1 21 41
M  V30 43 1 21 42
M  V30 44 1 21 43
M  V30 45 1 22 44
M  V30 46 1 24 45
M  V30 47 1 24 46
M  V30 END BOND
M  V30 END CTAB
M  END
>  <Dataset>  (578) 
ChEMBL_Kinases

>  <Ligand_Instance>  (578) 
nan

>  <PDB_ID>  (578) 
nan

>  <Standardized_SMILES>  (578) 
CCOc1nc(NC(=O)Cc2cc(OC)c(Br)cc2OC)cc(N)c1C#N

>  <Name>  (578) 
nan

>  <Pocket>  (578) 
nan

>  <ATP_Site>  (578) 
nan

>  <Peripheral>  (578) 
nan

>  <Num_H_Atoms_ProtBoundConf>  (578) 
nan

>  <Num_Resolved_Atoms>  (578) 
nan

>  <Num_Not_Resolved_Atoms>  (578) 
nan

$$$$
CHEMBL3577865
     RDKit          3D

  0  0  0  0  0  0  0  0  0  0999 V3000
M  V30 BEGIN CTAB
M  V30 COUNTS 45 47 0 0 0
M  V30 BEGIN ATOM
M  V30 1 C -1.691136 -2.625920 -1.654024 0
M  V30 2 C -0.438929 -3.427902 -1.672471 0
M  V30 3 C -0.312247 -4.164242 -0.368050 0
M  V30 4 N 0.739328 -2.668285 -2.028252 0
M  V30 5 C 1.632067 -3.117491 -2.958538 0
M  V30 6 O 1.427383 -4.219456 -3.522169 0
M  V30 7 C 2.754841 -2.360857 -3.276417 0
M  V30 8 C 3.008091 -1.144881 -2.674135 0
M  V30 9 C 2.053900 -0.772976 -1.749591 0
M  V30 10 C 2.219811 0.440027 -1.086563 0
M  V30 11 N 1.353064 0.928127 -0.149867 0
M  V30 12 C 0.267240 0.183362 0.149147 0
M  V30 13 N -0.671257 0.639589 1.116748 0
M  V30 14 C -0.505780 1.884104 1.800305 0 CFG=1
M  V30 15 C -1.614795 2.171894 2.781668 0
M  V30 16 C -1.235206 1.924429 4.204243 0
M  V30 17 C -0.265454 0.801071 4.416125 0 CFG=2
M  V30 18 N 0.082594 0.825417 5.844233 0
M  V30 19 C 0.987836 1.023287 3.630668 0
M  V30 20 C 0.795636 2.032053 2.535016 0
M  V30 21 N 0.073935 -0.997772 -0.473674 0
M  V30 22 C 0.924126 -1.483975 -1.397265 0
M  V30 23 H -1.676375 -1.807995 -2.394144 0
M  V30 24 H -1.965940 -2.251139 -0.627491 0
M  V30 25 H -2.536357 -3.280591 -1.953836 0
M  V30 26 H -0.549859 -4.221706 -2.459794 0
M  V30 27 H -1.356806 -4.493764 -0.111376 0
M  V30 28 H 0.273190 -5.096479 -0.422930 0
M  V30 29 H 0.018077 -3.557031 0.474095 0
M  V30 30 H 3.488515 -2.702439 -4.023158 0
M  V30 31 H 3.860570 -0.512561 -2.878187 0
M  V30 32 H 3.086512 1.079282 -1.296361 0
M  V30 33 H -1.502281 0.065060 1.342708 0
M  V30 34 H -0.484988 2.674624 0.998069 0
M  V30 35 H -2.550548 1.621435 2.500282 0
M  V30 36 H -1.860511 3.250773 2.694188 0
M  V30 37 H -2.148383 1.694030 4.788921 0
M  V30 38 H -0.789793 2.840674 4.685153 0
M  V30 39 H -0.754500 -0.168959 4.203080 0
M  V30 40 H 1.060766 1.172647 5.973095 0
M  V30 41 H 0.063147 -0.159197 6.244529 0
M  V30 42 H 1.802176 1.427523 4.291089 0
M  V30 43 H 1.358730 0.047055 3.281278 0
M  V30 44 H 0.730945 3.033778 3.049043 0
M  V30 45 H 1.677498 2.102372 1.894756 0
M  V30 END ATOM
M  V30 BEGIN BOND
M  V30 1 1 1 2
M  V30 2 1 2 3
M  V30 3 1 2 4
M  V30 4 1 4 5
M  V30 5 2 5 6
M  V30 6 1 5 7
M  V30 7 2 7 8
M  V30 8 1 8 9
M  V30 9 2 9 10
M  V30 10 1 10 11
M  V30 11 2 11 12
M  V30 12 1 12 13
M  V30 13 1 13 14
M  V30 14 1 14 15
M  V30 15 1 15 16
M  V30 16 1 16 17
M  V30 17 1 17 18
M  V30 18 1 17 19
M  V30 19 1 19 20
M  V30 20 1 12 21
M  V30 21 2 21 22
M  V30 22 1 22 4
M  V30 23 1 22 9
M  V30 24 1 20 14
M  V30 25 1 1 23
M  V30 26 1 1 24
M  V30 27 1 1 25
M  V30 28 1 2 26
M  V30 29 1 3 27
M  V30 30 1 3 28
M  V30 31 1 3 29
M  V30 32 1 7 30
M  V30 33 1 8 31
M  V30 34 1 10 32
M  V30 35 1 13 33
M  V30 36 1 14 34 CFG=3
M  V30 37 1 15 35
M  V30 38 1 15 36
M  V30 39 1 16 37
M  V30 40 1 16 38
M  V30 41 1 17 39 CFG=3
M  V30 42 1 18 40
M  V30 43 1 18 41
M  V30 44 1 19 42
M  V30 45 1 19 43
M  V30 46 1 20 44
M  V30 47 1 20 45
M  V30 END BOND
M  V30 END CTAB
M  END
>  <Dataset>  (579) 
ChEMBL_Kinases

>  <Ligand_Instance>  (579) 
nan

>  <PDB_ID>  (579) 
nan

>  <Standardized_SMILES>  (579) 
CC(C)n1c(=O)ccc2cnc(N[C@H]3CC[C@H](N)CC3)nc21

>  <Name>  (579) 
nan

>  <Pocket>  (579) 
nan

>  <ATP_Site>  (579) 
nan

>  <Peripheral>  (579) 
nan

>  <Num_H_Atoms_ProtBoundConf>  (579) 
nan

>  <Num_Resolved_Atoms>  (579) 
nan

>  <Num_Not_Resolved_Atoms>  (579) 
nan

$$$$
CHEMBL382752
     RDKit          3D

  0  0  0  0  0  0  0  0  0  0999 V3000
M  V30 BEGIN CTAB
M  V30 COUNTS 49 53 0 0 0
M  V30 BEGIN ATOM
M  V30 1 O 1.899846 -5.824018 1.006118 0
M  V30 2 C 1.005691 -5.168467 0.396193 0
M  V30 3 C 1.321431 -3.894950 -0.255016 0
M  V30 4 C 0.858793 -2.724175 0.281217 0
M  V30 5 C 1.098459 -1.487295 -0.275977 0
M  V30 6 C 1.851108 -1.383016 -1.450657 0
M  V30 7 N 2.139267 -0.159005 -2.105394 0
M  V30 8 C 1.853430 1.180034 -1.724972 0
M  V30 9 N 2.172254 2.147670 -2.584996 0
M  V30 10 C 1.954953 3.438690 -2.332167 0
M  V30 11 C 1.377835 3.808963 -1.138932 0
M  V30 12 C 1.039560 2.817134 -0.232735 0
M  V30 13 C 0.413258 3.218287 1.019808 0
M  V30 14 C 0.094466 2.597251 2.170779 0
M  V30 15 C -0.481084 3.312573 3.194039 0
M  V30 16 C -0.855594 2.832360 4.434115 0
M  V30 17 C -1.411741 3.710991 5.336129 0
M  V30 18 C -1.637781 5.055855 5.118490 0
M  V30 19 C -1.262858 5.533117 3.880906 0
M  V30 20 C -0.696902 4.642746 2.965440 0
M  V30 21 S -0.085993 4.904076 1.292007 0
M  V30 22 N 1.276908 1.523023 -0.528594 0
M  V30 23 C 2.306876 -2.568631 -1.973299 0
M  V30 24 C 2.057223 -3.792313 -1.403239 0
M  V30 25 N -0.401282 -5.413693 0.169479 0
M  V30 26 C -1.510735 -4.728565 -0.511473 0
M  V30 27 C -2.540763 -4.561855 0.608125 0
M  V30 28 C -2.382613 -5.894159 1.350239 0
M  V30 29 C -1.226570 -6.552839 0.607085 0
M  V30 30 H 0.270288 -2.772791 1.192050 0
M  V30 31 H 0.707557 -0.626100 0.189833 0
M  V30 32 H 2.649501 -0.282366 -3.032611 0
M  V30 33 H 2.266376 4.131088 -3.126600 0
M  V30 34 H 1.238136 4.871608 -1.005031 0
M  V30 35 H 0.341280 1.543080 2.175206 0
M  V30 36 H -0.731575 1.779699 4.745068 0
M  V30 37 H -1.696376 3.294756 6.319312 0
M  V30 38 H -2.073326 5.740057 5.828358 0
M  V30 39 H -1.371476 6.570823 3.540903 0
M  V30 40 H 2.908534 -2.601003 -2.898283 0
M  V30 41 H 2.444568 -4.709875 -1.862614 0
M  V30 42 H -1.224212 -3.711119 -0.834849 0
M  V30 43 H -1.892909 -5.299654 -1.367276 0
M  V30 44 H -2.294236 -3.703052 1.245554 0
M  V30 45 H -3.518139 -4.454922 0.152410 0
M  V30 46 H -2.127058 -5.674228 2.395294 0
M  V30 47 H -3.308272 -6.487220 1.329727 0
M  V30 48 H -0.657818 -7.230403 1.254710 0
M  V30 49 H -1.565383 -7.055620 -0.308279 0
M  V30 END ATOM
M  V30 BEGIN BOND
M  V30 1 2 1 2
M  V30 2 1 2 3
M  V30 3 2 3 4
M  V30 4 1 4 5
M  V30 5 2 5 6
M  V30 6 1 6 7
M  V30 7 1 7 8
M  V30 8 2 8 9
M  V30 9 1 9 10
M  V30 10 2 10 11
M  V30 11 1 11 12
M  V30 12 1 12 13
M  V30 13 2 13 14
M  V30 14 1 14 15
M  V30 15 2 15 16
M  V30 16 1 16 17
M  V30 17 2 17 18
M  V30 18 1 18 19
M  V30 19 2 19 20
M  V30 20 1 20 21
M  V30 21 2 12 22
M  V30 22 1 6 23
M  V30 23 2 23 24
M  V30 24 1 2 25
M  V30 25 1 25 26
M  V30 26 1 26 27
M  V30 27 1 27 28
M  V30 28 1 28 29
M  V30 29 1 24 3
M  V30 30 1 29 25
M  V30 31 1 22 8
M  V30 32 1 21 13
M  V30 33 1 20 15
M  V30 34 1 4 30
M  V30 35 1 5 31
M  V30 36 1 7 32
M  V30 37 1 10 33
M  V30 38 1 11 34
M  V30 39 1 14 35
M  V30 40 1 16 36
M  V30 41 1 17 37
M  V30 42 1 18 38
M  V30 43 1 19 39
M  V30 44 1 23 40
M  V30 45 1 24 41
M  V30 46 1 26 42
M  V30 47 1 26 43
M  V30 48 1 27 44
M  V30 49 1 27 45
M  V30 50 1 28 46
M  V30 51 1 28 47
M  V30 52 1 29 48
M  V30 53 1 29 49
M  V30 END BOND
M  V30 END CTAB
M  END
>  <Dataset>  (580) 
ChEMBL_Kinases

>  <Ligand_Instance>  (580) 
nan

>  <PDB_ID>  (580) 
nan

>  <Standardized_SMILES>  (580) 
O=C(c1ccc(Nc2nccc(-c3cc4ccccc4s3)n2)cc1)N1CCCC1

>  <Name>  (580) 
nan

>  <Pocket>  (580) 
nan

>  <ATP_Site>  (580) 
nan

>  <Peripheral>  (580) 
nan

>  <Num_H_Atoms_ProtBoundConf>  (580) 
nan

>  <Num_Resolved_Atoms>  (580) 
nan

>  <Num_Not_Resolved_Atoms>  (580) 
nan

$$$$
CHEMBL382945
     RDKit          3D

  0  0  0  0  0  0  0  0  0  0999 V3000
M  V30 BEGIN CTAB
M  V30 COUNTS 81 85 0 0 0
M  V30 BEGIN ATOM
M  V30 1 C -1.178450 -3.720816 1.896168 0
M  V30 2 C -2.623215 -4.087096 1.932433 0
M  V30 3 C -3.456587 -3.366309 0.871098 0
M  V30 4 N -2.988580 -3.696944 -0.458722 0
M  V30 5 C -4.911418 -3.691508 0.981225 0
M  V30 6 C -5.231256 -5.164745 0.816853 0
M  V30 7 C -3.267484 -1.891832 1.078411 0
M  V30 8 C -4.050424 -1.015273 0.122850 0
M  V30 9 C -3.709776 0.342262 0.424663 0
M  V30 10 C -4.062943 1.584270 0.002925 0
M  V30 11 C -3.552510 2.727295 0.503003 0
M  V30 12 C -2.604165 2.562249 1.517996 0
M  V30 13 C -1.757804 3.513258 2.342521 0
M  V30 14 C -1.873822 4.852845 2.274697 0
M  V30 15 C -0.999941 5.528215 3.083902 0
M  V30 16 N -0.087168 4.979605 3.894115 0
M  V30 17 C 0.019430 3.621635 3.951566 0
M  V30 18 N 0.745369 2.530205 4.566150 0
M  V30 19 C 1.740734 2.017211 3.650677 0
M  V30 20 C 2.012928 0.652819 3.739190 0
M  V30 21 C 2.922654 -0.003331 2.943637 0
M  V30 22 C 3.623537 0.725744 1.987816 0
M  V30 23 C 4.598022 0.132511 1.079187 0
M  V30 24 O 5.855775 0.351994 1.051583 0
M  V30 25 N 4.059352 -0.787275 0.128698 0
M  V30 26 C 2.674405 -1.242364 -0.077416 0
M  V30 27 C 2.434513 -1.560886 -1.547590 0
M  V30 28 C 3.200996 -0.534680 -2.324753 0
M  V30 29 N 2.806205 -0.330789 -3.661711 0
M  V30 30 C 1.487740 0.101720 -3.919592 0
M  V30 31 C 0.926773 -0.711335 -5.064224 0
M  V30 32 C 2.174185 -1.236840 -5.746294 0
M  V30 33 C 3.206478 -1.280930 -4.639078 0
M  V30 34 C 4.655675 -0.963903 -2.270158 0
M  V30 35 C 4.926792 -1.439384 -0.850648 0
M  V30 36 C 3.353950 2.095240 1.899541 0
M  V30 37 C 2.432320 2.746135 2.708054 0
M  V30 38 N -0.849600 2.937931 3.146875 0
M  V30 39 S -2.494728 0.808341 1.705317 0
M  V30 40 H -0.969641 -2.869736 2.612382 0
M  V30 41 H -0.813092 -3.377503 0.928548 0
M  V30 42 H -0.526364 -4.540031 2.263375 0
M  V30 43 H -2.750360 -5.175519 1.884583 0
M  V30 44 H -3.018987 -3.777636 2.940938 0
M  V30 45 H -2.199544 -4.362506 -0.451410 0
M  V30 46 H -3.777237 -4.155711 -0.974349 0
M  V30 47 H -5.473705 -3.144418 0.171629 0
M  V30 48 H -5.345430 -3.363147 1.949648 0
M  V30 49 H -6.287489 -5.209629 0.435699 0
M  V30 50 H -4.612965 -5.685118 0.080878 0
M  V30 51 H -5.251486 -5.713503 1.792709 0
M  V30 52 H -3.534924 -1.589375 2.136027 0
M  V30 53 H -2.196322 -1.596489 0.962529 0
M  V30 54 H -3.755113 -1.320552 -0.911503 0
M  V30 55 H -5.143780 -1.186754 0.269044 0
M  V30 56 H -4.809262 1.604614 -0.783564 0
M  V30 57 H -3.788332 3.734640 0.222807 0
M  V30 58 H -2.606543 5.297529 1.626417 0
M  V30 59 H -0.985306 6.607021 3.122258 0
M  V30 60 H 0.630268 2.107743 5.508091 0
M  V30 61 H 1.456252 0.067903 4.490228 0
M  V30 62 H 3.109494 -1.084456 3.032506 0
M  V30 63 H 2.037702 -0.363594 0.145414 0
M  V30 64 H 2.463669 -2.123247 0.566362 0
M  V30 65 H 2.807072 -2.599441 -1.743015 0
M  V30 66 H 1.347361 -1.574289 -1.721979 0
M  V30 67 H 3.144175 0.422169 -1.787381 0
M  V30 68 H 1.532447 1.169195 -4.283340 0
M  V30 69 H 0.792257 0.143427 -3.060268 0
M  V30 70 H 0.359254 -0.072859 -5.772286 0
M  V30 71 H 0.248366 -1.520877 -4.759378 0
M  V30 72 H 2.482276 -0.616884 -6.611845 0
M  V30 73 H 1.940813 -2.235851 -6.133590 0
M  V30 74 H 3.303134 -2.328154 -4.293565 0
M  V30 75 H 4.151166 -0.905829 -5.108218 0
M  V30 76 H 5.318174 -0.137456 -2.579855 0
M  V30 77 H 4.857198 -1.839701 -2.917040 0
M  V30 78 H 4.796720 -2.551960 -0.754156 0
M  V30 79 H 6.005466 -1.223080 -0.645792 0
M  V30 80 H 3.848348 2.778313 1.186664 0
M  V30 81 H 2.216790 3.800574 2.654008 0
M  V30 END ATOM
M  V30 BEGIN BOND
M  V30 1 1 1 2
M  V30 2 1 2 3
M  V30 3 1 3 4
M  V30 4 1 3 5
M  V30 5 1 5 6
M  V30 6 1 3 7
M  V30 7 1 7 8
M  V30 8 1 8 9
M  V30 9 2 9 10
M  V30 10 1 10 11
M  V30 11 2 11 12
M  V30 12 1 12 13
M  V30 13 2 13 14
M  V30 14 1 14 15
M  V30 15 2 15 16
M  V30 16 1 16 17
M  V30 17 1 17 18
M  V30 18 1 18 19
M  V30 19 2 19 20
M  V30 20 1 20 21
M  V30 21 2 21 22
M  V30 22 1 22 23
M  V30 23 2 23 24
M  V30 24 1 23 25
M  V30 25 1 25 26
M  V30 26 1 26 27
M  V30 27 1 27 28
M  V30 28 1 28 29
M  V30 29 1 29 30
M  V30 30 1 30 31
M  V30 31 1 31 32
M  V30 32 1 32 33
M  V30 33 1 28 34
M  V30 34 1 34 35
M  V30 35 1 22 36
M  V30 36 2 36 37
M  V30 37 2 17 38
M  V30 38 1 12 39
M  V30 39 1 39 9
M  V30 40 1 38 13
M  V30 41 1 37 19
M  V30 42 1 35 25
M  V30 43 1 33 29
M  V30 44 1 1 40
M  V30 45 1 1 41
M  V30 46 1 1 42
M  V30 47 1 2 43
M  V30 48 1 2 44
M  V30 49 1 4 45
M  V30 50 1 4 46
M  V30 51 1 5 47
M  V30 52 1 5 48
M  V30 53 1 6 49
M  V30 54 1 6 50
M  V30 55 1 6 51
M  V30 56 1 7 52
M  V30 57 1 7 53
M  V30 58 1 8 54
M  V30 59 1 8 55
M  V30 60 1 10 56
M  V30 61 1 11 57
M  V30 62 1 14 58
M  V30 63 1 15 59
M  V30 64 1 18 60
M  V30 65 1 20 61
M  V30 66 1 21 62
M  V30 67 1 26 63
M  V30 68 1 26 64
M  V30 69 1 27 65
M  V30 70 1 27 66
M  V30 71 1 28 67
M  V30 72 1 30 68
M  V30 73 1 30 69
M  V30 74 1 31 70
M  V30 75 1 31 71
M  V30 76 1 32 72
M  V30 77 1 32 73
M  V30 78 1 33 74
M  V30 79 1 33 75
M  V30 80 1 34 76
M  V30 81 1 34 77
M  V30 82 1 35 78
M  V30 83 1 35 79
M  V30 84 1 36 80
M  V30 85 1 37 81
M  V30 END BOND
M  V30 END CTAB
M  END
>  <Dataset>  (581) 
ChEMBL_Kinases

>  <Ligand_Instance>  (581) 
nan

>  <PDB_ID>  (581) 
nan

>  <Standardized_SMILES>  (581) 
CCC(N)(CC)CCc1ccc(-c2ccnc(Nc3ccc(C(=O)N4CCC(N5CCCC5)CC4)cc3)n2)s1

>  <Name>  (581) 
nan

>  <Pocket>  (581) 
nan

>  <ATP_Site>  (581) 
nan

>  <Peripheral>  (581) 
nan

>  <Num_H_Atoms_ProtBoundConf>  (581) 
nan

>  <Num_Resolved_Atoms>  (581) 
nan

>  <Num_Not_Resolved_Atoms>  (581) 
nan

$$$$
CHEMBL383104
     RDKit          3D

  0  0  0  0  0  0  0  0  0  0999 V3000
M  V30 BEGIN CTAB
M  V30 COUNTS 60 63 0 0 0
M  V30 BEGIN ATOM
M  V30 1 C 1.261264 0.145706 5.359308 0
M  V30 2 C 2.417729 -0.000401 4.426645 0
M  V30 3 C 2.395100 -1.330272 3.704111 0
M  V30 4 C 3.581180 -1.476973 2.763782 0
M  V30 5 N 3.569088 -0.403062 1.767101 0
M  V30 6 C 2.512460 -0.200913 0.836096 0
M  V30 7 O 1.602848 -1.048020 0.941966 0
M  V30 8 N 2.604714 0.909871 -0.076452 0
M  V30 9 C 3.368041 2.079061 -0.578946 0
M  V30 10 C 2.366391 3.131668 -0.138519 0
M  V30 11 N 2.070693 4.318218 0.388785 0
M  V30 12 N 0.780463 4.536754 0.487536 0
M  V30 13 C 0.124749 3.443066 0.000496 0
M  V30 14 N -1.223992 2.955234 -0.147707 0
M  V30 15 C -1.505238 1.893040 0.754657 0
M  V30 16 O -0.554346 1.527476 1.532523 0
M  V30 17 C -2.730516 1.052390 1.012715 0
M  V30 18 C -2.529449 -0.295714 0.383131 0
M  V30 19 C -3.209414 -0.432135 -0.837196 0
M  V30 20 C -3.106844 -1.600194 -1.558981 0
M  V30 21 C -2.354288 -2.676622 -1.146498 0
M  V30 22 N -2.272677 -3.877912 -1.939750 0
M  V30 23 C -1.421634 -5.014335 -1.659990 0
M  V30 24 C -2.221743 -6.159990 -2.210901 0
M  V30 25 C -3.116571 -5.559154 -3.261738 0
M  V30 26 C -3.062028 -4.059850 -3.137728 0
M  V30 27 C -1.694558 -2.521562 0.054989 0
M  V30 28 C -1.776219 -1.362345 0.806306 0
M  V30 29 C 1.110949 2.546766 -0.399578 0
M  V30 30 C 1.472903 1.192912 -0.981227 0
M  V30 31 H 0.628660 1.025574 5.041350 0
M  V30 32 H 0.621830 -0.744884 5.368330 0
M  V30 33 H 1.586514 0.354254 6.410545 0
M  V30 34 H 3.349830 0.044703 5.032027 0
M  V30 35 H 2.433699 0.856123 3.709105 0
M  V30 36 H 1.442762 -1.558545 3.207190 0
M  V30 37 H 2.571075 -2.105849 4.503336 0
M  V30 38 H 3.506870 -2.463186 2.284495 0
M  V30 39 H 4.497496 -1.425723 3.361078 0
M  V30 40 H 4.397076 0.262044 1.742588 0
M  V30 41 H 4.316472 2.212412 -0.054017 0
M  V30 42 H 3.404434 2.040800 -1.668867 0
M  V30 43 H 0.162785 5.281662 0.822207 0
M  V30 44 H -2.052631 3.167287 -0.734869 0
M  V30 45 H -2.877426 0.926566 2.111355 0
M  V30 46 H -3.586922 1.552548 0.583199 0
M  V30 47 H -3.828672 0.357858 -1.247478 0
M  V30 48 H -3.644196 -1.675275 -2.497626 0
M  V30 49 H -1.187937 -5.127608 -0.586050 0
M  V30 50 H -0.458423 -4.872025 -2.232892 0
M  V30 51 H -2.821794 -6.557247 -1.339839 0
M  V30 52 H -1.565903 -6.961164 -2.631343 0
M  V30 53 H -4.193160 -5.836235 -3.091049 0
M  V30 54 H -2.796766 -5.909395 -4.267006 0
M  V30 55 H -4.060204 -3.588560 -3.063033 0
M  V30 56 H -2.460765 -3.634094 -3.969927 0
M  V30 57 H -1.096274 -3.315510 0.435311 0
M  V30 58 H -1.287283 -1.182913 1.747987 0
M  V30 59 H 1.850326 1.328219 -1.984250 0
M  V30 60 H 0.646146 0.490487 -0.871924 0
M  V30 END ATOM
M  V30 BEGIN BOND
M  V30 1 1 1 2
M  V30 2 1 2 3
M  V30 3 1 3 4
M  V30 4 1 4 5
M  V30 5 1 5 6
M  V30 6 2 6 7
M  V30 7 1 6 8
M  V30 8 1 8 9
M  V30 9 1 9 10
M  V30 10 2 10 11
M  V30 11 1 11 12
M  V30 12 1 12 13
M  V30 13 1 13 14
M  V30 14 1 14 15
M  V30 15 2 15 16
M  V30 16 1 15 17
M  V30 17 1 17 18
M  V30 18 2 18 19
M  V30 19 1 19 20
M  V30 20 2 20 21
M  V30 21 1 21 22
M  V30 22 1 22 23
M  V30 23 1 23 24
M  V30 24 1 24 25
M  V30 25 1 25 26
M  V30 26 1 21 27
M  V30 27 2 27 28
M  V30 28 2 13 29
M  V30 29 1 29 30
M  V30 30 1 30 8
M  V30 31 1 29 10
M  V30 32 1 28 18
M  V30 33 1 26 22
M  V30 34 1 1 31
M  V30 35 1 1 32
M  V30 36 1 1 33
M  V30 37 1 2 34
M  V30 38 1 2 35
M  V30 39 1 3 36
M  V30 40 1 3 37
M  V30 41 1 4 38
M  V30 42 1 4 39
M  V30 43 1 5 40
M  V30 44 1 9 41
M  V30 45 1 9 42
M  V30 46 1 12 43
M  V30 47 1 14 44
M  V30 48 1 17 45
M  V30 49 1 17 46
M  V30 50 1 19 47
M  V30 51 1 20 48
M  V30 52 1 23 49
M  V30 53 1 23 50
M  V30 54 1 24 51
M  V30 55 1 24 52
M  V30 56 1 25 53
M  V30 57 1 25 54
M  V30 58 1 26 55
M  V30 59 1 26 56
M  V30 60 1 27 57
M  V30 61 1 28 58
M  V30 62 1 30 59
M  V30 63 1 30 60
M  V30 END BOND
M  V30 END CTAB
M  END
>  <Dataset>  (582) 
ChEMBL_Kinases

>  <Ligand_Instance>  (582) 
nan

>  <PDB_ID>  (582) 
nan

>  <Standardized_SMILES>  (582) 
CCCCNC(=O)N1Cc2n[nH]c(NC(=O)Cc3ccc(N4CCCC4)cc3)c2C1

>  <Name>  (582) 
nan

>  <Pocket>  (582) 
nan

>  <ATP_Site>  (582) 
nan

>  <Peripheral>  (582) 
nan

>  <Num_H_Atoms_ProtBoundConf>  (582) 
nan

>  <Num_Resolved_Atoms>  (582) 
nan

>  <Num_Not_Resolved_Atoms>  (582) 
nan

$$$$
CHEMBL383177
     RDKit          3D

  0  0  0  0  0  0  0  0  0  0999 V3000
M  V30 BEGIN CTAB
M  V30 COUNTS 37 40 0 0 0
M  V30 BEGIN ATOM
M  V30 1 C 1.178597 -6.008080 4.013031 0
M  V30 2 C 1.212281 -6.482090 2.727721 0
M  V30 3 C 1.186376 -5.643868 1.644222 0
M  V30 4 C 1.124803 -4.273821 1.785784 0
M  V30 5 N 1.114638 -3.413574 0.658491 0
M  V30 6 C 0.667822 -2.081867 0.467250 0
M  V30 7 C 1.158550 -1.313399 -0.566829 0
M  V30 8 C 0.727012 -0.025779 -0.778243 0
M  V30 9 C -0.212111 0.558525 0.027602 0
M  V30 10 C -0.811297 1.807385 0.041997 0
M  V30 11 C -0.565310 2.904710 -0.882330 0
M  V30 12 C -0.419584 4.139985 -0.244270 0
M  V30 13 C -0.181204 5.283336 -0.978100 0
M  V30 14 C -0.084514 5.207920 -2.368208 0
M  V30 15 C -0.230123 3.981518 -2.989805 0
M  V30 16 C -0.469789 2.829380 -2.257302 0
M  V30 17 N -1.672500 1.797133 1.092458 0
M  V30 18 N -1.620760 0.624170 1.698800 0
M  V30 19 C -0.733805 -0.169924 1.075932 0
M  V30 20 C -0.269167 -1.455608 1.245764 0
M  V30 21 C 1.093082 -3.838778 3.093639 0
M  V30 22 C 1.117389 -4.651728 4.206658 0
M  V30 23 H 1.200228 -6.693866 4.838108 0
M  V30 24 H 1.261461 -7.564493 2.558069 0
M  V30 25 H 1.214055 -6.041315 0.626978 0
M  V30 26 H 1.523491 -3.859524 -0.211900 0
M  V30 27 H 1.904813 -1.721580 -1.239290 0
M  V30 28 H 1.147236 0.538531 -1.610166 0
M  V30 29 H -0.481259 4.287367 0.843592 0
M  V30 30 H -0.062688 6.256148 -0.523682 0
M  V30 31 H 0.104434 6.090248 -2.998377 0
M  V30 32 H -0.169089 3.840866 -4.055824 0
M  V30 33 H -0.595897 1.831264 -2.665872 0
M  V30 34 H -2.173366 0.322186 2.541352 0
M  V30 35 H -0.732795 -1.964238 2.078799 0
M  V30 36 H 1.056202 -2.785786 3.329902 0
M  V30 37 H 1.090436 -4.267780 5.217017 0
M  V30 END ATOM
M  V30 BEGIN BOND
M  V30 1 2 1 2
M  V30 2 1 2 3
M  V30 3 2 3 4
M  V30 4 1 4 5
M  V30 5 1 5 6
M  V30 6 2 6 7
M  V30 7 1 7 8
M  V30 8 2 8 9
M  V30 9 1 9 10
M  V30 10 1 10 11
M  V30 11 2 11 12
M  V30 12 1 12 13
M  V30 13 2 13 14
M  V30 14 1 14 15
M  V30 15 2 15 16
M  V30 16 2 10 17
M  V30 17 1 17 18
M  V30 18 1 18 19
M  V30 19 2 19 20
M  V30 20 1 4 21
M  V30 21 2 21 22
M  V30 22 1 22 1
M  V30 23 1 20 6
M  V30 24 1 19 9
M  V30 25 1 16 11
M  V30 26 1 1 23
M  V30 27 1 2 24
M  V30 28 1 3 25
M  V30 29 1 5 26
M  V30 30 1 7 27
M  V30 31 1 8 28
M  V30 32 1 12 29
M  V30 33 1 13 30
M  V30 34 1 14 31
M  V30 35 1 15 32
M  V30 36 1 16 33
M  V30 37 1 18 34
M  V30 38 1 20 35
M  V30 39 1 21 36
M  V30 40 1 22 37
M  V30 END BOND
M  V30 END CTAB
M  END
>  <Dataset>  (583) 
ChEMBL_Kinases

>  <Ligand_Instance>  (583) 
nan

>  <PDB_ID>  (583) 
nan

>  <Standardized_SMILES>  (583) 
c1ccc(Nc2ccc3c(-c4ccccc4)n[nH]c3c2)cc1

>  <Name>  (583) 
nan

>  <Pocket>  (583) 
nan

>  <ATP_Site>  (583) 
nan

>  <Peripheral>  (583) 
nan

>  <Num_H_Atoms_ProtBoundConf>  (583) 
nan

>  <Num_Resolved_Atoms>  (583) 
nan

>  <Num_Not_Resolved_Atoms>  (583) 
nan

$$$$
CHEMBL383308
     RDKit          3D

  0  0  0  0  0  0  0  0  0  0999 V3000
M  V30 BEGIN CTAB
M  V30 COUNTS 46 46 0 0 0
M  V30 BEGIN ATOM
M  V30 1 C 2.687717 -4.727460 2.001000 0
M  V30 2 C 3.520071 -3.490825 2.016802 0
M  V30 3 C 2.922384 -2.235936 1.509888 0
M  V30 4 N 2.540495 -2.161709 0.152265 0
M  V30 5 C 1.442861 -2.960577 -0.206679 0
M  V30 6 C 0.981945 -2.710804 -1.651356 0
M  V30 7 O 2.011053 -2.994442 -2.515279 0
M  V30 8 C 2.521780 -0.809603 -0.360506 0
M  V30 9 C 1.389549 -0.075776 0.310257 0
M  V30 10 O 0.582219 -0.547184 1.171096 0
M  V30 11 N 1.072604 1.294630 0.051165 0
M  V30 12 C -0.063096 1.573007 0.899718 0
M  V30 13 C 0.163795 2.027264 2.181067 0
M  V30 14 C -0.959889 2.280386 2.961903 0
M  V30 15 N -0.761770 2.747547 4.284992 0
M  V30 16 C -2.225286 2.075528 2.446323 0
M  V30 17 C -3.315727 2.368324 3.339032 0
M  V30 18 N -4.206258 2.588956 4.051473 0
M  V30 19 C -2.411431 1.616809 1.150059 0
M  V30 20 O -3.720547 1.465874 0.789947 0
M  V30 21 C -4.182685 1.020569 -0.455149 0
M  V30 22 C -3.740240 1.914333 -1.591841 0
M  V30 23 N -1.295044 1.375159 0.402612 0
M  V30 24 H 2.876227 -5.345487 2.931820 0
M  V30 25 H 2.985291 -5.378042 1.161410 0
M  V30 26 H 1.596078 -4.562301 1.960302 0
M  V30 27 H 4.478810 -3.755324 1.473240 0
M  V30 28 H 3.862518 -3.360045 3.088769 0
M  V30 29 H 3.655595 -1.400719 1.778187 0
M  V30 30 H 2.055322 -2.011834 2.202741 0
M  V30 31 H 0.566467 -2.972776 0.439396 0
M  V30 32 H 1.808152 -4.034976 -0.279463 0
M  V30 33 H 0.190983 -3.473707 -1.817476 0
M  V30 34 H 0.493060 -1.738999 -1.781028 0
M  V30 35 H 1.927344 -2.555284 -3.385950 0
M  V30 36 H 2.407737 -0.830929 -1.444298 0
M  V30 37 H 3.500595 -0.347950 -0.122804 0
M  V30 38 H 1.653741 1.820079 -0.639177 0
M  V30 39 H 1.185761 2.165259 2.518279 0
M  V30 40 H -0.640142 1.927850 4.910837 0
M  V30 41 H -0.711796 3.679046 4.756559 0
M  V30 42 H -5.260834 0.889804 -0.513264 0
M  V30 43 H -3.717364 0.014871 -0.635327 0
M  V30 44 H -3.957349 2.989342 -1.319425 0
M  V30 45 H -2.678306 1.866685 -1.829444 0
M  V30 46 H -4.344096 1.734899 -2.504775 0
M  V30 END ATOM
M  V30 BEGIN BOND
M  V30 1 1 1 2
M  V30 2 1 2 3
M  V30 3 1 3 4
M  V30 4 1 4 5
M  V30 5 1 5 6
M  V30 6 1 6 7
M  V30 7 1 4 8
M  V30 8 1 8 9
M  V30 9 2 9 10
M  V30 10 1 9 11
M  V30 11 1 11 12
M  V30 12 2 12 13
M  V30 13 1 13 14
M  V30 14 1 14 15
M  V30 15 2 14 16
M  V30 16 1 16 17
M  V30 17 3 17 18
M  V30 18 1 16 19
M  V30 19 1 19 20
M  V30 20 1 20 21
M  V30 21 1 21 22
M  V30 22 2 19 23
M  V30 23 1 23 12
M  V30 24 1 1 24
M  V30 25 1 1 25
M  V30 26 1 1 26
M  V30 27 1 2 27
M  V30 28 1 2 28
M  V30 29 1 3 29
M  V30 30 1 3 30
M  V30 31 1 5 31
M  V30 32 1 5 32
M  V30 33 1 6 33
M  V30 34 1 6 34
M  V30 35 1 7 35
M  V30 36 1 8 36
M  V30 37 1 8 37
M  V30 38 1 11 38
M  V30 39 1 13 39
M  V30 40 1 15 40
M  V30 41 1 15 41
M  V30 42 1 21 42
M  V30 43 1 21 43
M  V30 44 1 22 44
M  V30 45 1 22 45
M  V30 46 1 22 46
M  V30 END BOND
M  V30 END CTAB
M  END
>  <Dataset>  (584) 
ChEMBL_Kinases

>  <Ligand_Instance>  (584) 
nan

>  <PDB_ID>  (584) 
nan

>  <Standardized_SMILES>  (584) 
CCCN(CCO)CC(=O)Nc1cc(N)c(C#N)c(OCC)n1

>  <Name>  (584) 
nan

>  <Pocket>  (584) 
nan

>  <ATP_Site>  (584) 
nan

>  <Peripheral>  (584) 
nan

>  <Num_H_Atoms_ProtBoundConf>  (584) 
nan

>  <Num_Resolved_Atoms>  (584) 
nan

>  <Num_Not_Resolved_Atoms>  (584) 
nan

$$$$
CHEMBL383316
     RDKit          3D

  0  0  0  0  0  0  0  0  0  0999 V3000
M  V30 BEGIN CTAB
M  V30 COUNTS 46 50 0 0 0
M  V30 BEGIN ATOM
M  V30 1 C 5.736975 -4.543349 0.488137 0
M  V30 2 O 5.313547 -4.726475 -0.842379 0
M  V30 3 C 4.231597 -4.075321 -1.417603 0
M  V30 4 C 3.393601 -3.159688 -0.818601 0
M  V30 5 C 2.341960 -2.571718 -1.492620 0
M  V30 6 C 1.488865 -1.610007 -0.797223 0
M  V30 7 C 1.942318 -0.757357 0.213099 0
M  V30 8 C 1.046321 0.125720 0.819976 0
M  V30 9 C -0.260030 0.119500 0.393141 0
M  V30 10 C -0.759948 -0.697536 -0.596254 0
M  V30 11 C 0.163452 -1.571880 -1.185404 0
M  V30 12 N -2.160954 -0.461659 -0.806300 0
M  V30 13 C -2.511561 0.556817 0.114494 0
M  V30 14 O -3.682182 0.953051 0.144231 0
M  V30 15 C -1.344443 0.948939 0.885780 0
M  V30 16 C -1.473927 1.868807 1.824507 0
M  V30 17 C -2.620583 2.658378 2.244654 0
M  V30 18 C -3.568773 3.410094 1.587292 0
M  V30 19 N -4.464008 3.935762 2.455479 0
M  V30 20 C -4.081456 3.515779 3.668653 0
M  V30 21 N -4.680030 3.794568 4.835136 0
M  V30 22 C -4.186862 3.304618 5.983976 0
M  V30 23 C -3.059330 2.513543 5.938291 0
M  V30 24 C -2.387785 2.183999 4.762377 0
M  V30 25 C -2.947460 2.721603 3.611413 0
M  V30 26 C 2.118816 -2.909364 -2.810568 0
M  V30 27 C 2.947592 -3.835976 -3.456522 0
M  V30 28 C 3.976796 -4.390005 -2.742170 0
M  V30 29 O 4.771377 -5.305235 -3.428009 0
M  V30 30 H 6.427079 -3.692846 0.637135 0
M  V30 31 H 6.279828 -5.459174 0.846839 0
M  V30 32 H 4.900748 -4.381854 1.198118 0
M  V30 33 H 3.624720 -2.939560 0.221457 0
M  V30 34 H 2.986214 -0.816555 0.492034 0
M  V30 35 H 1.397835 0.794247 1.611081 0
M  V30 36 H -0.233922 -2.217155 -1.967370 0
M  V30 37 H -2.711481 -0.975298 -1.504908 0
M  V30 38 H -0.532104 2.055259 2.371795 0
M  V30 39 H -3.579033 3.568209 0.518830 0
M  V30 40 H -5.278213 4.541594 2.203123 0
M  V30 41 H -4.627667 3.496844 6.951565 0
M  V30 42 H -2.660124 2.117610 6.863790 0
M  V30 43 H -1.504303 1.567793 4.698756 0
M  V30 44 H 1.275942 -2.427827 -3.325873 0
M  V30 45 H 2.762342 -4.094509 -4.495262 0
M  V30 46 H 5.076549 -6.178858 -3.010191 0
M  V30 END ATOM
M  V30 BEGIN BOND
M  V30 1 1 1 2
M  V30 2 1 2 3
M  V30 3 2 3 4
M  V30 4 1 4 5
M  V30 5 1 5 6
M  V30 6 2 6 7
M  V30 7 1 7 8
M  V30 8 2 8 9
M  V30 9 1 9 10
M  V30 10 2 10 11
M  V30 11 1 10 12
M  V30 12 1 12 13
M  V30 13 2 13 14
M  V30 14 1 13 15
M  V30 15 2 15 16
M  V30 16 1 16 17
M  V30 17 2 17 18
M  V30 18 1 18 19
M  V30 19 1 19 20
M  V30 20 2 20 21
M  V30 21 1 21 22
M  V30 22 2 22 23
M  V30 23 1 23 24
M  V30 24 2 24 25
M  V30 25 2 5 26
M  V30 26 1 26 27
M  V30 27 2 27 28
M  V30 28 1 28 29
M  V30 29 1 28 3
M  V30 30 1 11 6
M  V30 31 1 25 17
M  V30 32 1 15 9
M  V30 33 1 25 20
M  V30 34 1 1 30
M  V30 35 1 1 31
M  V30 36 1 1 32
M  V30 37 1 4 33
M  V30 38 1 7 34
M  V30 39 1 8 35
M  V30 40 1 11 36
M  V30 41 1 12 37
M  V30 42 1 16 38
M  V30 43 1 18 39
M  V30 44 1 19 40
M  V30 45 1 22 41
M  V30 46 1 23 42
M  V30 47 1 24 43
M  V30 48 1 26 44
M  V30 49 1 27 45
M  V30 50 1 29 46
M  V30 END BOND
M  V30 END CTAB
M  END
>  <Dataset>  (585) 
ChEMBL_Kinases

>  <Ligand_Instance>  (585) 
nan

>  <PDB_ID>  (585) 
nan

>  <Standardized_SMILES>  (585) 
COc1cc(-c2ccc3c(c2)NC(=O)/C3=C\c2c[nH]c3ncccc23)ccc1O

>  <Name>  (585) 
nan

>  <Pocket>  (585) 
nan

>  <ATP_Site>  (585) 
nan

>  <Peripheral>  (585) 
nan

>  <Num_H_Atoms_ProtBoundConf>  (585) 
nan

>  <Num_Resolved_Atoms>  (585) 
nan

>  <Num_Not_Resolved_Atoms>  (585) 
nan

$$$$
CHEMBL383348
     RDKit          3D

  0  0  0  0  0  0  0  0  0  0999 V3000
M  V30 BEGIN CTAB
M  V30 COUNTS 66 70 0 0 0
M  V30 BEGIN ATOM
M  V30 1 C 2.285241 -1.721693 5.608117 0
M  V30 2 C 3.114832 -0.953057 4.579099 0
M  V30 3 C 2.504543 -1.139130 3.201861 0
M  V30 4 N 3.246565 -0.408431 2.183154 0
M  V30 5 C 2.901211 -0.457399 0.794162 0
M  V30 6 N 3.427449 -1.126550 -0.277175 0
M  V30 7 C 2.873110 -0.992109 -1.479922 0
M  V30 8 C 1.769592 -0.177988 -1.638321 0
M  V30 9 C 1.207980 0.513886 -0.585392 0
M  V30 10 C 0.018713 1.357083 -0.790875 0
M  V30 11 C -0.045323 2.753995 -0.680154 0
M  V30 12 C 1.168488 3.496929 -0.292334 0
M  V30 13 C 2.044024 4.326935 -0.955345 0
M  V30 14 C 3.097425 4.857936 -0.250521 0
M  V30 15 C 3.339851 4.615112 1.082611 0
M  V30 16 F 4.401109 5.174712 1.706442 0
M  V30 17 C 2.473709 3.784767 1.768648 0
M  V30 18 C 1.410804 3.244872 1.072292 0
M  V30 19 N -1.310227 3.125241 -0.942764 0
M  V30 20 C -2.063526 2.045390 -1.213804 0
M  V30 21 N -1.267024 0.990724 -1.121968 0
M  V30 22 C -1.831793 -0.334995 -1.330050 0 CFG=2
M  V30 23 C -1.878614 -0.799878 -2.753427 0
M  V30 24 O -2.260704 -2.013998 -2.996314 0
M  V30 25 C -3.210414 -2.857644 -2.715966 0
M  V30 26 C -3.236503 -3.284641 -1.262506 0
M  V30 27 C -2.187382 -4.220937 -1.112317 0
M  V30 28 C -1.871049 -4.857663 0.094764 0
M  V30 29 C -2.606766 -4.575980 1.220816 0
M  V30 30 O -2.435705 -5.097133 2.477778 0
M  V30 31 C -1.467906 -6.028521 2.874808 0
M  V30 32 C -3.632569 -3.669128 1.095124 0
M  V30 33 C -3.915821 -3.066320 -0.097283 0
M  V30 34 C -3.326121 0.049620 -1.035472 0
M  V30 35 C -3.386818 1.474378 -1.558661 0
M  V30 36 N 1.835240 0.312746 0.569140 0
M  V30 37 H 2.603476 -2.753702 5.737370 0
M  V30 38 H 1.191197 -1.618781 5.343990 0
M  V30 39 H 2.395031 -1.187117 6.596045 0
M  V30 40 H 3.137100 0.093361 4.901103 0
M  V30 41 H 4.113067 -1.438487 4.581396 0
M  V30 42 H 2.383706 -2.208574 2.982511 0
M  V30 43 H 1.460696 -0.717312 3.300648 0
M  V30 44 H 4.068885 0.220593 2.194769 0
M  V30 45 H 3.367134 -1.562069 -2.250369 0
M  V30 46 H 1.398008 -0.128766 -2.642668 0
M  V30 47 H 1.740195 4.429051 -1.979158 0
M  V30 48 H 3.736641 5.497606 -0.850305 0
M  V30 49 H 2.697617 3.621981 2.799239 0
M  V30 50 H 0.809853 2.611469 1.749681 0
M  V30 51 H -1.509882 -1.105551 -0.647260 0
M  V30 52 H -0.849743 -0.641978 -3.244666 0
M  V30 53 H -2.546706 -0.079482 -3.358784 0
M  V30 54 H -3.191024 -3.812678 -3.336998 0
M  V30 55 H -4.267119 -2.498585 -2.894476 0
M  V30 56 H -1.490421 -4.579848 -1.881143 0
M  V30 57 H -1.079730 -5.568463 0.223723 0
M  V30 58 H -0.723673 -5.530051 3.566422 0
M  V30 59 H -1.949516 -6.836376 3.456791 0
M  V30 60 H -0.839090 -6.416402 2.047661 0
M  V30 61 H -4.342818 -3.293554 1.843835 0
M  V30 62 H -4.703623 -2.347605 -0.342003 0
M  V30 63 H -3.479058 -0.029639 0.040499 0
M  V30 64 H -4.010522 -0.536126 -1.662066 0
M  V30 65 H -3.551994 1.527253 -2.631298 0
M  V30 66 H -4.196520 1.974402 -0.965498 0
M  V30 END ATOM
M  V30 BEGIN BOND
M  V30 1 1 1 2
M  V30 2 1 2 3
M  V30 3 1 3 4
M  V30 4 1 4 5
M  V30 5 2 5 6
M  V30 6 1 6 7
M  V30 7 2 7 8
M  V30 8 1 8 9
M  V30 9 1 9 10
M  V30 10 2 10 11
M  V30 11 1 11 12
M  V30 12 2 12 13
M  V30 13 1 13 14
M  V30 14 2 14 15
M  V30 15 1 15 16
M  V30 16 1 15 17
M  V30 17 2 17 18
M  V30 18 1 11 19
M  V30 19 2 19 20
M  V30 20 1 20 21
M  V30 21 1 21 22
M  V30 22 1 22 23
M  V30 23 1 23 24
M  V30 24 1 24 25
M  V30 25 1 25 26
M  V30 26 2 26 27
M  V30 27 1 27 28
M  V30 28 2 28 29
M  V30 29 1 29 30
M  V30 30 1 30 31
M  V30 31 1 29 32
M  V30 32 2 32 33
M  V30 33 1 22 34
M  V30 34 1 34 35
M  V30 35 2 9 36
M  V30 36 1 36 5
M  V30 37 1 21 10
M  V30 38 1 33 26
M  V30 39 1 18 12
M  V30 40 1 35 20
M  V30 41 1 1 37
M  V30 42 1 1 38
M  V30 43 1 1 39
M  V30 44 1 2 40
M  V30 45 1 2 41
M  V30 46 1 3 42
M  V30 47 1 3 43
M  V30 48 1 4 44
M  V30 49 1 7 45
M  V30 50 1 8 46
M  V30 51 1 13 47
M  V30 52 1 14 48
M  V30 53 1 17 49
M  V30 54 1 18 50
M  V30 55 1 22 51 CFG=1
M  V30 56 1 23 52
M  V30 57 1 23 53
M  V30 58 1 25 54
M  V30 59 1 25 55
M  V30 60 1 27 56
M  V30 61 1 28 57
M  V30 62 1 31 58
M  V30 63 1 31 59
M  V30 64 1 31 60
M  V30 65 1 32 61
M  V30 66 1 33 62
M  V30 67 1 34 63
M  V30 68 1 34 64
M  V30 69 1 35 65
M  V30 70 1 35 66
M  V30 END BOND
M  V30 END CTAB
M  END
>  <Dataset>  (586) 
ChEMBL_Kinases

>  <Ligand_Instance>  (586) 
nan

>  <PDB_ID>  (586) 
nan

>  <Standardized_SMILES>  (586) 
CCCNc1nccc(-c2c(-c3ccc(F)cc3)nc3n2[C@H](COCc2ccc(OC)cc2)CC3)n1

>  <Name>  (586) 
nan

>  <Pocket>  (586) 
nan

>  <ATP_Site>  (586) 
nan

>  <Peripheral>  (586) 
nan

>  <Num_H_Atoms_ProtBoundConf>  (586) 
nan

>  <Num_Resolved_Atoms>  (586) 
nan

>  <Num_Not_Resolved_Atoms>  (586) 
nan

$$$$
CHEMBL3577859
     RDKit          3D

  0  0  0  0  0  0  0  0  0  0999 V3000
M  V30 BEGIN CTAB
M  V30 COUNTS 44 46 0 0 0
M  V30 BEGIN ATOM
M  V30 1 C -1.831880 -3.145391 0.390065 0
M  V30 2 C -0.460640 -3.611568 -0.000466 0
M  V30 3 C 0.529420 -3.374294 1.116224 0
M  V30 4 N -0.001622 -3.048481 -1.254380 0
M  V30 5 C 0.144347 -3.805000 -2.364552 0
M  V30 6 O -0.124609 -5.037427 -2.316051 0
M  V30 7 C 0.585928 -3.227793 -3.543898 0
M  V30 8 C 0.889497 -1.886169 -3.636226 0
M  V30 9 C 0.737489 -1.105869 -2.485847 0
M  V30 10 C 1.021599 0.260898 -2.487829 0
M  V30 11 N 0.852125 0.966211 -1.330549 0
M  V30 12 C 0.419155 0.333534 -0.224920 0
M  V30 13 N 0.261502 1.119794 0.950659 0
M  V30 14 C 0.566344 2.537549 0.912437 0
M  V30 15 C 1.280896 3.024426 2.119226 0
M  V30 16 C 1.280167 2.163125 3.319737 0
M  V30 17 C 0.357909 2.679449 4.424952 0
M  V30 18 O 0.368296 1.859898 5.545342 0
M  V30 19 C 1.030458 0.710715 3.119071 0
M  V30 20 C -0.198370 0.564016 2.212325 0
M  V30 21 N 0.145901 -0.977757 -0.220540 0
M  V30 22 C 0.292469 -1.744806 -1.340833 0
M  V30 23 H -2.158882 -2.237658 -0.163713 0
M  V30 24 H -1.834584 -2.994284 1.494570 0
M  V30 25 H -2.595996 -3.933454 0.199471 0
M  V30 26 H -0.512387 -4.726211 -0.138522 0
M  V30 27 H 0.853284 -4.332836 1.612554 0
M  V30 28 H 1.478161 -2.922798 0.737617 0
M  V30 29 H 0.102657 -2.762863 1.935516 0
M  V30 30 H 0.693841 -3.857362 -4.418143 0
M  V30 31 H 1.229772 -1.412398 -4.522949 0
M  V30 32 H 1.360314 0.655428 -3.429001 0
M  V30 33 H -0.402866 3.081690 0.736734 0
M  V30 34 H 1.158266 2.756094 -0.013847 0
M  V30 35 H 0.782970 3.991789 2.425072 0
M  V30 36 H 2.316479 3.358877 1.824211 0
M  V30 37 H 2.310146 2.236753 3.779797 0
M  V30 38 H -0.660493 2.752055 4.005436 0
M  V30 39 H 0.639715 3.702123 4.764703 0
M  V30 40 H 1.269915 1.461878 5.710007 0
M  V30 41 H 0.884284 0.242772 4.102415 0
M  V30 42 H 1.903042 0.257490 2.597332 0
M  V30 43 H -1.006901 1.220469 2.594132 0
M  V30 44 H -0.559236 -0.463436 2.140248 0
M  V30 END ATOM
M  V30 BEGIN BOND
M  V30 1 1 1 2
M  V30 2 1 2 3
M  V30 3 1 2 4
M  V30 4 1 4 5
M  V30 5 2 5 6
M  V30 6 1 5 7
M  V30 7 2 7 8
M  V30 8 1 8 9
M  V30 9 2 9 10
M  V30 10 1 10 11
M  V30 11 2 11 12
M  V30 12 1 12 13
M  V30 13 1 13 14
M  V30 14 1 14 15
M  V30 15 1 15 16
M  V30 16 1 16 17
M  V30 17 1 17 18
M  V30 18 1 16 19
M  V30 19 1 19 20
M  V30 20 1 12 21
M  V30 21 2 21 22
M  V30 22 1 22 4
M  V30 23 1 22 9
M  V30 24 1 20 13
M  V30 25 1 1 23
M  V30 26 1 1 24
M  V30 27 1 1 25
M  V30 28 1 2 26
M  V30 29 1 3 27
M  V30 30 1 3 28
M  V30 31 1 3 29
M  V30 32 1 7 30
M  V30 33 1 8 31
M  V30 34 1 10 32
M  V30 35 1 14 33
M  V30 36 1 14 34
M  V30 37 1 15 35
M  V30 38 1 15 36
M  V30 39 1 16 37
M  V30 40 1 17 38
M  V30 41 1 17 39
M  V30 42 1 18 40
M  V30 43 1 19 41
M  V30 44 1 19 42
M  V30 45 1 20 43
M  V30 46 1 20 44
M  V30 END BOND
M  V30 END CTAB
M  END
>  <Dataset>  (587) 
ChEMBL_Kinases

>  <Ligand_Instance>  (587) 
nan

>  <PDB_ID>  (587) 
nan

>  <Standardized_SMILES>  (587) 
CC(C)n1c(=O)ccc2cnc(N3CCC(CO)CC3)nc21

>  <Name>  (587) 
nan

>  <Pocket>  (587) 
nan

>  <ATP_Site>  (587) 
nan

>  <Peripheral>  (587) 
nan

>  <Num_H_Atoms_ProtBoundConf>  (587) 
nan

>  <Num_Resolved_Atoms>  (587) 
nan

>  <Num_Not_Resolved_Atoms>  (587) 
nan

$$$$
CHEMBL3809986
     RDKit          3D

  0  0  0  0  0  0  0  0  0  0999 V3000
M  V30 BEGIN CTAB
M  V30 COUNTS 48 52 0 0 0
M  V30 BEGIN ATOM
M  V30 1 C 5.116051 -0.552936 0.874467 0
M  V30 2 C 3.848677 -0.661147 0.128007 0
M  V30 3 N 3.787485 -0.790845 -1.225540 0
M  V30 4 C 2.566743 -0.878721 -1.825896 0
M  V30 5 C 2.559099 -1.011888 -3.211492 0
M  V30 6 C 1.306704 -1.104272 -3.819098 0
M  V30 7 C 0.133800 -1.065992 -3.090909 0
M  V30 8 C 0.141561 -0.930868 -1.688170 0
M  V30 9 C 1.383054 -0.841099 -1.107145 0
M  V30 10 N 1.481114 -0.709315 0.257486 0
M  V30 11 C 2.666061 -0.624533 0.834894 0
M  V30 12 N 2.577218 -0.503377 2.213862 0
M  V30 13 C 1.647272 0.145728 3.075176 0 CFG=1
M  V30 14 C 1.655350 1.628396 2.698089 0
M  V30 15 C 0.274468 -0.331328 3.085204 0
M  V30 16 C -1.046466 -0.349054 3.105991 0
M  V30 17 C -2.055623 -1.380567 3.094882 0
M  V30 18 C -3.084196 -1.472478 2.062313 0 CFG=1
M  V30 19 C -4.202774 -0.480708 2.330925 0
M  V30 20 N -5.103218 -0.299058 1.210965 0
M  V30 21 C -4.457434 0.058150 -0.015871 0
M  V30 22 O -5.007178 0.721673 -0.924176 0
M  V30 23 C -3.066403 -0.412160 -0.156886 0
M  V30 24 C -2.200864 -0.233595 -1.229726 0
M  V30 25 C -1.033415 -0.877178 -0.863160 0
M  V30 26 N -1.135785 -1.430242 0.352846 0
M  V30 27 C -2.376380 -1.150218 0.794277 0
M  V30 28 H 5.116825 0.363174 1.501054 0
M  V30 29 H 5.306765 -1.473415 1.489600 0
M  V30 30 H 5.978377 -0.462300 0.185707 0
M  V30 31 H 3.486108 -1.046655 -3.799754 0
M  V30 32 H 1.232087 -1.215275 -4.897842 0
M  V30 33 H -0.854100 -1.137105 -3.533503 0
M  V30 34 H 3.393005 -1.022545 2.649078 0
M  V30 35 H 1.996541 0.138235 4.156384 0
M  V30 36 H 1.443811 1.662298 1.605135 0
M  V30 37 H 2.702366 1.979241 2.859167 0
M  V30 38 H 0.924428 2.188269 3.310468 0
M  V30 39 H 0.494772 -1.424064 3.076200 0
M  V30 40 H -1.672946 0.569739 3.142187 0
M  V30 41 H -2.566196 -1.439116 4.075819 0
M  V30 42 H -1.521368 -2.381717 3.000854 0
M  V30 43 H -3.500500 -2.491331 1.963684 0
M  V30 44 H -4.798926 -0.882846 3.174549 0
M  V30 45 H -3.776017 0.496845 2.689372 0
M  V30 46 H -6.146608 -0.392079 1.180122 0
M  V30 47 H -2.449644 0.311488 -2.147443 0
M  V30 48 H -0.419675 -1.970420 0.852575 0
M  V30 END ATOM
M  V30 BEGIN BOND
M  V30 1 1 1 2
M  V30 2 2 2 3
M  V30 3 1 3 4
M  V30 4 2 4 5
M  V30 5 1 5 6
M  V30 6 2 6 7
M  V30 7 1 7 8
M  V30 8 2 8 9
M  V30 9 1 9 10
M  V30 10 2 10 11
M  V30 11 1 11 12
M  V30 12 1 12 13
M  V30 13 1 13 14
M  V30 14 1 13 15
M  V30 15 2 15 16
M  V30 16 1 16 17
M  V30 17 1 17 18
M  V30 18 1 18 19
M  V30 19 1 19 20
M  V30 20 1 20 21
M  V30 21 2 21 22
M  V30 22 1 21 23
M  V30 23 1 23 24
M  V30 24 2 24 25
M  V30 25 1 25 26
M  V30 26 1 26 27
M  V30 27 1 11 2
M  V30 28 1 27 18
M  V30 29 1 9 4
M  V30 30 2 27 23
M  V30 31 1 25 8
M  V30 32 1 1 28
M  V30 33 1 1 29
M  V30 34 1 1 30
M  V30 35 1 5 31
M  V30 36 1 6 32
M  V30 37 1 7 33
M  V30 38 1 12 34
M  V30 39 1 13 35 CFG=1
M  V30 40 1 14 36
M  V30 41 1 14 37
M  V30 42 1 14 38
M  V30 43 1 15 39
M  V30 44 1 16 40
M  V30 45 1 17 41
M  V30 46 1 17 42
M  V30 47 1 18 43 CFG=3
M  V30 48 1 19 44
M  V30 49 1 19 45
M  V30 50 1 20 46
M  V30 51 1 24 47
M  V30 52 1 26 48
M  V30 END BOND
M  V30 END CTAB
M  END
>  <Dataset>  (588) 
ChEMBL_Kinases

>  <Ligand_Instance>  (588) 
nan

>  <PDB_ID>  (588) 
nan

>  <Standardized_SMILES>  (588) 
Cc1nc2cccc3c2nc1N[C@@H](C)/C=C/C[C@H]1CNC(=O)c2cc-3[nH]c21

>  <Name>  (588) 
nan

>  <Pocket>  (588) 
nan

>  <ATP_Site>  (588) 
nan

>  <Peripheral>  (588) 
nan

>  <Num_H_Atoms_ProtBoundConf>  (588) 
nan

>  <Num_Resolved_Atoms>  (588) 
nan

>  <Num_Not_Resolved_Atoms>  (588) 
nan

$$$$
CHEMBL3546188
     RDKit          3D

  0  0  0  0  0  0  0  0  0  0999 V3000
M  V30 BEGIN CTAB
M  V30 COUNTS 33 35 0 0 0
M  V30 BEGIN ATOM
M  V30 1 N -3.686151 -3.843912 2.045649 0
M  V30 2 C -3.099697 -4.442162 0.861312 0
M  V30 3 C -1.928958 -3.618779 0.457884 0
M  V30 4 C -0.667881 -3.877997 0.939206 0
M  V30 5 C 0.411859 -3.099761 0.552206 0
M  V30 6 C 0.241359 -2.034840 -0.335706 0
M  V30 7 O 1.450310 -1.399437 -0.580856 0
M  V30 8 C 1.630067 -0.061197 -0.262465 0
M  V30 9 C 2.881416 0.459106 -0.608844 0
M  V30 10 C 3.256948 1.786151 -0.371232 0
M  V30 11 C 2.362183 2.639971 0.234038 0
M  V30 12 C 1.131129 2.117689 0.571791 0
M  V30 13 C 0.751626 0.812304 0.342179 0
M  V30 14 B 0.377153 3.316425 1.220744 0
M  V30 15 O -0.990880 3.283456 1.754040 0
M  V30 16 O 1.086160 4.505509 0.694052 0
M  V30 17 C 2.408856 4.069964 0.633501 0
M  V30 18 C -1.022312 -1.771363 -0.821266 0
M  V30 19 F -1.066771 -0.733071 -1.667196 0
M  V30 20 C -2.077371 -2.562454 -0.418495 0
M  V30 21 H -2.939317 -3.444614 2.660208 0
M  V30 22 H -4.261978 -4.514511 2.564268 0
M  V30 23 H -2.685287 -5.446166 1.167927 0
M  V30 24 H -3.835917 -4.576107 0.063402 0
M  V30 25 H -0.577725 -4.713807 1.626589 0
M  V30 26 H 1.346845 -3.414366 1.006880 0
M  V30 27 H 3.635722 -0.152932 -1.087663 0
M  V30 28 H 4.240286 2.130081 -0.662368 0
M  V30 29 H -0.196124 0.397415 0.601768 0
M  V30 30 H -1.046900 2.651965 2.539656 0
M  V30 31 H 2.875454 4.186224 1.634303 0
M  V30 32 H 2.980209 4.682084 -0.092498 0
M  V30 33 H -3.043332 -2.312941 -0.827906 0
M  V30 END ATOM
M  V30 BEGIN BOND
M  V30 1 1 1 2
M  V30 2 1 2 3
M  V30 3 2 3 4
M  V30 4 1 4 5
M  V30 5 2 5 6
M  V30 6 1 6 7
M  V30 7 1 7 8
M  V30 8 2 8 9
M  V30 9 1 9 10
M  V30 10 2 10 11
M  V30 11 1 11 12
M  V30 12 2 12 13
M  V30 13 1 12 14
M  V30 14 1 14 15
M  V30 15 1 14 16
M  V30 16 1 16 17
M  V30 17 1 6 18
M  V30 18 1 18 19
M  V30 19 2 18 20
M  V30 20 1 20 3
M  V30 21 1 13 8
M  V30 22 1 17 11
M  V30 23 1 1 21
M  V30 24 1 1 22
M  V30 25 1 2 23
M  V30 26 1 2 24
M  V30 27 1 4 25
M  V30 28 1 5 26
M  V30 29 1 9 27
M  V30 30 1 10 28
M  V30 31 1 13 29
M  V30 32 1 15 30
M  V30 33 1 17 31
M  V30 34 1 17 32
M  V30 35 1 20 33
M  V30 END BOND
M  V30 END CTAB
M  END
>  <Dataset>  (589) 
ChEMBL_Kinases

>  <Ligand_Instance>  (589) 
nan

>  <PDB_ID>  (589) 
nan

>  <Standardized_SMILES>  (589) 
NCc1ccc(Oc2ccc3c(c2)B(O)OC3)c(F)c1

>  <Name>  (589) 
nan

>  <Pocket>  (589) 
nan

>  <ATP_Site>  (589) 
nan

>  <Peripheral>  (589) 
nan

>  <Num_H_Atoms_ProtBoundConf>  (589) 
nan

>  <Num_Resolved_Atoms>  (589) 
nan

>  <Num_Not_Resolved_Atoms>  (589) 
nan

$$$$
CHEMBL3810085
     RDKit          3D

  0  0  0  0  0  0  0  0  0  0999 V3000
M  V30 BEGIN CTAB
M  V30 COUNTS 47 51 0 0 0
M  V30 BEGIN ATOM
M  V30 1 C -1.685635 -4.874002 0.585031 0
M  V30 2 C -0.719138 -3.778360 0.263741 0
M  V30 3 N 0.097093 -3.930533 -0.794124 0
M  V30 4 C 0.973667 -2.957684 -1.100761 0
M  V30 5 C 1.767462 -3.176964 -2.181598 0
M  V30 6 C 2.679902 -2.205513 -2.530867 0
M  V30 7 C 2.766980 -1.049529 -1.788047 0
M  V30 8 C 1.981822 -0.785570 -0.684617 0
M  V30 9 C 2.114723 0.454649 0.066536 0
M  V30 10 C 3.018458 1.445216 -0.258751 0
M  V30 11 C 2.914461 2.486912 0.622296 0
M  V30 12 C 1.924505 2.140426 1.517719 0
M  V30 13 N 1.481514 0.931280 1.148995 0
M  V30 14 C 1.532095 3.048845 2.635086 0
M  V30 15 C 2.724706 3.871937 3.041381 0
M  V30 16 N 3.181924 4.629912 1.878178 0
M  V30 17 C 3.590619 3.782271 0.784369 0
M  V30 18 O 4.508751 4.107957 -0.043134 0
M  V30 19 C 1.088183 -1.787931 -0.379717 0
M  V30 20 N 0.271262 -1.643565 0.673249 0
M  V30 21 C -0.608602 -2.609873 0.988477 0
M  V30 22 N -1.496198 -2.501156 2.097440 0
M  V30 23 C -2.787496 -1.921511 1.955706 0
M  V30 24 C -3.187806 -1.455193 0.720911 0
M  V30 25 C -4.429952 -0.885130 0.532630 0
M  V30 26 C -5.258662 -0.804814 1.653457 0
M  V30 27 C -4.859855 -1.271829 2.893781 0
M  V30 28 C -3.601715 -1.844523 3.064908 0
M  V30 29 H -2.496390 -4.930726 -0.170966 0
M  V30 30 H -1.117503 -5.825399 0.498144 0
M  V30 31 H -2.053274 -4.808047 1.613770 0
M  V30 32 H 1.706682 -4.077361 -2.768340 0
M  V30 33 H 3.323559 -2.352813 -3.385013 0
M  V30 34 H 3.500218 -0.326116 -2.110497 0
M  V30 35 H 3.727558 1.431931 -1.091039 0
M  V30 36 H 0.728278 0.435769 1.661081 0
M  V30 37 H 0.781353 3.785226 2.228287 0
M  V30 38 H 1.056440 2.524671 3.459463 0
M  V30 39 H 2.369639 4.566404 3.845000 0
M  V30 40 H 3.488621 3.173322 3.403375 0
M  V30 41 H 3.269481 5.671675 1.687673 0
M  V30 42 H -1.156631 -2.863249 3.007862 0
M  V30 43 H -2.578554 -1.498436 -0.168741 0
M  V30 44 H -4.859188 -0.488768 -0.360724 0
M  V30 45 H -6.256295 -0.370910 1.601692 0
M  V30 46 H -5.500804 -1.210411 3.763582 0
M  V30 47 H -3.326173 -2.196759 4.044715 0
M  V30 END ATOM
M  V30 BEGIN BOND
M  V30 1 1 1 2
M  V30 2 2 2 3
M  V30 3 1 3 4
M  V30 4 2 4 5
M  V30 5 1 5 6
M  V30 6 2 6 7
M  V30 7 1 7 8
M  V30 8 1 8 9
M  V30 9 2 9 10
M  V30 10 1 10 11
M  V30 11 2 11 12
M  V30 12 1 12 13
M  V30 13 1 12 14
M  V30 14 1 14 15
M  V30 15 1 15 16
M  V30 16 1 16 17
M  V30 17 2 17 18
M  V30 18 2 8 19
M  V30 19 1 19 20
M  V30 20 2 20 21
M  V30 21 1 21 22
M  V30 22 1 22 23
M  V30 23 2 23 24
M  V30 24 1 24 25
M  V30 25 2 25 26
M  V30 26 1 26 27
M  V30 27 2 27 28
M  V30 28 1 21 2
M  V30 29 1 28 23
M  V30 30 1 19 4
M  V30 31 1 13 9
M  V30 32 1 17 11
M  V30 33 1 1 29
M  V30 34 1 1 30
M  V30 35 1 1 31
M  V30 36 1 5 32
M  V30 37 1 6 33
M  V30 38 1 7 34
M  V30 39 1 10 35
M  V30 40 1 13 36
M  V30 41 1 14 37
M  V30 42 1 14 38
M  V30 43 1 15 39
M  V30 44 1 15 40
M  V30 45 1 16 41
M  V30 46 1 22 42
M  V30 47 1 24 43
M  V30 48 1 25 44
M  V30 49 1 26 45
M  V30 50 1 27 46
M  V30 51 1 28 47
M  V30 END BOND
M  V30 END CTAB
M  END
>  <Dataset>  (590) 
ChEMBL_Kinases

>  <Ligand_Instance>  (590) 
nan

>  <PDB_ID>  (590) 
nan

>  <Standardized_SMILES>  (590) 
Cc1nc2cccc(-c3cc4c([nH]3)CCNC4=O)c2nc1Nc1ccccc1

>  <Name>  (590) 
nan

>  <Pocket>  (590) 
nan

>  <ATP_Site>  (590) 
nan

>  <Peripheral>  (590) 
nan

>  <Num_H_Atoms_ProtBoundConf>  (590) 
nan

>  <Num_Resolved_Atoms>  (590) 
nan

>  <Num_Not_Resolved_Atoms>  (590) 
nan

$$$$
CHEMBL3546192
     RDKit          3D

  0  0  0  0  0  0  0  0  0  0999 V3000
M  V30 BEGIN CTAB
M  V30 COUNTS 33 35 0 0 0
M  V30 BEGIN ATOM
M  V30 1 N -3.179541 -4.198423 2.676520 0
M  V30 2 C -2.092787 -4.730407 1.845310 0
M  V30 3 C -1.636226 -3.631711 0.937039 0
M  V30 4 C -0.634169 -2.781654 1.334535 0
M  V30 5 C -0.139464 -1.730704 0.563958 0
M  V30 6 C -0.729806 -1.576790 -0.672903 0
M  V30 7 O -0.257699 -0.533655 -1.469858 0
M  V30 8 C 0.764357 0.270808 -0.968397 0
M  V30 9 C 2.130387 0.107852 -1.088922 0
M  V30 10 C 2.970106 1.037248 -0.505489 0
M  V30 11 C 2.523276 2.129635 0.197535 0
M  V30 12 C 1.141068 2.278163 0.309041 0
M  V30 13 C 0.263095 1.368267 -0.261478 0
M  V30 14 B 0.997839 3.600379 1.155133 0
M  V30 15 O -0.305075 4.230386 1.465193 0
M  V30 16 O 2.264311 4.293916 0.940449 0
M  V30 17 C 3.186188 3.250342 0.905290 0
M  V30 18 C -1.739203 -2.399468 -1.124769 0
M  V30 19 Cl -2.460628 -2.164757 -2.707642 0
M  V30 20 C -2.194565 -3.425909 -0.325008 0
M  V30 21 H -2.907015 -3.238996 2.981787 0
M  V30 22 H -4.059314 -4.167538 2.092998 0
M  V30 23 H -1.234741 -4.972326 2.496746 0
M  V30 24 H -2.435280 -5.607841 1.258103 0
M  V30 25 H -0.209400 -2.957578 2.324305 0
M  V30 26 H 0.657845 -1.101889 0.953056 0
M  V30 27 H 2.388831 -0.758471 -1.645310 0
M  V30 28 H 4.031868 0.850788 -0.637362 0
M  V30 29 H -0.806350 1.578089 -0.114602 0
M  V30 30 H -0.911483 3.563554 1.869988 0
M  V30 31 H 3.435736 2.967156 1.951727 0
M  V30 32 H 4.102059 3.550905 0.356698 0
M  V30 33 H -2.983240 -4.081444 -0.658564 0
M  V30 END ATOM
M  V30 BEGIN BOND
M  V30 1 1 1 2
M  V30 2 1 2 3
M  V30 3 2 3 4
M  V30 4 1 4 5
M  V30 5 2 5 6
M  V30 6 1 6 7
M  V30 7 1 7 8
M  V30 8 2 8 9
M  V30 9 1 9 10
M  V30 10 2 10 11
M  V30 11 1 11 12
M  V30 12 2 12 13
M  V30 13 1 12 14
M  V30 14 1 14 15
M  V30 15 1 14 16
M  V30 16 1 16 17
M  V30 17 1 6 18
M  V30 18 1 18 19
M  V30 19 2 18 20
M  V30 20 1 20 3
M  V30 21 1 13 8
M  V30 22 1 17 11
M  V30 23 1 1 21
M  V30 24 1 1 22
M  V30 25 1 2 23
M  V30 26 1 2 24
M  V30 27 1 4 25
M  V30 28 1 5 26
M  V30 29 1 9 27
M  V30 30 1 10 28
M  V30 31 1 13 29
M  V30 32 1 15 30
M  V30 33 1 17 31
M  V30 34 1 17 32
M  V30 35 1 20 33
M  V30 END BOND
M  V30 END CTAB
M  END
>  <Dataset>  (591) 
ChEMBL_Kinases

>  <Ligand_Instance>  (591) 
nan

>  <PDB_ID>  (591) 
nan

>  <Standardized_SMILES>  (591) 
NCc1ccc(Oc2ccc3c(c2)B(O)OC3)c(Cl)c1

>  <Name>  (591) 
nan

>  <Pocket>  (591) 
nan

>  <ATP_Site>  (591) 
nan

>  <Peripheral>  (591) 
nan

>  <Num_H_Atoms_ProtBoundConf>  (591) 
nan

>  <Num_Resolved_Atoms>  (591) 
nan

>  <Num_Not_Resolved_Atoms>  (591) 
nan

$$$$
CHEMBL35482
     RDKit          3D

  0  0  0  0  0  0  0  0  0  0999 V3000
M  V30 BEGIN CTAB
M  V30 COUNTS 33 35 0 0 0
M  V30 BEGIN ATOM
M  V30 1 C -2.279516 -4.093996 3.811790 0
M  V30 2 O -1.909772 -2.875636 3.189500 0
M  V30 3 C -1.029171 -3.011882 2.098765 0
M  V30 4 C -0.539483 -4.238893 1.640517 0
M  V30 5 C 0.320767 -4.249815 0.559245 0
M  V30 6 C 0.709862 -3.088496 -0.080051 0
M  V30 7 C 0.236154 -1.871910 0.359427 0
M  V30 8 C 0.589670 -0.592023 -0.250345 0
M  V30 9 C 1.438188 -0.483192 -1.332276 0
M  V30 10 C 1.788319 0.714353 -1.927178 0
M  V30 11 O 2.567302 0.760909 -2.913569 0
M  V30 12 C 1.266920 1.888353 -1.422173 0
M  V30 13 C 1.551665 3.135094 -1.941125 0
M  V30 14 C 0.974478 4.244974 -1.357656 0
M  V30 15 C 0.124110 4.069186 -0.264780 0
M  V30 16 C -0.165873 2.810859 0.262259 0
M  V30 17 C 0.425832 1.711299 -0.340809 0
M  V30 18 O 0.115819 0.554928 0.198301 0
M  V30 19 C -0.623383 -1.847232 1.438032 0
M  V30 20 N -1.128293 -0.593660 1.912026 0
M  V30 21 H -1.342297 -4.608383 4.147391 0
M  V30 22 H -2.828899 -4.785342 3.155164 0
M  V30 23 H -2.842357 -3.914258 4.754033 0
M  V30 24 H -0.865260 -5.126961 2.164921 0
M  V30 25 H 0.701375 -5.214722 0.204527 0
M  V30 26 H 1.372660 -3.125616 -0.909445 0
M  V30 27 H 1.871066 -1.346611 -1.765864 0
M  V30 28 H 2.218699 3.207857 -2.789996 0
M  V30 29 H 1.174235 5.237836 -1.736934 0
M  V30 30 H -0.336635 4.944890 0.202293 0
M  V30 31 H -0.825217 2.754121 1.099395 0
M  V30 32 H -0.797571 0.110152 2.588529 0
M  V30 33 H -1.992415 -0.058253 1.681192 0
M  V30 END ATOM
M  V30 BEGIN BOND
M  V30 1 1 1 2
M  V30 2 1 2 3
M  V30 3 2 3 4
M  V30 4 1 4 5
M  V30 5 2 5 6
M  V30 6 1 6 7
M  V30 7 1 7 8
M  V30 8 2 8 9
M  V30 9 1 9 10
M  V30 10 2 10 11
M  V30 11 1 10 12
M  V30 12 2 12 13
M  V30 13 1 13 14
M  V30 14 2 14 15
M  V30 15 1 15 16
M  V30 16 2 16 17
M  V30 17 1 17 18
M  V30 18 2 7 19
M  V30 19 1 19 20
M  V30 20 1 19 3
M  V30 21 1 18 8
M  V30 22 1 17 12
M  V30 23 1 1 21
M  V30 24 1 1 22
M  V30 25 1 1 23
M  V30 26 1 4 24
M  V30 27 1 5 25
M  V30 28 1 6 26
M  V30 29 1 9 27
M  V30 30 1 13 28
M  V30 31 1 14 29
M  V30 32 1 15 30
M  V30 33 1 16 31
M  V30 34 1 20 32
M  V30 35 1 20 33
M  V30 END BOND
M  V30 END CTAB
M  END
>  <Dataset>  (592) 
ChEMBL_Kinases

>  <Ligand_Instance>  (592) 
nan

>  <PDB_ID>  (592) 
nan

>  <Standardized_SMILES>  (592) 
COc1cccc(-c2cc(=O)c3ccccc3o2)c1N

>  <Name>  (592) 
nan

>  <Pocket>  (592) 
nan

>  <ATP_Site>  (592) 
nan

>  <Peripheral>  (592) 
nan

>  <Num_H_Atoms_ProtBoundConf>  (592) 
nan

>  <Num_Resolved_Atoms>  (592) 
nan

>  <Num_Not_Resolved_Atoms>  (592) 
nan

$$$$
CHEMBL355496
     RDKit          3D

  0  0  0  0  0  0  0  0  0  0999 V3000
M  V30 BEGIN CTAB
M  V30 COUNTS 32 35 0 0 0
M  V30 BEGIN ATOM
M  V30 1 O -1.525440 0.749852 2.873821 0
M  V30 2 N -1.814127 0.220190 1.785361 0
M  V30 3 C -1.208257 -0.980600 1.365792 0
M  V30 4 C 0.001016 -1.072282 0.746698 0
M  V30 5 C 1.066075 -0.217473 0.303206 0
M  V30 6 C 2.343134 -0.656679 0.000091 0
M  V30 7 O 2.915333 -1.935131 0.062150 0
M  V30 8 N 3.126598 0.349806 -0.418837 0
M  V30 9 C 2.416549 1.490518 -0.415402 0
M  V30 10 C 2.745547 2.782175 -0.765325 0
M  V30 11 C 1.803285 3.773368 -0.682910 0
M  V30 12 Br 2.269054 5.550643 -1.167490 0
M  V30 13 C 0.538923 3.435949 -0.245890 0
M  V30 14 C 0.268558 2.132688 0.089609 0
M  V30 15 C 1.181992 1.114449 0.022952 0
M  V30 16 N 0.124027 -2.414065 0.607151 0
M  V30 17 C -0.919197 -3.104697 1.095304 0
M  V30 18 C -1.276961 -4.437561 1.197739 0
M  V30 19 C -2.471475 -4.805653 1.780199 0
M  V30 20 C -3.369624 -3.891817 2.288269 0
M  V30 21 C -3.009209 -2.566540 2.183999 0
M  V30 22 C -1.817314 -2.191630 1.603235 0
M  V30 23 H 3.741377 -2.129383 0.590057 0
M  V30 24 H 4.131560 0.327480 -0.714543 0
M  V30 25 H 3.736669 3.043841 -1.107774 0
M  V30 26 H -0.181386 4.233178 -0.191457 0
M  V30 27 H -0.734000 1.970159 0.392688 0
M  V30 28 H 0.881473 -2.999152 0.186112 0
M  V30 29 H -0.613416 -5.184410 0.817677 0
M  V30 30 H -2.706972 -5.863324 1.837015 0
M  V30 31 H -4.287510 -4.251586 2.731339 0
M  V30 32 H -3.658397 -1.816609 2.556538 0
M  V30 END ATOM
M  V30 BEGIN BOND
M  V30 1 2 1 2
M  V30 2 1 2 3
M  V30 3 2 3 4
M  V30 4 1 4 5
M  V30 5 2 5 6
M  V30 6 1 6 7
M  V30 7 1 6 8
M  V30 8 1 8 9
M  V30 9 2 9 10
M  V30 10 1 10 11
M  V30 11 1 11 12
M  V30 12 2 11 13
M  V30 13 1 13 14
M  V30 14 2 14 15
M  V30 15 1 4 16
M  V30 16 1 16 17
M  V30 17 2 17 18
M  V30 18 1 18 19
M  V30 19 2 19 20
M  V30 20 1 20 21
M  V30 21 2 21 22
M  V30 22 1 22 3
M  V30 23 1 15 5
M  V30 24 1 22 17
M  V30 25 1 15 9
M  V30 26 1 7 23
M  V30 27 1 8 24
M  V30 28 1 10 25
M  V30 29 1 13 26
M  V30 30 1 14 27
M  V30 31 1 16 28
M  V30 32 1 18 29
M  V30 33 1 19 30
M  V30 34 1 20 31
M  V30 35 1 21 32
M  V30 END BOND
M  V30 END CTAB
M  END
>  <Dataset>  (593) 
ChEMBL_Kinases

>  <Ligand_Instance>  (593) 
nan

>  <PDB_ID>  (593) 
nan

>  <Standardized_SMILES>  (593) 
O=Nc1c(-c2c(O)[nH]c3cc(Br)ccc23)[nH]c2ccccc12

>  <Name>  (593) 
nan

>  <Pocket>  (593) 
nan

>  <ATP_Site>  (593) 
nan

>  <Peripheral>  (593) 
nan

>  <Num_H_Atoms_ProtBoundConf>  (593) 
nan

>  <Num_Resolved_Atoms>  (593) 
nan

>  <Num_Not_Resolved_Atoms>  (593) 
nan

$$$$
CHEMBL3810095
     RDKit          3D

  0  0  0  0  0  0  0  0  0  0999 V3000
M  V30 BEGIN CTAB
M  V30 COUNTS 50 54 0 0 0
M  V30 BEGIN ATOM
M  V30 1 C -4.949921 -0.445519 0.726409 0
M  V30 2 C -3.518105 -0.568726 1.082915 0
M  V30 3 N -3.039955 -0.559321 2.338930 0
M  V30 4 C -1.734000 -0.680015 2.616420 0
M  V30 5 C -1.131174 -0.696681 3.852638 0
M  V30 6 C 0.228028 -0.838653 4.035530 0
M  V30 7 C 1.117958 -0.978626 2.966875 0
M  V30 8 C 0.456234 -0.952456 1.782990 0
M  V30 9 C -0.926928 -0.812645 1.513842 0
M  V30 10 N -1.380918 -0.824487 0.255893 0
M  V30 11 C -2.685723 -0.703836 0.001742 0
M  V30 12 N -3.103127 -0.746965 -1.389797 0
M  V30 13 C -2.704685 0.043089 -2.592781 0 CFG=2
M  V30 14 C -3.232213 -0.626389 -3.783387 0
M  V30 15 C -1.264077 0.364589 -2.500234 0
M  V30 16 C -0.538445 1.066172 -3.576598 0
M  V30 17 C 0.934230 1.333142 -3.134702 0
M  V30 18 C 1.675552 0.085385 -2.819774 0 CFG=1
M  V30 19 C 3.038531 -0.048296 -3.418900 0
M  V30 20 N 3.459907 -1.450361 -3.454251 0
M  V30 21 C 3.321758 -2.115079 -2.175455 0
M  V30 22 O 3.978725 -3.149736 -1.895007 0
M  V30 23 C 2.374593 -1.526830 -1.209927 0
M  V30 24 C 2.149680 -1.984283 0.097921 0
M  V30 25 C 1.252649 -1.076451 0.569108 0
M  V30 26 N 0.945176 -0.141649 -0.326656 0
M  V30 27 C 1.614744 -0.397554 -1.441012 0
M  V30 28 H -5.028756 0.445678 0.069346 0
M  V30 29 H -5.517400 -0.339703 1.671705 0
M  V30 30 H -5.287232 -1.305590 0.114627 0
M  V30 31 H -1.789089 -0.590054 4.710494 0
M  V30 32 H 0.678075 -0.849151 5.021386 0
M  V30 33 H 2.183673 -1.102499 2.938507 0
M  V30 34 H -3.808986 -1.521253 -1.338660 0
M  V30 35 H -3.320027 0.991083 -2.443634 0
M  V30 36 H -2.517545 -1.361387 -4.256375 0
M  V30 37 H -3.654998 0.053657 -4.559367 0
M  V30 38 H -4.102374 -1.273903 -3.493803 0
M  V30 39 H -1.173683 1.058164 -1.591124 0
M  V30 40 H -0.771008 -0.588599 -2.192277 0
M  V30 41 H -0.436491 0.511319 -4.521522 0
M  V30 42 H -0.931620 2.068946 -3.802504 0
M  V30 43 H 0.845534 2.031834 -2.276223 0
M  V30 44 H 1.374815 1.896891 -3.978347 0
M  V30 45 H 1.074446 -0.725774 -3.403322 0
M  V30 46 H 3.107689 0.324215 -4.456439 0
M  V30 47 H 3.776817 0.503118 -2.812554 0
M  V30 48 H 3.840341 -2.036891 -4.251758 0
M  V30 49 H 2.477395 -2.777376 0.738329 0
M  V30 50 H 0.326620 0.673200 -0.157729 0
M  V30 END ATOM
M  V30 BEGIN BOND
M  V30 1 1 1 2
M  V30 2 2 2 3
M  V30 3 1 3 4
M  V30 4 2 4 5
M  V30 5 1 5 6
M  V30 6 2 6 7
M  V30 7 1 7 8
M  V30 8 2 8 9
M  V30 9 1 9 10
M  V30 10 2 10 11
M  V30 11 1 11 12
M  V30 12 1 12 13
M  V30 13 1 13 14
M  V30 14 1 13 15
M  V30 15 1 15 16
M  V30 16 1 16 17
M  V30 17 1 17 18
M  V30 18 1 18 19
M  V30 19 1 19 20
M  V30 20 1 20 21
M  V30 21 2 21 22
M  V30 22 1 21 23
M  V30 23 1 23 24
M  V30 24 2 24 25
M  V30 25 1 25 26
M  V30 26 1 26 27
M  V30 27 1 11 2
M  V30 28 1 27 18
M  V30 29 1 9 4
M  V30 30 2 27 23
M  V30 31 1 25 8
M  V30 32 1 1 28
M  V30 33 1 1 29
M  V30 34 1 1 30
M  V30 35 1 5 31
M  V30 36 1 6 32
M  V30 37 1 7 33
M  V30 38 1 12 34
M  V30 39 1 13 35 CFG=1
M  V30 40 1 14 36
M  V30 41 1 14 37
M  V30 42 1 14 38
M  V30 43 1 15 39
M  V30 44 1 15 40
M  V30 45 1 16 41
M  V30 46 1 16 42
M  V30 47 1 17 43
M  V30 48 1 17 44
M  V30 49 1 18 45 CFG=3
M  V30 50 1 19 46
M  V30 51 1 19 47
M  V30 52 1 20 48
M  V30 53 1 24 49
M  V30 54 1 26 50
M  V30 END BOND
M  V30 END CTAB
M  END
>  <Dataset>  (594) 
ChEMBL_Kinases

>  <Ligand_Instance>  (594) 
nan

>  <PDB_ID>  (594) 
nan

>  <Standardized_SMILES>  (594) 
Cc1nc2cccc3c2nc1N[C@H](C)CCC[C@H]1CNC(=O)c2cc-3[nH]c21

>  <Name>  (594) 
nan

>  <Pocket>  (594) 
nan

>  <ATP_Site>  (594) 
nan

>  <Peripheral>  (594) 
nan

>  <Num_H_Atoms_ProtBoundConf>  (594) 
nan

>  <Num_Resolved_Atoms>  (594) 
nan

>  <Num_Not_Resolved_Atoms>  (594) 
nan

$$$$
CHEMBL3810121
     RDKit          3D

  0  0  0  0  0  0  0  0  0  0999 V3000
M  V30 BEGIN CTAB
M  V30 COUNTS 45 49 0 0 0
M  V30 BEGIN ATOM
M  V30 1 C 5.182402 -0.883050 0.360939 0
M  V30 2 C 3.971361 -1.538505 -0.189461 0
M  V30 3 N 3.650190 -2.549751 -1.053700 0
M  V30 4 C 2.342386 -2.801291 -1.228743 0
M  V30 5 C 2.027096 -3.829532 -2.090278 0
M  V30 6 C 0.668506 -4.114950 -2.277727 0
M  V30 7 C -0.365737 -3.415565 -1.641357 0
M  V30 8 C -0.064042 -2.388254 -0.780739 0
M  V30 9 C 1.284236 -2.155676 -0.637236 0
M  V30 10 N 1.667752 -1.181247 0.191649 0
M  V30 11 C 2.954199 -0.874145 0.416923 0
M  V30 12 N 2.678928 0.135585 1.327187 0
M  V30 13 C 1.946956 1.397466 1.258501 0
M  V30 14 C 1.579087 1.776930 2.650466 0
M  V30 15 C 0.302147 1.943858 3.005698 0
M  V30 16 C -0.889820 1.805389 2.168014 0
M  V30 17 C -1.857923 0.711925 2.596928 0 CFG=1
M  V30 18 C -3.213198 1.195204 2.950678 0
M  V30 19 N -4.227199 1.005005 1.932927 0
M  V30 20 C -4.182294 0.157293 0.789728 0
M  V30 21 O -5.126855 -0.068319 0.020105 0
M  V30 22 C -2.904252 -0.491367 0.520120 0
M  V30 23 C -2.360599 -1.356483 -0.408641 0
M  V30 24 C -1.041321 -1.579153 -0.074658 0
M  V30 25 N -0.782550 -0.869053 1.034758 0
M  V30 26 C -1.913239 -0.198288 1.405567 0
M  V30 27 H 6.062193 -1.406724 -0.084573 0
M  V30 28 H 5.227907 0.164151 0.006931 0
M  V30 29 H 5.238330 -0.968632 1.480772 0
M  V30 30 H 2.799870 -4.389058 -2.597470 0
M  V30 31 H 0.433588 -4.940421 -2.969731 0
M  V30 32 H -1.405372 -3.658094 -1.805750 0
M  V30 33 H 3.226067 -0.357397 2.069426 0
M  V30 34 H 1.141154 1.372027 0.543027 0
M  V30 35 H 2.696218 2.148185 0.927346 0
M  V30 36 H 2.353905 1.920779 3.388176 0
M  V30 37 H 0.119343 2.218451 4.053320 0
M  V30 38 H -0.699489 1.831091 1.094093 0
M  V30 39 H -1.489021 2.760225 2.353676 0
M  V30 40 H -1.408831 0.181733 3.452004 0
M  V30 41 H -3.227941 2.258778 3.268430 0
M  V30 42 H -3.585108 0.596582 3.833532 0
M  V30 43 H -5.107844 1.562327 2.051923 0
M  V30 44 H -2.924892 -1.759447 -1.238028 0
M  V30 45 H 0.052536 -0.741586 1.645393 0
M  V30 END ATOM
M  V30 BEGIN BOND
M  V30 1 1 1 2
M  V30 2 2 2 3
M  V30 3 1 3 4
M  V30 4 2 4 5
M  V30 5 1 5 6
M  V30 6 2 6 7
M  V30 7 1 7 8
M  V30 8 2 8 9
M  V30 9 1 9 10
M  V30 10 2 10 11
M  V30 11 1 11 12
M  V30 12 1 12 13
M  V30 13 1 13 14
M  V30 14 2 14 15
M  V30 15 1 15 16
M  V30 16 1 16 17
M  V30 17 1 17 18
M  V30 18 1 18 19
M  V30 19 1 19 20
M  V30 20 2 20 21
M  V30 21 1 20 22
M  V30 22 1 22 23
M  V30 23 2 23 24
M  V30 24 1 24 25
M  V30 25 1 25 26
M  V30 26 1 11 2
M  V30 27 1 26 17
M  V30 28 1 9 4
M  V30 29 2 26 22
M  V30 30 1 24 8
M  V30 31 1 1 27
M  V30 32 1 1 28
M  V30 33 1 1 29
M  V30 34 1 5 30
M  V30 35 1 6 31
M  V30 36 1 7 32
M  V30 37 1 12 33
M  V30 38 1 13 34
M  V30 39 1 13 35
M  V30 40 1 14 36
M  V30 41 1 15 37
M  V30 42 1 16 38
M  V30 43 1 16 39
M  V30 44 1 17 40 CFG=1
M  V30 45 1 18 41
M  V30 46 1 18 42
M  V30 47 1 19 43
M  V30 48 1 23 44
M  V30 49 1 25 45
M  V30 END BOND
M  V30 END CTAB
M  END
>  <Dataset>  (595) 
ChEMBL_Kinases

>  <Ligand_Instance>  (595) 
nan

>  <PDB_ID>  (595) 
nan

>  <Standardized_SMILES>  (595) 
Cc1nc2cccc3c2nc1NC/C=C\C[C@H]1CNC(=O)c2cc-3[nH]c21

>  <Name>  (595) 
nan

>  <Pocket>  (595) 
nan

>  <ATP_Site>  (595) 
nan

>  <Peripheral>  (595) 
nan

>  <Num_H_Atoms_ProtBoundConf>  (595) 
nan

>  <Num_Resolved_Atoms>  (595) 
nan

>  <Num_Not_Resolved_Atoms>  (595) 
nan

$$$$
CHEMBL3810271
     RDKit          3D

  0  0  0  0  0  0  0  0  0  0999 V3000
M  V30 BEGIN CTAB
M  V30 COUNTS 60 64 0 0 0
M  V30 BEGIN ATOM
M  V30 1 C 4.295744 0.698902 3.800258 0
M  V30 2 C 4.107177 -0.591135 3.122935 0
M  V30 3 C 3.115675 -0.870205 2.253170 0
M  V30 4 C 2.088327 0.070561 1.874823 0
M  V30 5 O 1.250015 -0.336808 1.063828 0
M  V30 6 N 1.686747 1.382239 2.131217 0
M  V30 7 C 0.634260 2.198495 1.679310 0
M  V30 8 C 0.544458 3.491594 2.202146 0
M  V30 9 C -0.468839 4.319348 1.786310 0
M  V30 10 C -1.407775 3.948407 0.880520 0
M  V30 11 N -2.467881 4.577898 0.335468 0
M  V30 12 N -3.060451 3.746715 -0.511104 0
M  V30 13 C -2.411004 2.571268 -0.538803 0
M  V30 14 C -1.353697 2.682750 0.342197 0
M  V30 15 C -0.335940 1.858259 0.761468 0
M  V30 16 C 3.027752 -2.203072 1.535088 0
M  V30 17 C 1.681437 -2.761181 1.490611 0
M  V30 18 C 1.117269 -3.218194 2.690934 0
M  V30 19 C -0.143310 -3.753577 2.639621 0
M  V30 20 C -0.897263 -3.878883 1.503529 0
M  V30 21 F -2.117868 -4.394045 1.460688 0
M  V30 22 C -0.371182 -3.441643 0.312192 0
M  V30 23 C -0.921434 -3.429545 -1.030078 0
M  V30 24 O -0.287819 -3.021598 -2.050331 0
M  V30 25 N -2.169739 -3.826815 -1.477347 0
M  V30 26 C -3.116508 -4.008010 -2.528071 0
M  V30 27 C -3.463500 -2.719642 -3.209293 0
M  V30 28 C -2.813774 -2.102821 -4.251941 0
M  V30 29 Cl -1.481671 -2.918195 -5.015106 0
M  V30 30 C -3.159049 -0.891034 -4.795031 0
M  V30 31 C -4.259166 -0.249401 -4.231182 0
M  V30 32 C -5.006780 -0.764615 -3.170590 0
M  V30 33 C -4.536677 -2.004069 -2.724049 0
M  V30 34 Cl -5.505453 -2.634883 -1.384412 0
M  V30 35 C 0.899189 -2.897145 0.341828 0
M  V30 36 N 3.904909 -3.145270 2.138563 0
M  V30 37 C 4.981099 -2.951940 3.030281 0
M  V30 38 O 5.809981 -3.820193 3.382553 0
M  V30 39 N 5.039608 -1.622889 3.512858 0
M  V30 40 H 3.505962 0.931919 4.530947 0
M  V30 41 H 4.525615 1.525209 3.094433 0
M  V30 42 H 5.236048 0.656491 4.440371 0
M  V30 43 H 2.340559 1.799707 2.812808 0
M  V30 44 H 1.252220 3.863352 2.931834 0
M  V30 45 H -0.512275 5.320016 2.209115 0
M  V30 46 H -2.710875 5.569668 0.597778 0
M  V30 47 H -2.637145 1.680702 -1.122259 0
M  V30 48 H -0.362309 0.887921 0.294320 0
M  V30 49 H 3.446159 -2.001678 0.499409 0
M  V30 50 H 1.593279 -3.184831 3.658364 0
M  V30 51 H -0.621979 -4.119776 3.550781 0
M  V30 52 H -2.681689 -4.169706 -0.595553 0
M  V30 53 H -4.076124 -4.401791 -2.153088 0
M  V30 54 H -2.736318 -4.738049 -3.304926 0
M  V30 55 H -2.614670 -0.450509 -5.616752 0
M  V30 56 H -4.552048 0.716067 -4.646906 0
M  V30 57 H -5.842812 -0.210534 -2.790749 0
M  V30 58 H 1.452138 -2.516684 -0.525885 0
M  V30 59 H 3.691545 -4.156242 1.853783 0
M  V30 60 H 5.834528 -1.435843 4.191990 0
M  V30 END ATOM
M  V30 BEGIN BOND
M  V30 1 1 1 2
M  V30 2 2 2 3
M  V30 3 1 3 4
M  V30 4 2 4 5
M  V30 5 1 4 6
M  V30 6 1 6 7
M  V30 7 2 7 8
M  V30 8 1 8 9
M  V30 9 2 9 10
M  V30 10 1 10 11
M  V30 11 1 11 12
M  V30 12 2 12 13
M  V30 13 1 13 14
M  V30 14 2 14 15
M  V30 15 1 3 16
M  V30 16 1 16 17
M  V30 17 2 17 18
M  V30 18 1 18 19
M  V30 19 2 19 20
M  V30 20 1 20 21
M  V30 21 1 20 22
M  V30 22 1 22 23
M  V30 23 2 23 24
M  V30 24 1 23 25
M  V30 25 1 25 26
M  V30 26 1 26 27
M  V30 27 2 27 28
M  V30 28 1 28 29
M  V30 29 1 28 30
M  V30 30 2 30 31
M  V30 31 1 31 32
M  V30 32 2 32 33
M  V30 33 1 33 34
M  V30 34 2 22 35
M  V30 35 1 16 36
M  V30 36 1 36 37
M  V30 37 2 37 38
M  V30 38 1 37 39
M  V30 39 1 39 2
M  V30 40 1 15 7
M  V30 41 1 35 17
M  V30 42 1 14 10
M  V30 43 1 33 27
M  V30 44 1 1 40
M  V30 45 1 1 41
M  V30 46 1 1 42
M  V30 47 1 6 43
M  V30 48 1 8 44
M  V30 49 1 9 45
M  V30 50 1 11 46
M  V30 51 1 13 47
M  V30 52 1 15 48
M  V30 53 1 16 49
M  V30 54 1 18 50
M  V30 55 1 19 51
M  V30 56 1 25 52
M  V30 57 1 26 53
M  V30 58 1 26 54
M  V30 59 1 30 55
M  V30 60 1 31 56
M  V30 61 1 32 57
M  V30 62 1 35 58
M  V30 63 1 36 59
M  V30 64 1 39 60
M  V30 END BOND
M  V30 END CTAB
M  END
>  <Dataset>  (596) 
ChEMBL_Kinases

>  <Ligand_Instance>  (596) 
nan

>  <PDB_ID>  (596) 
nan

>  <Standardized_SMILES>  (596) 
CC1=C(C(=O)Nc2ccc3[nH]ncc3c2)C(c2ccc(F)c(C(=O)NCc3c(Cl)cccc3Cl)c2)NC(=O)N1

>  <Name>  (596) 
nan

>  <Pocket>  (596) 
nan

>  <ATP_Site>  (596) 
nan

>  <Peripheral>  (596) 
nan

>  <Num_H_Atoms_ProtBoundConf>  (596) 
nan

>  <Num_Resolved_Atoms>  (596) 
nan

>  <Num_Not_Resolved_Atoms>  (596) 
nan

$$$$
CHEMBL3819447
     RDKit          3D

  0  0  0  0  0  0  0  0  0  0999 V3000
M  V30 BEGIN CTAB
M  V30 COUNTS 53 56 0 0 0
M  V30 BEGIN ATOM
M  V30 1 C 3.175933 -7.009185 1.691309 0
M  V30 2 N 2.801270 -6.275546 2.903089 0
M  V30 3 C 2.515413 -4.925088 2.523162 0
M  V30 4 N 3.508611 -4.016285 2.522082 0
M  V30 5 C 3.286940 -2.721495 2.169077 0
M  V30 6 C 2.013890 -2.308319 1.798246 0
M  V30 7 C 1.696247 -1.015897 1.425193 0
M  V30 8 C 0.390408 -0.726797 1.076588 0
M  V30 9 C 0.096620 0.649048 0.688979 0
M  V30 10 C 0.191276 1.068997 -0.624780 0
M  V30 11 C -0.070186 2.351004 -1.065598 0
M  V30 12 C -0.455705 3.271639 -0.099592 0
M  V30 13 N -0.753764 4.626533 -0.424579 0
M  V30 14 C -0.173794 5.643223 0.253660 0
M  V30 15 N -0.428022 6.948371 -0.021658 0
M  V30 16 C -1.295344 7.222061 -1.013411 0
M  V30 17 C -1.902153 6.202074 -1.722488 0
M  V30 18 C -2.865592 6.434412 -2.825027 0
M  V30 19 C -1.631119 4.866016 -1.428271 0
M  V30 20 O -2.164917 3.906559 -2.052817 0
M  V30 21 C -0.558548 2.879215 1.221403 0
M  V30 22 C -0.293236 1.588893 1.651110 0
M  V30 23 Cl -0.435088 1.133169 3.330556 0
M  V30 24 C -0.580329 -1.722435 1.102971 0
M  V30 25 O -1.756902 -1.414975 0.777792 0
M  V30 26 N -0.289341 -2.987728 1.463902 0
M  V30 27 C -1.308688 -4.020464 1.488613 0
M  V30 28 C -1.427695 -4.739227 0.179230 0
M  V30 29 O -2.397010 -5.728367 0.173922 0
M  V30 30 C -2.192410 -6.729702 1.098404 0
M  V30 31 C 0.994217 -3.268277 1.805705 0
M  V30 32 N 1.254644 -4.553730 2.164830 0
M  V30 33 H 2.401811 -6.927001 0.899827 0
M  V30 34 H 4.118563 -6.576550 1.250830 0
M  V30 35 H 3.338057 -8.092659 1.889552 0
M  V30 36 H 2.759003 -6.685955 3.853380 0
M  V30 37 H 4.035480 -1.940689 2.145649 0
M  V30 38 H 2.485646 -0.274793 1.419912 0
M  V30 39 H 0.490650 0.378722 -1.415949 0
M  V30 40 H 0.013809 2.643954 -2.098550 0
M  V30 41 H 0.523891 5.347257 1.050477 0
M  V30 42 H -1.537911 8.249830 -1.278832 0
M  V30 43 H -3.284862 7.457514 -2.791012 0
M  V30 44 H -3.696774 5.710686 -2.700619 0
M  V30 45 H -2.344101 6.288047 -3.797691 0
M  V30 46 H -0.862020 3.591586 2.002388 0
M  V30 47 H -1.048623 -4.713510 2.308927 0
M  V30 48 H -2.288570 -3.561599 1.733457 0
M  V30 49 H -0.450960 -5.287930 0.029071 0
M  V30 50 H -1.586925 -4.085466 -0.676981 0
M  V30 51 H -2.168522 -6.392539 2.152152 0
M  V30 52 H -1.251671 -7.286886 0.854821 0
M  V30 53 H -3.005529 -7.483696 1.005189 0
M  V30 END ATOM
M  V30 BEGIN BOND
M  V30 1 1 1 2
M  V30 2 1 2 3
M  V30 3 2 3 4
M  V30 4 1 4 5
M  V30 5 2 5 6
M  V30 6 1 6 7
M  V30 7 2 7 8
M  V30 8 1 8 9
M  V30 9 2 9 10
M  V30 10 1 10 11
M  V30 11 2 11 12
M  V30 12 1 12 13
M  V30 13 1 13 14
M  V30 14 2 14 15
M  V30 15 1 15 16
M  V30 16 2 16 17
M  V30 17 1 17 18
M  V30 18 1 17 19
M  V30 19 2 19 20
M  V30 20 1 12 21
M  V30 21 2 21 22
M  V30 22 1 22 23
M  V30 23 1 8 24
M  V30 24 2 24 25
M  V30 25 1 24 26
M  V30 26 1 26 27
M  V30 27 1 27 28
M  V30 28 1 28 29
M  V30 29 1 29 30
M  V30 30 1 26 31
M  V30 31 2 31 32
M  V30 32 1 32 3
M  V30 33 1 31 6
M  V30 34 1 22 9
M  V30 35 1 19 13
M  V30 36 1 1 33
M  V30 37 1 1 34
M  V30 38 1 1 35
M  V30 39 1 2 36
M  V30 40 1 5 37
M  V30 41 1 7 38
M  V30 42 1 10 39
M  V30 43 1 11 40
M  V30 44 1 14 41
M  V30 45 1 16 42
M  V30 46 1 18 43
M  V30 47 1 18 44
M  V30 48 1 18 45
M  V30 49 1 21 46
M  V30 50 1 27 47
M  V30 51 1 27 48
M  V30 52 1 28 49
M  V30 53 1 28 50
M  V30 54 1 30 51
M  V30 55 1 30 52
M  V30 56 1 30 53
M  V30 END BOND
M  V30 END CTAB
M  END
>  <Dataset>  (597) 
ChEMBL_Kinases

>  <Ligand_Instance>  (597) 
nan

>  <PDB_ID>  (597) 
nan

>  <Standardized_SMILES>  (597) 
CNc1ncc2cc(-c3ccc(-n4cncc(C)c4=O)cc3Cl)c(=O)n(CCOC)c2n1

>  <Name>  (597) 
nan

>  <Pocket>  (597) 
nan

>  <ATP_Site>  (597) 
nan

>  <Peripheral>  (597) 
nan

>  <Num_H_Atoms_ProtBoundConf>  (597) 
nan

>  <Num_Resolved_Atoms>  (597) 
nan

>  <Num_Not_Resolved_Atoms>  (597) 
nan

$$$$
CHEMBL3810349
     RDKit          3D

  0  0  0  0  0  0  0  0  0  0999 V3000
M  V30 BEGIN CTAB
M  V30 COUNTS 50 53 0 0 0
M  V30 BEGIN ATOM
M  V30 1 C -0.476276 -1.238132 7.015703 0
M  V30 2 N -0.029439 -1.912210 5.816244 0
M  V30 3 C 0.488189 -1.208370 4.713630 0
M  V30 4 O 0.486615 0.045411 4.958540 0
M  V30 5 C 0.977498 -1.717785 3.445425 0
M  V30 6 C 1.440883 -0.808550 2.506835 0
M  V30 7 C 1.937163 -1.188374 1.246780 0
M  V30 8 C 2.406899 -0.028135 0.441632 0
M  V30 9 N 3.412026 0.716293 1.204372 0
M  V30 10 C 3.486947 2.060805 1.659563 0
M  V30 11 O 4.461060 2.432747 2.347872 0
M  V30 12 N 2.358200 2.813733 1.223896 0
M  V30 13 C 1.267966 2.270378 0.421952 0
M  V30 14 C 0.327450 3.355991 0.184014 0
M  V30 15 C 1.357092 0.955836 0.093338 0
M  V30 16 C 0.221248 0.626976 -0.721619 0
M  V30 17 O -0.806010 1.179482 -1.193904 0
M  V30 18 N -0.002599 -0.667003 -1.273794 0
M  V30 19 C -1.096106 -1.084002 -2.085449 0
M  V30 20 C -2.184983 -1.586022 -1.393966 0
M  V30 21 C -3.300246 -2.017896 -2.107956 0
M  V30 22 C -3.299056 -1.938391 -3.472552 0
M  V30 23 N -4.193046 -2.263075 -4.413776 0
M  V30 24 N -3.786391 -2.018861 -5.650096 0
M  V30 25 C -2.538839 -1.498117 -5.503486 0
M  V30 26 C -2.212903 -1.437356 -4.166884 0
M  V30 27 C -1.099111 -1.005610 -3.461729 0
M  V30 28 C 1.935204 -2.548283 0.995470 0
M  V30 29 C 1.499369 -3.481674 1.863560 0
M  V30 30 C 1.028283 -3.040793 3.074721 0
M  V30 31 F 0.596970 -3.987913 3.929828 0
M  V30 32 H -0.724784 -0.174106 6.793231 0
M  V30 33 H -1.404194 -1.690925 7.414269 0
M  V30 34 H 0.271713 -1.296304 7.831868 0
M  V30 35 H -0.080970 -2.940993 5.740658 0
M  V30 36 H 1.404551 0.233582 2.789382 0
M  V30 37 H 2.925672 -0.425438 -0.432676 0
M  V30 38 H 4.205065 0.064291 1.427377 0
M  V30 39 H 2.440378 3.816164 1.573019 0
M  V30 40 H 0.897096 4.201894 -0.316785 0
M  V30 41 H -0.545329 3.215364 -0.415113 0
M  V30 42 H 0.037485 3.834865 1.173371 0
M  V30 43 H 0.643767 -1.461141 -1.148261 0
M  V30 44 H -2.224523 -1.665268 -0.315535 0
M  V30 45 H -4.206505 -2.429356 -1.644690 0
M  V30 46 H -5.157975 -2.679333 -4.294190 0
M  V30 47 H -1.881984 -1.173714 -6.292268 0
M  V30 48 H -0.246553 -0.614579 -3.967027 0
M  V30 49 H 2.343366 -2.720066 -0.013959 0
M  V30 50 H 1.541192 -4.517470 1.568428 0
M  V30 END ATOM
M  V30 BEGIN BOND
M  V30 1 1 1 2
M  V30 2 1 2 3
M  V30 3 2 3 4
M  V30 4 1 3 5
M  V30 5 2 5 6
M  V30 6 1 6 7
M  V30 7 1 7 8
M  V30 8 1 8 9
M  V30 9 1 9 10
M  V30 10 2 10 11
M  V30 11 1 10 12
M  V30 12 1 12 13
M  V30 13 1 13 14
M  V30 14 2 13 15
M  V30 15 1 15 16
M  V30 16 2 16 17
M  V30 17 1 16 18
M  V30 18 1 18 19
M  V30 19 2 19 20
M  V30 20 1 20 21
M  V30 21 2 21 22
M  V30 22 1 22 23
M  V30 23 1 23 24
M  V30 24 2 24 25
M  V30 25 1 25 26
M  V30 26 2 26 27
M  V30 27 2 7 28
M  V30 28 1 28 29
M  V30 29 2 29 30
M  V30 30 1 30 31
M  V30 31 1 30 5
M  V30 32 1 15 8
M  V30 33 1 27 19
M  V30 34 1 26 22
M  V30 35 1 1 32
M  V30 36 1 1 33
M  V30 37 1 1 34
M  V30 38 1 2 35
M  V30 39 1 6 36
M  V30 40 1 8 37
M  V30 41 1 9 38
M  V30 42 1 12 39
M  V30 43 1 14 40
M  V30 44 1 14 41
M  V30 45 1 14 42
M  V30 46 1 18 43
M  V30 47 1 20 44
M  V30 48 1 21 45
M  V30 49 1 23 46
M  V30 50 1 25 47
M  V30 51 1 27 48
M  V30 52 1 28 49
M  V30 53 1 29 50
M  V30 END BOND
M  V30 END CTAB
M  END
>  <Dataset>  (598) 
ChEMBL_Kinases

>  <Ligand_Instance>  (598) 
nan

>  <PDB_ID>  (598) 
nan

>  <Standardized_SMILES>  (598) 
CNC(=O)c1cc(C2NC(=O)NC(C)=C2C(=O)Nc2ccc3[nH]ncc3c2)ccc1F

>  <Name>  (598) 
nan

>  <Pocket>  (598) 
nan

>  <ATP_Site>  (598) 
nan

>  <Peripheral>  (598) 
nan

>  <Num_H_Atoms_ProtBoundConf>  (598) 
nan

>  <Num_Resolved_Atoms>  (598) 
nan

>  <Num_Not_Resolved_Atoms>  (598) 
nan

$$$$
CHEMBL381041
     RDKit          3D

  0  0  0  0  0  0  0  0  0  0999 V3000
M  V30 BEGIN CTAB
M  V30 COUNTS 71 75 0 0 0
M  V30 BEGIN ATOM
M  V30 1 C 2.035210 -1.098840 6.189778 0
M  V30 2 C 2.795423 -1.911093 5.154677 0
M  V30 3 C 4.115215 -2.384710 5.669152 0
M  V30 4 N 1.939315 -3.044430 4.839229 0
M  V30 5 C 3.063970 -1.106020 3.951621 0
M  V30 6 C 3.277228 -0.435532 2.987543 0
M  V30 7 C 3.521671 0.404122 1.814059 0
M  V30 8 C 4.723554 0.978735 1.340226 0
M  V30 9 C 4.550287 1.723747 0.209320 0
M  V30 10 C 3.399599 1.933810 -0.438674 0
M  V30 11 C 3.068524 2.658225 -1.585189 0
M  V30 12 C 3.929583 3.424591 -2.358979 0
M  V30 13 C 3.415162 4.077265 -3.467279 0
M  V30 14 N 2.128596 3.974321 -3.787352 0
M  V30 15 C 1.282291 3.240849 -3.055864 0
M  V30 16 N -0.084813 3.176072 -3.458636 0
M  V30 17 C -1.139106 2.394907 -2.910591 0
M  V30 18 C -1.007607 1.548188 -1.832093 0
M  V30 19 C -2.088840 0.783120 -1.376258 0
M  V30 20 C -3.316387 0.870204 -2.014108 0
M  V30 21 C -4.277340 -0.044066 -1.386228 0
M  V30 22 O -5.235032 0.109587 -0.595351 0
M  V30 23 N -3.996167 -1.399319 -1.818617 0
M  V30 24 C -4.709595 -2.612375 -1.421795 0
M  V30 25 C -3.781404 -3.778687 -1.431401 0
M  V30 26 C -2.391675 -3.416601 -0.942208 0
M  V30 27 N -2.508156 -2.747505 0.316612 0
M  V30 28 C -3.123543 -3.678234 1.261842 0
M  V30 29 C -3.083511 -2.844839 2.551473 0
M  V30 30 C -1.759551 -2.125739 2.402803 0
M  V30 31 C -1.275051 -2.451752 0.980178 0
M  V30 32 C -1.809974 -2.529215 -2.046645 0
M  V30 33 C -2.933396 -1.788231 -2.757413 0
M  V30 34 C -3.452872 1.706073 -3.078760 0
M  V30 35 C -2.376274 2.443010 -3.501601 0
M  V30 36 N 1.799856 2.633652 -2.009472 0
M  V30 37 S 2.212258 0.957312 0.617128 0
M  V30 38 H 0.953006 -1.394660 6.248943 0
M  V30 39 H 2.531606 -1.077723 7.164727 0
M  V30 40 H 2.026986 -0.041498 5.810625 0
M  V30 41 H 4.968998 -1.755129 5.338362 0
M  V30 42 H 4.251587 -3.448409 5.377577 0
M  V30 43 H 4.082903 -2.388296 6.801317 0
M  V30 44 H 1.238154 -2.709512 4.141704 0
M  V30 45 H 2.538834 -3.745303 4.354806 0
M  V30 46 H 5.604437 0.762508 1.916203 0
M  V30 47 H 5.462662 2.195352 -0.201194 0
M  V30 48 H 4.943319 3.395254 -1.952105 0
M  V30 49 H 4.156055 4.644096 -3.994799 0
M  V30 50 H -0.358139 3.791884 -4.283215 0
M  V30 51 H -0.058218 1.468522 -1.323367 0
M  V30 52 H -1.863621 0.157074 -0.521246 0
M  V30 53 H -5.255834 -2.470395 -0.461940 0
M  V30 54 H -5.487329 -2.789706 -2.219741 0
M  V30 55 H -4.195448 -4.661242 -0.923845 0
M  V30 56 H -3.637692 -4.117531 -2.499917 0
M  V30 57 H -1.800535 -4.341030 -0.837118 0
M  V30 58 H -2.418340 -4.532294 1.445863 0
M  V30 59 H -4.131158 -3.990447 0.983545 0
M  V30 60 H -3.955594 -2.138810 2.450984 0
M  V30 61 H -3.142666 -3.476418 3.446766 0
M  V30 62 H -1.029777 -2.435886 3.161730 0
M  V30 63 H -1.992382 -1.036605 2.397255 0
M  V30 64 H -0.681393 -3.395839 0.993593 0
M  V30 65 H -0.694750 -1.615156 0.555042 0
M  V30 66 H -1.011749 -1.868285 -1.693918 0
M  V30 67 H -1.347320 -3.259482 -2.773129 0
M  V30 68 H -3.335044 -2.423630 -3.570416 0
M  V30 69 H -2.558226 -0.852239 -3.204416 0
M  V30 70 H -4.444049 1.703552 -3.501425 0
M  V30 71 H -2.629454 3.077250 -4.368777 0
M  V30 END ATOM
M  V30 BEGIN BOND
M  V30 1 1 1 2
M  V30 2 1 2 3
M  V30 3 1 2 4
M  V30 4 1 2 5
M  V30 5 3 5 6
M  V30 6 1 6 7
M  V30 7 2 7 8
M  V30 8 1 8 9
M  V30 9 2 9 10
M  V30 10 1 10 11
M  V30 11 2 11 12
M  V30 12 1 12 13
M  V30 13 2 13 14
M  V30 14 1 14 15
M  V30 15 1 15 16
M  V30 16 1 16 17
M  V30 17 2 17 18
M  V30 18 1 18 19
M  V30 19 2 19 20
M  V30 20 1 20 21
M  V30 21 2 21 22
M  V30 22 1 21 23
M  V30 23 1 23 24
M  V30 24 1 24 25
M  V30 25 1 25 26
M  V30 26 1 26 27
M  V30 27 1 27 28
M  V30 28 1 28 29
M  V30 29 1 29 30
M  V30 30 1 30 31
M  V30 31 1 26 32
M  V30 32 1 32 33
M  V30 33 1 20 34
M  V30 34 2 34 35
M  V30 35 2 15 36
M  V30 36 1 10 37
M  V30 37 1 37 7
M  V30 38 1 36 11
M  V30 39 1 35 17
M  V30 40 1 33 23
M  V30 41 1 31 27
M  V30 42 1 1 38
M  V30 43 1 1 39
M  V30 44 1 1 40
M  V30 45 1 3 41
M  V30 46 1 3 42
M  V30 47 1 3 43
M  V30 48 1 4 44
M  V30 49 1 4 45
M  V30 50 1 8 46
M  V30 51 1 9 47
M  V30 52 1 12 48
M  V30 53 1 13 49
M  V30 54 1 16 50
M  V30 55 1 18 51
M  V30 56 1 19 52
M  V30 57 1 24 53
M  V30 58 1 24 54
M  V30 59 1 25 55
M  V30 60 1 25 56
M  V30 61 1 26 57
M  V30 62 1 28 58
M  V30 63 1 28 59
M  V30 64 1 29 60
M  V30 65 1 29 61
M  V30 66 1 30 62
M  V30 67 1 30 63
M  V30 68 1 31 64
M  V30 69 1 31 65
M  V30 70 1 32 66
M  V30 71 1 32 67
M  V30 72 1 33 68
M  V30 73 1 33 69
M  V30 74 1 34 70
M  V30 75 1 35 71
M  V30 END BOND
M  V30 END CTAB
M  END
>  <Dataset>  (599) 
ChEMBL_Kinases

>  <Ligand_Instance>  (599) 
nan

>  <PDB_ID>  (599) 
nan

>  <Standardized_SMILES>  (599) 
CC(C)(N)C#Cc1ccc(-c2ccnc(Nc3ccc(C(=O)N4CCC(N5CCCC5)CC4)cc3)n2)s1

>  <Name>  (599) 
nan

>  <Pocket>  (599) 
nan

>  <ATP_Site>  (599) 
nan

>  <Peripheral>  (599) 
nan

>  <Num_H_Atoms_ProtBoundConf>  (599) 
nan

>  <Num_Resolved_Atoms>  (599) 
nan

>  <Num_Not_Resolved_Atoms>  (599) 
nan

$$$$
CHEMBL3813873
     RDKit          3D

  0  0  0  0  0  0  0  0  0  0999 V3000
M  V30 BEGIN CTAB
M  V30 COUNTS 44 47 0 0 0
M  V30 BEGIN ATOM
M  V30 1 F -6.205936 0.964142 5.071242 0
M  V30 2 C -4.997192 0.318067 4.938791 0
M  V30 3 F -5.172345 -1.055653 4.873058 0
M  V30 4 F -4.208785 0.585818 6.035101 0
M  V30 5 C -4.256203 0.743402 3.722245 0
M  V30 6 C -3.840524 -0.118011 2.729049 0
M  V30 7 C -3.155863 0.328655 1.620937 0
M  V30 8 C -2.853964 1.664247 1.455033 0
M  V30 9 C -2.136154 2.335096 0.365045 0
M  V30 10 N -0.727586 2.482579 0.547859 0
M  V30 11 C 0.208669 1.448535 0.706715 0
M  V30 12 C 1.566443 1.704927 0.885315 0
M  V30 13 C 2.524587 0.730318 1.044331 0
M  V30 14 C 2.133772 -0.608243 1.028873 0
M  V30 15 C 3.256992 -1.559387 1.213335 0
M  V30 16 C 3.883998 -1.889910 -0.101012 0
M  V30 17 C 5.097575 -1.338385 -0.520674 0
M  V30 18 N 5.436173 -1.788007 -1.724764 0
M  V30 19 C 4.475795 -2.637996 -2.137612 0
M  V30 20 N 4.276208 -3.385437 -3.249476 0
M  V30 21 C 3.204522 -4.175592 -3.422639 0
M  V30 22 C 2.248182 -4.234983 -2.415653 0
M  V30 23 Cl 0.869825 -5.266335 -2.666008 0
M  V30 24 C 2.408755 -3.489390 -1.261769 0
M  V30 25 C 3.528544 -2.698805 -1.144050 0
M  V30 26 C 0.792823 -0.850983 0.852222 0
M  V30 27 N -0.080492 0.157086 0.703955 0
M  V30 28 C -3.298268 2.496666 2.491423 0
M  V30 29 N -3.970824 2.070957 3.583423 0
M  V30 30 H -4.061975 -1.171016 2.829804 0
M  V30 31 H -2.816574 -0.306202 0.822341 0
M  V30 32 H -2.274387 1.778768 -0.608182 0
M  V30 33 H -2.625220 3.317530 0.181500 0
M  V30 34 H -0.342146 3.475753 0.566223 0
M  V30 35 H 1.892734 2.749998 0.900591 0
M  V30 36 H 3.560496 1.047156 1.176931 0
M  V30 37 H 2.880362 -2.552096 1.596695 0
M  V30 38 H 4.007856 -1.157391 1.899574 0
M  V30 39 H 5.689500 -0.635368 0.055942 0
M  V30 40 H 6.294311 -1.543037 -2.283351 0
M  V30 41 H 3.095758 -4.752226 -4.333894 0
M  V30 42 H 1.665787 -3.537634 -0.481458 0
M  V30 43 H 0.544674 -1.901025 0.849977 0
M  V30 44 H -3.122017 3.582592 2.480596 0
M  V30 END ATOM
M  V30 BEGIN BOND
M  V30 1 1 1 2
M  V30 2 1 2 3
M  V30 3 1 2 4
M  V30 4 1 2 5
M  V30 5 2 5 6
M  V30 6 1 6 7
M  V30 7 2 7 8
M  V30 8 1 8 9
M  V30 9 1 9 10
M  V30 10 1 10 11
M  V30 11 2 11 12
M  V30 12 1 12 13
M  V30 13 2 13 14
M  V30 14 1 14 15
M  V30 15 1 15 16
M  V30 16 2 16 17
M  V30 17 1 17 18
M  V30 18 1 18 19
M  V30 19 2 19 20
M  V30 20 1 20 21
M  V30 21 2 21 22
M  V30 22 1 22 23
M  V30 23 1 22 24
M  V30 24 2 24 25
M  V30 25 1 14 26
M  V30 26 2 26 27
M  V30 27 1 8 28
M  V30 28 2 28 29
M  V30 29 1 29 5
M  V30 30 1 27 11
M  V30 31 1 25 16
M  V30 32 1 25 19
M  V30 33 1 6 30
M  V30 34 1 7 31
M  V30 35 1 9 32
M  V30 36 1 9 33
M  V30 37 1 10 34
M  V30 38 1 12 35
M  V30 39 1 13 36
M  V30 40 1 15 37
M  V30 41 1 15 38
M  V30 42 1 17 39
M  V30 43 1 18 40
M  V30 44 1 21 41
M  V30 45 1 24 42
M  V30 46 1 26 43
M  V30 47 1 28 44
M  V30 END BOND
M  V30 END CTAB
M  END
>  <Dataset>  (600) 
ChEMBL_Kinases

>  <Ligand_Instance>  (600) 
nan

>  <PDB_ID>  (600) 
nan

>  <Standardized_SMILES>  (600) 
FC(F)(F)c1ccc(CNc2ccc(Cc3c[nH]c4ncc(Cl)cc34)cn2)cn1

>  <Name>  (600) 
PEXIDARTINIB

>  <Pocket>  (600) 
nan

>  <ATP_Site>  (600) 
nan

>  <Peripheral>  (600) 
nan

>  <Num_H_Atoms_ProtBoundConf>  (600) 
nan

>  <Num_Resolved_Atoms>  (600) 
nan

>  <Num_Not_Resolved_Atoms>  (600) 
nan

$$$$
CHEMBL3817984
     RDKit          3D

  0  0  0  0  0  0  0  0  0  0999 V3000
M  V30 BEGIN CTAB
M  V30 COUNTS 55 59 0 0 0
M  V30 BEGIN ATOM
M  V30 1 C 0.457138 -4.074440 3.974316 0
M  V30 2 C 1.400085 -3.857523 2.810928 0
M  V30 3 N 0.847492 -3.025123 1.773777 0
M  V30 4 C 1.033755 -1.693713 1.834907 0
M  V30 5 O 1.671262 -1.122436 2.757375 0
M  V30 6 C 0.526281 -0.852032 0.868592 0
M  V30 7 C 0.636545 0.583476 0.788942 0
M  V30 8 C 1.677034 1.201037 0.136142 0
M  V30 9 C 1.747732 2.580410 0.081602 0
M  V30 10 C 0.787053 3.369653 0.673979 0
M  V30 11 N 0.976524 4.773367 0.545288 0
M  V30 12 C 2.224238 5.292860 0.552737 0
M  V30 13 C 2.510972 6.637624 0.434370 0
M  V30 14 C 1.452494 7.529505 0.297469 0
M  V30 15 C 0.171854 7.014649 0.288025 0
M  V30 16 C -0.991846 7.943253 0.142643 0
M  V30 17 C -0.019258 5.654170 0.412403 0
M  V30 18 O -1.193510 5.255322 0.396565 0
M  V30 19 C -0.253577 2.743650 1.326930 0
M  V30 20 C -0.348194 1.370197 1.396322 0
M  V30 21 Cl -1.695397 0.629289 2.241103 0
M  V30 22 C -0.183932 -1.464772 -0.163322 0
M  V30 23 C -0.396712 -2.841155 -0.259029 0
M  V30 24 C -1.113414 -3.359407 -1.318321 0
M  V30 25 N -1.260079 -4.713285 -1.311815 0
M  V30 26 C -0.740884 -5.485551 -0.339082 0
M  V30 27 N -0.931917 -6.912970 -0.390789 0
M  V30 28 C -1.703825 -7.396106 -1.545160 0
M  V30 29 C -3.104775 -6.818023 -1.597820 0
M  V30 30 O -3.524485 -8.056945 -2.088338 0
M  V30 31 C -2.510075 -8.630289 -1.299546 0
M  V30 32 N -0.046479 -4.926035 0.676986 0
M  V30 33 C 0.161997 -3.601173 0.775027 0
M  V30 34 H -0.511633 -4.524317 3.671465 0
M  V30 35 H 0.324664 -3.169277 4.601234 0
M  V30 36 H 0.948582 -4.817995 4.637452 0
M  V30 37 H 1.597183 -4.884532 2.398975 0
M  V30 38 H 2.342582 -3.469959 3.230995 0
M  V30 39 H 2.394565 0.545216 -0.305802 0
M  V30 40 H 2.613626 2.943733 -0.460513 0
M  V30 41 H 3.096169 4.633427 0.658145 0
M  V30 42 H 3.543740 6.989398 0.448211 0
M  V30 43 H 1.670872 8.586866 0.204071 0
M  V30 44 H -1.098890 8.429073 1.138917 0
M  V30 45 H -1.892886 7.336297 0.006799 0
M  V30 46 H -0.819686 8.682214 -0.674539 0
M  V30 47 H -0.990326 3.382603 1.780966 0
M  V30 48 H -0.623077 -0.867567 -0.976058 0
M  V30 49 H -1.511299 -2.712902 -2.073569 0
M  V30 50 H -0.545871 -7.521568 0.338627 0
M  V30 51 H -1.171197 -7.326141 -2.504149 0
M  V30 52 H -3.506569 -6.662486 -0.574427 0
M  V30 53 H -3.237788 -5.955925 -2.289829 0
M  V30 54 H -2.792625 -8.734994 -0.242301 0
M  V30 55 H -2.149150 -9.569581 -1.780629 0
M  V30 END ATOM
M  V30 BEGIN BOND
M  V30 1 1 1 2
M  V30 2 1 2 3
M  V30 3 1 3 4
M  V30 4 2 4 5
M  V30 5 1 4 6
M  V30 6 1 6 7
M  V30 7 2 7 8
M  V30 8 1 8 9
M  V30 9 2 9 10
M  V30 10 1 10 11
M  V30 11 1 11 12
M  V30 12 2 12 13
M  V30 13 1 13 14
M  V30 14 2 14 15
M  V30 15 1 15 16
M  V30 16 1 15 17
M  V30 17 2 17 18
M  V30 18 1 10 19
M  V30 19 2 19 20
M  V30 20 1 20 21
M  V30 21 2 6 22
M  V30 22 1 22 23
M  V30 23 2 23 24
M  V30 24 1 24 25
M  V30 25 2 25 26
M  V30 26 1 26 27
M  V30 27 1 27 28
M  V30 28 1 28 29
M  V30 29 1 29 30
M  V30 30 1 30 31
M  V30 31 1 26 32
M  V30 32 2 32 33
M  V30 33 1 33 3
M  V30 34 1 20 7
M  V30 35 1 33 23
M  V30 36 1 17 11
M  V30 37 1 31 28
M  V30 38 1 1 34
M  V30 39 1 1 35
M  V30 40 1 1 36
M  V30 41 1 2 37
M  V30 42 1 2 38
M  V30 43 1 8 39
M  V30 44 1 9 40
M  V30 45 1 12 41
M  V30 46 1 13 42
M  V30 47 1 14 43
M  V30 48 1 16 44
M  V30 49 1 16 45
M  V30 50 1 16 46
M  V30 51 1 19 47
M  V30 52 1 22 48
M  V30 53 1 24 49
M  V30 54 1 27 50
M  V30 55 1 28 51
M  V30 56 1 29 52
M  V30 57 1 29 53
M  V30 58 1 31 54
M  V30 59 1 31 55
M  V30 END BOND
M  V30 END CTAB
M  END
>  <Dataset>  (601) 
ChEMBL_Kinases

>  <Ligand_Instance>  (601) 
nan

>  <PDB_ID>  (601) 
nan

>  <Standardized_SMILES>  (601) 
CCn1c(=O)c(-c2ccc(-n3cccc(C)c3=O)cc2Cl)cc2cnc(NC3COC3)nc21

>  <Name>  (601) 
nan

>  <Pocket>  (601) 
nan

>  <ATP_Site>  (601) 
nan

>  <Peripheral>  (601) 
nan

>  <Num_H_Atoms_ProtBoundConf>  (601) 
nan

>  <Num_Resolved_Atoms>  (601) 
nan

>  <Num_Not_Resolved_Atoms>  (601) 
nan

$$$$
CHEMBL3818261
     RDKit          3D

  0  0  0  0  0  0  0  0  0  0999 V3000
M  V30 BEGIN CTAB
M  V30 COUNTS 60 64 0 0 0
M  V30 BEGIN ATOM
M  V30 1 C 5.023739 -5.508852 3.694264 0
M  V30 2 N 4.860534 -4.952738 2.368757 0
M  V30 3 C 4.138686 -3.758550 2.132700 0
M  V30 4 N 4.771971 -2.574784 2.159626 0
M  V30 5 C 4.090451 -1.414131 1.934144 0
M  V30 6 C 2.736388 -1.389422 1.670284 0
M  V30 7 C 2.010381 -0.255708 1.441416 0
M  V30 8 C 0.641524 -0.420292 1.192995 0
M  V30 9 C -0.162098 0.774332 0.944583 0
M  V30 10 C -0.231021 1.133248 -0.404078 0
M  V30 11 C -0.964390 2.256498 -0.801918 0
M  V30 12 C -1.618729 3.004153 0.160567 0
M  V30 13 N -2.363125 4.146541 -0.254984 0
M  V30 14 C -1.871631 5.363935 -0.548585 0
M  V30 15 C -2.716644 6.386522 -0.941315 0
M  V30 16 C -4.083416 6.218218 -1.051593 0
M  V30 17 C -5.000067 7.310774 -1.472801 0
M  V30 18 C -4.557041 4.938532 -0.737972 0
M  V30 19 C -3.691221 3.931615 -0.347340 0
M  V30 20 O -4.281618 2.826077 -0.097450 0
M  V30 21 C -1.550376 2.648697 1.495531 0
M  V30 22 C -0.825936 1.539598 1.886075 0
M  V30 23 Cl -0.675797 1.003696 3.550971 0
M  V30 24 C 0.073438 -1.698716 1.186018 0
M  V30 25 O -1.182716 -1.707752 0.946817 0
M  V30 26 N 0.831442 -2.811715 1.419181 0
M  V30 27 C 0.046906 -4.011870 1.370437 0
M  V30 28 C -0.089141 -4.653543 0.039811 0 CFG=1
M  V30 29 C 1.183352 -5.091893 -0.609995 0
M  V30 30 N 0.901915 -5.968858 -1.755249 0
M  V30 31 C -0.474227 -5.767489 -2.151389 0
M  V30 32 C -1.471716 -6.040290 -1.053129 0
M  V30 33 O -0.883414 -5.790545 0.180864 0
M  V30 34 C 2.136298 -2.608327 1.652489 0
M  V30 35 N 2.818257 -3.743016 1.876018 0
M  V30 36 H 4.200452 -5.179884 4.370550 0
M  V30 37 H 5.968353 -5.221208 4.186459 0
M  V30 38 H 5.016854 -6.615457 3.556258 0
M  V30 39 H 5.288046 -5.442061 1.539499 0
M  V30 40 H 4.633375 -0.457690 1.961934 0
M  V30 41 H 2.511605 0.696960 1.461399 0
M  V30 42 H 0.261522 0.584079 -1.199039 0
M  V30 43 H -1.019836 2.538162 -1.850262 0
M  V30 44 H -0.799068 5.473080 -0.455439 0
M  V30 45 H -2.271727 7.348036 -1.166612 0
M  V30 46 H -6.003652 7.082655 -1.009287 0
M  V30 47 H -4.641057 8.266932 -1.078977 0
M  V30 48 H -5.191005 7.295339 -2.561675 0
M  V30 49 H -5.644317 4.814330 -0.828485 0
M  V30 50 H -2.050875 3.213920 2.266176 0
M  V30 51 H -0.958892 -3.883053 1.801760 0
M  V30 52 H 0.551631 -4.759222 2.051712 0
M  V30 53 H -0.636134 -4.002222 -0.694003 0
M  V30 54 H 1.787248 -5.643646 0.148085 0
M  V30 55 H 1.821368 -4.272949 -0.990637 0
M  V30 56 H 1.067889 -6.962570 -1.495898 0
M  V30 57 H -0.728981 -6.440166 -3.008250 0
M  V30 58 H -0.562647 -4.732762 -2.579377 0
M  V30 59 H -1.894959 -7.062607 -1.119192 0
M  V30 60 H -2.319474 -5.296901 -1.117581 0
M  V30 END ATOM
M  V30 BEGIN BOND
M  V30 1 1 1 2
M  V30 2 1 2 3
M  V30 3 2 3 4
M  V30 4 1 4 5
M  V30 5 2 5 6
M  V30 6 1 6 7
M  V30 7 2 7 8
M  V30 8 1 8 9
M  V30 9 2 9 10
M  V30 10 1 10 11
M  V30 11 2 11 12
M  V30 12 1 12 13
M  V30 13 1 13 14
M  V30 14 2 14 15
M  V30 15 1 15 16
M  V30 16 1 16 17
M  V30 17 2 16 18
M  V30 18 1 18 19
M  V30 19 2 19 20
M  V30 20 1 12 21
M  V30 21 2 21 22
M  V30 22 1 22 23
M  V30 23 1 8 24
M  V30 24 2 24 25
M  V30 25 1 24 26
M  V30 26 1 26 27
M  V30 27 1 27 28
M  V30 28 1 28 29
M  V30 29 1 29 30
M  V30 30 1 30 31
M  V30 31 1 31 32
M  V30 32 1 32 33
M  V30 33 1 26 34
M  V30 34 2 34 35
M  V30 35 1 35 3
M  V30 36 1 34 6
M  V30 37 1 22 9
M  V30 38 1 33 28
M  V30 39 1 19 13
M  V30 40 1 1 36
M  V30 41 1 1 37
M  V30 42 1 1 38
M  V30 43 1 2 39
M  V30 44 1 5 40
M  V30 45 1 7 41
M  V30 46 1 10 42
M  V30 47 1 11 43
M  V30 48 1 14 44
M  V30 49 1 15 45
M  V30 50 1 17 46
M  V30 51 1 17 47
M  V30 52 1 17 48
M  V30 53 1 18 49
M  V30 54 1 21 50
M  V30 55 1 27 51
M  V30 56 1 27 52
M  V30 57 1 28 53 CFG=3
M  V30 58 1 29 54
M  V30 59 1 29 55
M  V30 60 1 30 56
M  V30 61 1 31 57
M  V30 62 1 31 58
M  V30 63 1 32 59
M  V30 64 1 32 60
M  V30 END BOND
M  V30 END CTAB
M  END
>  <Dataset>  (602) 
ChEMBL_Kinases

>  <Ligand_Instance>  (602) 
nan

>  <PDB_ID>  (602) 
nan

>  <Standardized_SMILES>  (602) 
CNc1ncc2cc(-c3ccc(-n4ccc(C)cc4=O)cc3Cl)c(=O)n(C[C@H]3CNCCO3)c2n1

>  <Name>  (602) 
nan

>  <Pocket>  (602) 
nan

>  <ATP_Site>  (602) 
nan

>  <Peripheral>  (602) 
nan

>  <Num_H_Atoms_ProtBoundConf>  (602) 
nan

>  <Num_Resolved_Atoms>  (602) 
nan

>  <Num_Not_Resolved_Atoms>  (602) 
nan

$$$$
CHEMBL3818265
     RDKit          3D

  0  0  0  0  0  0  0  0  0  0999 V3000
M  V30 BEGIN CTAB
M  V30 COUNTS 62 66 0 0 0
M  V30 BEGIN ATOM
M  V30 1 C 3.588123 -6.235947 3.710825 0
M  V30 2 N 4.009781 -5.768682 2.404893 0
M  V30 3 C 3.916958 -4.383908 2.098114 0
M  V30 4 N 4.824178 -3.407288 1.935674 0
M  V30 5 C 4.517082 -2.143816 1.653118 0
M  V30 6 C 3.177755 -1.862806 1.528646 0
M  V30 7 C 2.865478 -0.549806 1.231701 0
M  V30 8 C 1.541135 -0.192240 1.089900 0
M  V30 9 C 0.871778 1.070953 0.785230 0
M  V30 10 C 0.486905 1.900090 1.820725 0
M  V30 11 C -0.197753 3.076154 1.478761 0
M  V30 12 C -0.432470 3.310094 0.144712 0
M  V30 13 N -1.164333 4.447583 -0.359942 0
M  V30 14 C -2.267092 4.615513 0.404943 0
M  V30 15 C -3.177017 5.638139 0.131314 0
M  V30 16 C -2.944838 6.498650 -0.946088 0
M  V30 17 C -1.803367 6.238528 -1.648953 0
M  V30 18 C -1.444622 7.091162 -2.841401 0
M  V30 19 C -0.890002 5.227693 -1.389306 0
M  V30 20 O 0.162837 4.969094 -2.015151 0
M  V30 21 C -0.043045 2.475161 -0.909731 0
M  V30 22 C 0.640870 1.302888 -0.556643 0
M  V30 23 Cl 1.166186 0.206918 -1.808476 0
M  V30 24 C 0.616864 -1.237565 1.267338 0
M  V30 25 O -0.630641 -1.020237 1.158991 0
M  V30 26 N 0.886425 -2.520675 1.556450 0
M  V30 27 C -0.174331 -3.507815 1.718509 0
M  V30 28 C -0.504843 -4.197784 0.428288 0
M  V30 29 C -1.656320 -5.186928 0.608305 0
M  V30 30 F -1.498168 -6.187979 1.485500 0
M  V30 31 C -2.270584 -5.561241 -0.759680 0
M  V30 32 N -2.839519 -4.199150 -0.761757 0
M  V30 33 C -4.090063 -4.089129 -1.450753 0
M  V30 34 C -2.949340 -4.366729 0.681979 0
M  V30 35 C 2.193314 -2.813746 1.683665 0
M  V30 36 N 2.590483 -4.068890 1.967835 0
M  V30 37 H 3.814116 -7.321949 3.810396 0
M  V30 38 H 2.469853 -6.104104 3.776688 0
M  V30 39 H 3.999310 -5.645901 4.542976 0
M  V30 40 H 4.409136 -6.254443 1.586861 0
M  V30 41 H 5.276560 -1.406614 1.531634 0
M  V30 42 H 3.518655 0.298761 1.079875 0
M  V30 43 H 0.680707 1.697406 2.861851 0
M  V30 44 H -0.550947 3.805266 2.210674 0
M  V30 45 H -2.595330 4.034880 1.276728 0
M  V30 46 H -4.088851 5.819435 0.715867 0
M  V30 47 H -3.604410 7.312030 -1.229450 0
M  V30 48 H -0.388491 7.394837 -2.743470 0
M  V30 49 H -2.157585 7.884022 -3.039249 0
M  V30 50 H -1.514176 6.384263 -3.706934 0
M  V30 51 H -0.223793 2.661175 -1.953951 0
M  V30 52 H 0.140160 -4.223486 2.508848 0
M  V30 53 H -1.062559 -2.925888 2.035869 0
M  V30 54 H -0.863397 -3.472565 -0.334726 0
M  V30 55 H 0.384444 -4.741924 0.022544 0
M  V30 56 H -1.542498 -5.759458 -1.541596 0
M  V30 57 H -3.055150 -6.313678 -0.612106 0
M  V30 58 H -4.891929 -3.835518 -0.713023 0
M  V30 59 H -4.317158 -5.029249 -2.023230 0
M  V30 60 H -4.063582 -3.228430 -2.183242 0
M  V30 61 H -3.788452 -4.996342 1.022125 0
M  V30 62 H -2.863616 -3.421025 1.254214 0
M  V30 END ATOM
M  V30 BEGIN BOND
M  V30 1 1 1 2
M  V30 2 1 2 3
M  V30 3 2 3 4
M  V30 4 1 4 5
M  V30 5 2 5 6
M  V30 6 1 6 7
M  V30 7 2 7 8
M  V30 8 1 8 9
M  V30 9 2 9 10
M  V30 10 1 10 11
M  V30 11 2 11 12
M  V30 12 1 12 13
M  V30 13 1 13 14
M  V30 14 2 14 15
M  V30 15 1 15 16
M  V30 16 2 16 17
M  V30 17 1 17 18
M  V30 18 1 17 19
M  V30 19 2 19 20
M  V30 20 1 12 21
M  V30 21 2 21 22
M  V30 22 1 22 23
M  V30 23 1 8 24
M  V30 24 2 24 25
M  V30 25 1 24 26
M  V30 26 1 26 27
M  V30 27 1 27 28
M  V30 28 1 28 29
M  V30 29 1 29 30
M  V30 30 1 29 31
M  V30 31 1 31 32
M  V30 32 1 32 33
M  V30 33 1 32 34
M  V30 34 1 26 35
M  V30 35 2 35 36
M  V30 36 1 36 3
M  V30 37 1 35 6
M  V30 38 1 22 9
M  V30 39 1 34 29
M  V30 40 1 19 13
M  V30 41 1 1 37
M  V30 42 1 1 38
M  V30 43 1 1 39
M  V30 44 1 2 40
M  V30 45 1 5 41
M  V30 46 1 7 42
M  V30 47 1 10 43
M  V30 48 1 11 44
M  V30 49 1 14 45
M  V30 50 1 15 46
M  V30 51 1 16 47
M  V30 52 1 18 48
M  V30 53 1 18 49
M  V30 54 1 18 50
M  V30 55 1 21 51
M  V30 56 1 27 52
M  V30 57 1 27 53
M  V30 58 1 28 54
M  V30 59 1 28 55
M  V30 60 1 31 56
M  V30 61 1 31 57
M  V30 62 1 33 58
M  V30 63 1 33 59
M  V30 64 1 33 60
M  V30 65 1 34 61
M  V30 66 1 34 62
M  V30 END BOND
M  V30 END CTAB
M  END
>  <Dataset>  (603) 
ChEMBL_Kinases

>  <Ligand_Instance>  (603) 
nan

>  <PDB_ID>  (603) 
nan

>  <Standardized_SMILES>  (603) 
CNc1ncc2cc(-c3ccc(-n4cccc(C)c4=O)cc3Cl)c(=O)n(CCC3(F)CN(C)C3)c2n1

>  <Name>  (603) 
nan

>  <Pocket>  (603) 
nan

>  <ATP_Site>  (603) 
nan

>  <Peripheral>  (603) 
nan

>  <Num_H_Atoms_ProtBoundConf>  (603) 
nan

>  <Num_Resolved_Atoms>  (603) 
nan

>  <Num_Not_Resolved_Atoms>  (603) 
nan

$$$$
CHEMBL3818479
     RDKit          3D

  0  0  0  0  0  0  0  0  0  0999 V3000
M  V30 BEGIN CTAB
M  V30 COUNTS 66 71 0 0 0
M  V30 BEGIN ATOM
M  V30 1 C 8.046380 -1.423555 6.152569 0
M  V30 2 C 6.874663 -2.209565 5.671319 0
M  V30 3 N 6.656160 -3.501308 5.983571 0
M  V30 4 C 5.585493 -4.182579 5.530861 0
M  V30 5 C 4.685140 -3.499258 4.709188 0
M  V30 6 N 4.895958 -2.193161 4.386931 0
M  V30 7 C 3.866425 -1.682415 3.542353 0
M  V30 8 C 2.840628 -0.868109 3.981572 0
M  V30 9 C 1.891115 -0.431686 3.057448 0
M  V30 10 C 1.992756 -0.820630 1.721266 0
M  V30 11 C 0.910772 -0.264466 0.915198 0
M  V30 12 C 1.127267 0.964795 0.330646 0
M  V30 13 C 0.079175 1.451834 -0.420547 0
M  V30 14 C 0.126146 2.674202 -1.054998 0
M  V30 15 N -0.879153 3.185942 -1.777489 0
M  V30 16 C -2.027399 2.473605 -1.907439 0
M  V30 17 N -3.077089 3.061473 -2.680983 0
M  V30 18 C -4.386362 2.512705 -2.969525 0
M  V30 19 C -5.220345 2.183577 -1.772513 0
M  V30 20 O -6.029430 3.302949 -1.927975 0
M  V30 21 C -5.462410 3.565275 -3.170142 0
M  V30 22 N -2.080791 1.299868 -1.303056 0
M  V30 23 C -1.093515 0.764107 -0.576288 0
M  V30 24 N -1.325477 -0.418502 -0.026021 0
M  V30 25 C -2.463871 -1.298222 -0.111114 0
M  V30 26 C -2.387778 -2.386447 -1.113351 0
M  V30 27 C -3.622354 -3.268141 -1.131540 0
M  V30 28 C -4.738389 -2.641055 -1.891942 0
M  V30 29 N -4.361091 -2.283694 -3.248984 0
M  V30 30 C -3.229779 -1.368203 -3.247927 0
M  V30 31 C -2.083726 -1.985220 -2.523809 0
M  V30 32 F -1.816540 -3.196126 -3.203191 0
M  V30 33 F -0.943038 -1.208168 -2.587796 0
M  V30 34 C -0.299212 -0.892176 0.708994 0
M  V30 35 O -0.362489 -2.020167 1.307938 0
M  V30 36 C 3.025888 -1.635653 1.300321 0
M  V30 37 Cl 3.002873 -2.027935 -0.411501 0
M  V30 38 C 3.967710 -2.068030 2.219104 0
M  V30 39 C 5.977179 -1.555920 4.861916 0
M  V30 40 O 6.046353 -0.349012 4.482948 0
M  V30 41 H 8.806815 -2.146301 6.565065 0
M  V30 42 H 7.685730 -0.866917 7.063587 0
M  V30 43 H 8.464280 -0.755105 5.387770 0
M  V30 44 H 5.438174 -5.222288 5.800639 0
M  V30 45 H 3.849215 -4.110821 4.383699 0
M  V30 46 H 2.821355 -0.602726 5.038550 0
M  V30 47 H 1.127903 0.198144 3.484778 0
M  V30 48 H 2.005777 1.566979 0.398267 0
M  V30 49 H 1.019660 3.286197 -0.984854 0
M  V30 50 H -2.940607 3.997616 -3.116527 0
M  V30 51 H -4.387122 1.716530 -3.712643 0
M  V30 52 H -5.861544 1.277055 -1.876617 0
M  V30 53 H -4.656937 2.110480 -0.831672 0
M  V30 54 H -6.100806 3.285854 -4.032981 0
M  V30 55 H -5.078238 4.604178 -3.190783 0
M  V30 56 H -2.572949 -1.791955 0.899965 0
M  V30 57 H -3.397832 -0.678419 -0.213764 0
M  V30 58 H -1.533425 -3.058462 -0.776580 0
M  V30 59 H -3.974221 -3.543329 -0.136124 0
M  V30 60 H -3.279097 -4.219359 -1.624563 0
M  V30 61 H -5.536647 -3.420957 -1.991164 0
M  V30 62 H -5.166964 -1.812505 -1.321082 0
M  V30 63 H -5.197647 -1.789139 -3.643794 0
M  V30 64 H -3.510936 -0.357730 -2.946798 0
M  V30 65 H -2.918994 -1.301991 -4.330771 0
M  V30 66 H 4.743997 -2.700260 1.819625 0
M  V30 END ATOM
M  V30 BEGIN BOND
M  V30 1 1 1 2
M  V30 2 2 2 3
M  V30 3 1 3 4
M  V30 4 2 4 5
M  V30 5 1 5 6
M  V30 6 1 6 7
M  V30 7 2 7 8
M  V30 8 1 8 9
M  V30 9 2 9 10
M  V30 10 1 10 11
M  V30 11 2 11 12
M  V30 12 1 12 13
M  V30 13 2 13 14
M  V30 14 1 14 15
M  V30 15 2 15 16
M  V30 16 1 16 17
M  V30 17 1 17 18
M  V30 18 1 18 19
M  V30 19 1 19 20
M  V30 20 1 20 21
M  V30 21 1 16 22
M  V30 22 2 22 23
M  V30 23 1 23 24
M  V30 24 1 24 25
M  V30 25 1 25 26
M  V30 26 1 26 27
M  V30 27 1 27 28
M  V30 28 1 28 29
M  V30 29 1 29 30
M  V30 30 1 30 31
M  V30 31 1 31 32
M  V30 32 1 31 33
M  V30 33 1 24 34
M  V30 34 2 34 35
M  V30 35 1 10 36
M  V30 36 1 36 37
M  V30 37 2 36 38
M  V30 38 1 6 39
M  V30 39 2 39 40
M  V30 40 1 39 2
M  V30 41 1 38 7
M  V30 42 1 34 11
M  V30 43 1 23 13
M  V30 44 1 31 26
M  V30 45 1 21 18
M  V30 46 1 1 41
M  V30 47 1 1 42
M  V30 48 1 1 43
M  V30 49 1 4 44
M  V30 50 1 5 45
M  V30 51 1 8 46
M  V30 52 1 9 47
M  V30 53 1 12 48
M  V30 54 1 14 49
M  V30 55 1 17 50
M  V30 56 1 18 51
M  V30 57 1 19 52
M  V30 58 1 19 53
M  V30 59 1 21 54
M  V30 60 1 21 55
M  V30 61 1 25 56
M  V30 62 1 25 57
M  V30 63 1 26 58
M  V30 64 1 27 59
M  V30 65 1 27 60
M  V30 66 1 28 61
M  V30 67 1 28 62
M  V30 68 1 29 63
M  V30 69 1 30 64
M  V30 70 1 30 65
M  V30 71 1 38 66
M  V30 END BOND
M  V30 END CTAB
M  END
>  <Dataset>  (604) 
ChEMBL_Kinases

>  <Ligand_Instance>  (604) 
nan

>  <PDB_ID>  (604) 
nan

>  <Standardized_SMILES>  (604) 
Cc1nccn(-c2ccc(-c3cc4cnc(NC5COC5)nc4n(CC4CCNCC4(F)F)c3=O)c(Cl)c2)c1=O

>  <Name>  (604) 
nan

>  <Pocket>  (604) 
nan

>  <ATP_Site>  (604) 
nan

>  <Peripheral>  (604) 
nan

>  <Num_H_Atoms_ProtBoundConf>  (604) 
nan

>  <Num_Resolved_Atoms>  (604) 
nan

>  <Num_Not_Resolved_Atoms>  (604) 
nan

$$$$
CHEMBL3819118
     RDKit          3D

  0  0  0  0  0  0  0  0  0  0999 V3000
M  V30 BEGIN CTAB
M  V30 COUNTS 63 67 0 0 0
M  V30 BEGIN ATOM
M  V30 1 C 6.527018 3.813481 2.121510 0
M  V30 2 C 6.421970 4.130452 0.644713 0
M  V30 3 C 5.017735 4.514835 0.256728 0
M  V30 4 C 4.730677 5.848064 0.009526 0
M  V30 5 C 3.462663 6.249582 -0.352673 0
M  V30 6 C 2.463580 5.313183 -0.471182 0
M  V30 7 N 2.744765 4.024944 -0.230293 0
M  V30 8 C 1.903803 2.847626 -0.268614 0
M  V30 9 C 2.004856 1.984686 -1.341918 0
M  V30 10 C 1.198697 0.866215 -1.301035 0
M  V30 11 C 0.326026 0.582897 -0.267576 0
M  V30 12 C -0.481716 -0.633220 -0.210596 0
M  V30 13 C 0.356186 -1.575001 0.416541 0
M  V30 14 C -0.134753 -2.868739 0.632030 0
M  V30 15 C 0.585811 -3.884195 1.245874 0
M  V30 16 N 0.064815 -5.103274 1.434142 0
M  V30 17 C -1.213412 -5.388126 1.021545 0
M  V30 18 N -1.518601 -6.719973 1.351773 0
M  V30 19 C -1.165622 -7.966152 0.687971 0
M  V30 20 N -1.910349 -4.408778 0.427095 0
M  V30 21 C -1.419591 -3.177751 0.222473 0
M  V30 22 N -2.173092 -2.242603 -0.371086 0
M  V30 23 C -3.499552 -2.536306 -0.837819 0
M  V30 24 C -4.561977 -2.307493 0.213381 0 CFG=1
M  V30 25 C -5.884184 -2.642119 -0.417395 0
M  V30 26 N -6.446799 -3.901323 -0.117585 0
M  V30 27 C -5.839971 -4.629652 0.953051 0
M  V30 28 C -5.336992 -3.562209 1.935896 0
M  V30 29 O -4.229842 -3.008298 1.336138 0
M  V30 30 C -1.758241 -0.988004 -0.602227 0
M  V30 31 O -2.320786 -0.031624 -1.125119 0
M  V30 32 C 0.295893 1.519291 0.770597 0
M  V30 33 Cl -0.825145 1.162284 2.089711 0
M  V30 34 C 1.068494 2.668420 0.812400 0
M  V30 35 C 3.966940 3.580661 0.126619 0
M  V30 36 O 4.393130 2.422338 0.384596 0
M  V30 37 H 6.228317 2.756001 2.305180 0
M  V30 38 H 5.843249 4.440902 2.721706 0
M  V30 39 H 7.584333 3.949440 2.406539 0
M  V30 40 H 6.655050 3.185684 0.084524 0
M  V30 41 H 7.148701 4.881954 0.318228 0
M  V30 42 H 5.438333 6.656255 0.072732 0
M  V30 43 H 3.143247 7.265077 -0.565489 0
M  V30 44 H 1.424152 5.434370 -0.738417 0
M  V30 45 H 2.680481 2.193688 -2.153641 0
M  V30 46 H 1.261864 0.166220 -2.144596 0
M  V30 47 H 1.375187 -1.495365 0.794671 0
M  V30 48 H 1.610957 -3.638951 1.561324 0
M  V30 49 H -2.090128 -6.639688 2.221474 0
M  V30 50 H -0.050260 -8.008299 0.519899 0
M  V30 51 H -1.627733 -7.984566 -0.311041 0
M  V30 52 H -1.530298 -8.838159 1.254590 0
M  V30 53 H -3.533207 -3.635389 -1.102570 0
M  V30 54 H -3.767387 -2.008777 -1.783647 0
M  V30 55 H -4.506115 -1.222491 0.467103 0
M  V30 56 H -5.819849 -2.536208 -1.542293 0
M  V30 57 H -6.596256 -1.857815 -0.091256 0
M  V30 58 H -7.488556 -3.927881 -0.102245 0
M  V30 59 H -4.968274 -5.222746 0.656486 0
M  V30 60 H -6.583769 -5.303444 1.423336 0
M  V30 61 H -6.127375 -2.775624 1.995565 0
M  V30 62 H -5.128856 -4.037035 2.905476 0
M  V30 63 H 0.956291 3.316161 1.667465 0
M  V30 END ATOM
M  V30 BEGIN BOND
M  V30 1 1 1 2
M  V30 2 1 2 3
M  V30 3 2 3 4
M  V30 4 1 4 5
M  V30 5 2 5 6
M  V30 6 1 6 7
M  V30 7 1 7 8
M  V30 8 2 8 9
M  V30 9 1 9 10
M  V30 10 2 10 11
M  V30 11 1 11 12
M  V30 12 2 12 13
M  V30 13 1 13 14
M  V30 14 2 14 15
M  V30 15 1 15 16
M  V30 16 2 16 17
M  V30 17 1 17 18
M  V30 18 1 18 19
M  V30 19 1 17 20
M  V30 20 2 20 21
M  V30 21 1 21 22
M  V30 22 1 22 23
M  V30 23 1 23 24
M  V30 24 1 24 25
M  V30 25 1 25 26
M  V30 26 1 26 27
M  V30 27 1 27 28
M  V30 28 1 28 29
M  V30 29 1 22 30
M  V30 30 2 30 31
M  V30 31 1 11 32
M  V30 32 1 32 33
M  V30 33 2 32 34
M  V30 34 1 7 35
M  V30 35 2 35 36
M  V30 36 1 35 3
M  V30 37 1 34 8
M  V30 38 1 30 12
M  V30 39 1 21 14
M  V30 40 1 29 24
M  V30 41 1 1 37
M  V30 42 1 1 38
M  V30 43 1 1 39
M  V30 44 1 2 40
M  V30 45 1 2 41
M  V30 46 1 4 42
M  V30 47 1 5 43
M  V30 48 1 6 44
M  V30 49 1 9 45
M  V30 50 1 10 46
M  V30 51 1 13 47
M  V30 52 1 15 48
M  V30 53 1 18 49
M  V30 54 1 19 50
M  V30 55 1 19 51
M  V30 56 1 19 52
M  V30 57 1 23 53
M  V30 58 1 23 54
M  V30 59 1 24 55 CFG=1
M  V30 60 1 25 56
M  V30 61 1 25 57
M  V30 62 1 26 58
M  V30 63 1 27 59
M  V30 64 1 27 60
M  V30 65 1 28 61
M  V30 66 1 28 62
M  V30 67 1 34 63
M  V30 END BOND
M  V30 END CTAB
M  END
>  <Dataset>  (605) 
ChEMBL_Kinases

>  <Ligand_Instance>  (605) 
nan

>  <PDB_ID>  (605) 
nan

>  <Standardized_SMILES>  (605) 
CCc1cccn(-c2ccc(-c3cc4cnc(NC)nc4n(C[C@H]4CNCCO4)c3=O)c(Cl)c2)c1=O

>  <Name>  (605) 
nan

>  <Pocket>  (605) 
nan

>  <ATP_Site>  (605) 
nan

>  <Peripheral>  (605) 
nan

>  <Num_H_Atoms_ProtBoundConf>  (605) 
nan

>  <Num_Resolved_Atoms>  (605) 
nan

>  <Num_Not_Resolved_Atoms>  (605) 
nan

$$$$
CHEMBL3819371
     RDKit          3D

  0  0  0  0  0  0  0  0  0  0999 V3000
M  V30 BEGIN CTAB
M  V30 COUNTS 58 62 0 0 0
M  V30 BEGIN ATOM
M  V30 1 C 7.527517 -3.204884 3.265247 0
M  V30 2 C 6.783707 -2.127708 3.984848 0
M  V30 3 C 7.134438 -1.612295 5.217417 0
M  V30 4 N 6.357481 -0.636291 5.740268 0
M  V30 5 C 5.278025 -0.186772 5.074146 0
M  V30 6 C 4.902903 -0.679790 3.845333 0
M  V30 7 C 3.748797 -0.239236 3.071943 0
M  V30 8 C 3.540075 -0.859410 1.857148 0
M  V30 9 C 2.446657 -0.480041 1.066709 0
M  V30 10 C 1.582062 0.506376 1.496051 0
M  V30 11 C 0.478401 0.815665 0.585153 0
M  V30 12 C 0.644107 1.788401 -0.379058 0
M  V30 13 C -0.413250 2.058464 -1.223673 0
M  V30 14 C -0.380298 3.010748 -2.230479 0
M  V30 15 N -1.455512 3.234445 -3.029756 0
M  V30 16 C -2.577287 2.538950 -2.864883 0
M  V30 17 N -2.622052 1.616529 -1.896502 0
M  V30 18 C -1.590142 1.353206 -1.077316 0
M  V30 19 N -1.788813 0.398090 -0.149649 0
M  V30 20 C -2.960011 -0.381999 0.069839 0
M  V30 21 C -3.071957 -1.675675 -0.639658 0 CFG=1
M  V30 22 C -4.418864 -2.281120 -0.212446 0
M  V30 23 C -4.951303 -3.169861 -1.313494 0
M  V30 24 C -5.439796 -2.284485 -2.419091 0 CFG=2
M  V30 25 N -5.902419 -3.001792 -3.580410 0
M  V30 26 C -4.358522 -1.282747 -2.754884 0
M  V30 27 C -3.035278 -1.646101 -2.120361 0
M  V30 28 C -0.746067 0.153852 0.659700 0
M  V30 29 O -0.805417 -0.713759 1.566131 0
M  V30 30 C 1.811500 1.114073 2.717665 0
M  V30 31 Cl 0.680990 2.357398 3.207923 0
M  V30 32 C 2.886509 0.747329 3.504457 0
M  V30 33 N 5.681810 -1.649628 3.334398 0
M  V30 34 H 7.656379 -2.976365 2.178358 0
M  V30 35 H 8.527834 -3.265362 3.745113 0
M  V30 36 H 6.942884 -4.140054 3.358094 0
M  V30 37 H 8.011000 -2.047549 5.650367 0
M  V30 38 H 4.668220 0.594125 5.507450 0
M  V30 39 H 4.186402 -1.645127 1.461709 0
M  V30 40 H 2.306591 -0.987868 0.110556 0
M  V30 41 H 1.554527 2.351142 -0.511001 0
M  V30 42 H 0.573536 3.539272 -2.303185 0
M  V30 43 H -3.450337 2.704960 -3.496947 0
M  V30 44 H -3.061815 -0.611820 1.169811 0
M  V30 45 H -3.865271 0.214895 -0.168284 0
M  V30 46 H -2.338243 -2.452187 -0.272101 0
M  V30 47 H -4.323576 -2.809531 0.756313 0
M  V30 48 H -5.149611 -1.448266 -0.095825 0
M  V30 49 H -4.239922 -3.939829 -1.641253 0
M  V30 50 H -5.837470 -3.693208 -0.874766 0
M  V30 51 H -6.304422 -1.710682 -2.003716 0
M  V30 52 H -5.318058 -3.860850 -3.717460 0
M  V30 53 H -6.887501 -3.332989 -3.463640 0
M  V30 54 H -4.215242 -1.314356 -3.854776 0
M  V30 55 H -4.619148 -0.259993 -2.433038 0
M  V30 56 H -2.838140 -2.706829 -2.460951 0
M  V30 57 H -2.250170 -1.052927 -2.580914 0
M  V30 58 H 3.048171 1.233618 4.454637 0
M  V30 END ATOM
M  V30 BEGIN BOND
M  V30 1 1 1 2
M  V30 2 2 2 3
M  V30 3 1 3 4
M  V30 4 2 4 5
M  V30 5 1 5 6
M  V30 6 1 6 7
M  V30 7 2 7 8
M  V30 8 1 8 9
M  V30 9 2 9 10
M  V30 10 1 10 11
M  V30 11 2 11 12
M  V30 12 1 12 13
M  V30 13 2 13 14
M  V30 14 1 14 15
M  V30 15 2 15 16
M  V30 16 1 16 17
M  V30 17 2 17 18
M  V30 18 1 18 19
M  V30 19 1 19 20
M  V30 20 1 20 21
M  V30 21 1 21 22
M  V30 22 1 22 23
M  V30 23 1 23 24
M  V30 24 1 24 25
M  V30 25 1 24 26
M  V30 26 1 26 27
M  V30 27 1 19 28
M  V30 28 2 28 29
M  V30 29 1 10 30
M  V30 30 1 30 31
M  V30 31 2 30 32
M  V30 32 2 6 33
M  V30 33 1 33 2
M  V30 34 1 32 7
M  V30 35 1 28 11
M  V30 36 1 18 13
M  V30 37 1 27 21
M  V30 38 1 1 34
M  V30 39 1 1 35
M  V30 40 1 1 36
M  V30 41 1 3 37
M  V30 42 1 5 38
M  V30 43 1 8 39
M  V30 44 1 9 40
M  V30 45 1 12 41
M  V30 46 1 14 42
M  V30 47 1 16 43
M  V30 48 1 20 44
M  V30 49 1 20 45
M  V30 50 1 21 46 CFG=1
M  V30 51 1 22 47
M  V30 52 1 22 48
M  V30 53 1 23 49
M  V30 54 1 23 50
M  V30 55 1 24 51 CFG=1
M  V30 56 1 25 52
M  V30 57 1 25 53
M  V30 58 1 26 54
M  V30 59 1 26 55
M  V30 60 1 27 56
M  V30 61 1 27 57
M  V30 62 1 32 58
M  V30 END BOND
M  V30 END CTAB
M  END
>  <Dataset>  (606) 
ChEMBL_Kinases

>  <Ligand_Instance>  (606) 
nan

>  <PDB_ID>  (606) 
nan

>  <Standardized_SMILES>  (606) 
Cc1cncc(-c2ccc(-c3cc4cncnc4n(C[C@H]4CC[C@H](N)CC4)c3=O)c(Cl)c2)n1

>  <Name>  (606) 
nan

>  <Pocket>  (606) 
nan

>  <ATP_Site>  (606) 
nan

>  <Peripheral>  (606) 
nan

>  <Num_H_Atoms_ProtBoundConf>  (606) 
nan

>  <Num_Resolved_Atoms>  (606) 
nan

>  <Num_Not_Resolved_Atoms>  (606) 
nan

$$$$
CHEMBL4086890
     RDKit          3D

  0  0  0  0  0  0  0  0  0  0999 V3000
M  V30 BEGIN CTAB
M  V30 COUNTS 50 54 0 0 0
M  V30 BEGIN ATOM
M  V30 1 C -0.949571 -3.198689 -3.953366 0
M  V30 2 C -0.004393 -2.793233 -2.882846 0
M  V30 3 C -0.386230 -3.023651 -1.585359 0
M  V30 4 C 0.443292 -2.671768 -0.551443 0
M  V30 5 C 1.679837 -2.082212 -0.693333 0
M  V30 6 C 2.692367 -1.629006 0.282127 0 CFG=2
M  V30 7 C 2.628130 -2.221299 1.650965 0
M  V30 8 N 3.129497 -0.266678 0.158505 0
M  V30 9 N 4.316280 0.058939 -0.404958 0
M  V30 10 N 4.553816 1.333810 -0.433959 0
M  V30 11 C 3.510738 1.966414 0.124883 0
M  V30 12 C 3.284142 3.305523 0.330454 0
M  V30 13 N 2.125994 3.640985 0.926297 0
M  V30 14 C 1.256453 2.663807 1.287668 0
M  V30 15 C 0.096698 3.086572 1.889198 0
M  V30 16 C -0.790893 2.102290 2.257669 0
M  V30 17 C -0.580249 0.731043 2.057322 0
M  V30 18 C -1.659609 -0.144016 2.526957 0
M  V30 19 C -1.364704 -1.411327 2.984026 0
M  V30 20 C -2.392529 -2.223666 3.422193 0
M  V30 21 N -3.663046 -1.785430 3.403567 0
M  V30 22 C -3.954392 -0.559979 2.962330 0
M  V30 23 C -5.378204 -0.081048 2.946272 0
M  V30 24 C -2.949773 0.285635 2.513993 0
M  V30 25 C 0.609395 0.397489 1.447336 0
M  V30 26 C 1.508552 1.347729 1.071056 0
M  V30 27 C 2.665702 0.933603 0.470494 0
M  V30 28 C 2.015725 -1.871649 -2.040965 0
M  V30 29 C 1.218891 -2.206791 -3.109310 0
M  V30 30 H -1.879458 -2.594887 -3.770739 0
M  V30 31 H -0.546214 -2.834288 -4.930469 0
M  V30 32 H -1.142571 -4.282666 -3.976635 0
M  V30 33 H -1.319805 -3.477371 -1.255638 0
M  V30 34 H 0.195144 -2.831393 0.492152 0
M  V30 35 H 3.599447 -2.216088 -0.138617 0
M  V30 36 H 1.674818 -2.758823 1.884467 0
M  V30 37 H 3.403640 -2.973105 1.894715 0
M  V30 38 H 2.817300 -1.419047 2.426967 0
M  V30 39 H 4.008450 4.056143 0.025003 0
M  V30 40 H -0.092709 4.125776 2.055651 0
M  V30 41 H -1.702384 2.453413 2.732239 0
M  V30 42 H -0.341316 -1.741524 2.990236 0
M  V30 43 H -2.119273 -3.212638 3.773540 0
M  V30 44 H -5.373844 1.021456 3.085731 0
M  V30 45 H -5.845991 -0.264753 1.954209 0
M  V30 46 H -5.948304 -0.552734 3.764730 0
M  V30 47 H -3.256826 1.259334 2.172320 0
M  V30 48 H 0.606989 -0.651325 1.372484 0
M  V30 49 H 2.976150 -1.407579 -2.316256 0
M  V30 50 H 1.526365 -2.022736 -4.124599 0
M  V30 END ATOM
M  V30 BEGIN BOND
M  V30 1 1 1 2
M  V30 2 2 2 3
M  V30 3 1 3 4
M  V30 4 2 4 5
M  V30 5 1 5 6
M  V30 6 1 6 7
M  V30 7 1 6 8
M  V30 8 1 8 9
M  V30 9 2 9 10
M  V30 10 1 10 11
M  V30 11 2 11 12
M  V30 12 1 12 13
M  V30 13 2 13 14
M  V30 14 1 14 15
M  V30 15 2 15 16
M  V30 16 1 16 17
M  V30 17 1 17 18
M  V30 18 2 18 19
M  V30 19 1 19 20
M  V30 20 2 20 21
M  V30 21 1 21 22
M  V30 22 1 22 23
M  V30 23 2 22 24
M  V30 24 2 17 25
M  V30 25 1 25 26
M  V30 26 2 26 27
M  V30 27 1 5 28
M  V30 28 2 28 29
M  V30 29 1 29 2
M  V30 30 1 27 8
M  V30 31 1 27 11
M  V30 32 1 26 14
M  V30 33 1 24 18
M  V30 34 1 1 30
M  V30 35 1 1 31
M  V30 36 1 1 32
M  V30 37 1 3 33
M  V30 38 1 4 34
M  V30 39 1 6 35 CFG=3
M  V30 40 1 7 36
M  V30 41 1 7 37
M  V30 42 1 7 38
M  V30 43 1 12 39
M  V30 44 1 15 40
M  V30 45 1 16 41
M  V30 46 1 19 42
M  V30 47 1 20 43
M  V30 48 1 23 44
M  V30 49 1 23 45
M  V30 50 1 23 46
M  V30 51 1 24 47
M  V30 52 1 25 48
M  V30 53 1 28 49
M  V30 54 1 29 50
M  V30 END BOND
M  V30 END CTAB
M  END
>  <Dataset>  (607) 
ChEMBL_Kinases

>  <Ligand_Instance>  (607) 
nan

>  <PDB_ID>  (607) 
nan

>  <Standardized_SMILES>  (607) 
Cc1ccc([C@H](C)n2nnc3cnc4ccc(-c5ccnc(C)c5)cc4c32)cc1

>  <Name>  (607) 
nan

>  <Pocket>  (607) 
nan

>  <ATP_Site>  (607) 
nan

>  <Peripheral>  (607) 
nan

>  <Num_H_Atoms_ProtBoundConf>  (607) 
nan

>  <Num_Resolved_Atoms>  (607) 
nan

>  <Num_Not_Resolved_Atoms>  (607) 
nan

$$$$
CHEMBL3580964
     RDKit          3D

  0  0  0  0  0  0  0  0  0  0999 V3000
M  V30 BEGIN CTAB
M  V30 COUNTS 42 45 0 0 0
M  V30 BEGIN ATOM
M  V30 1 N 0.175956 -6.999973 -0.673900 0
M  V30 2 C 0.759355 -5.700819 -0.759615 0
M  V30 3 C 0.581698 -4.865782 0.346678 0
M  V30 4 C 1.170614 -3.619223 0.203230 0
M  V30 5 C 1.882875 -3.151582 -0.883116 0
M  V30 6 C 2.447109 -1.790691 -0.874385 0
M  V30 7 N 1.524818 -0.826970 -1.407745 0
M  V30 8 C 1.398968 0.557338 -1.684055 0
M  V30 9 N 1.743456 1.151874 -2.844865 0
M  V30 10 C 1.584778 2.495602 -3.017846 0
M  V30 11 C 1.065803 3.175470 -1.958375 0
M  V30 12 C 0.694978 2.630284 -0.750313 0
M  V30 13 N 0.160971 3.421616 0.299611 0
M  V30 14 C -0.229290 2.883587 1.555208 0
M  V30 15 C -0.182599 1.581630 2.002459 0
M  V30 16 C -0.666401 1.515565 3.296220 0
M  V30 17 C -0.776785 0.283738 4.123305 0
M  V30 18 C -0.820328 0.382728 5.601781 0
M  V30 19 C -2.099317 0.135324 4.903873 0
M  V30 20 N -0.993213 2.777689 3.598741 0
M  V30 21 N -0.739785 3.583985 2.583584 0
M  V30 22 N 0.902452 1.310483 -0.715372 0
M  V30 23 C 2.005374 -4.058774 -1.936832 0
M  V30 24 N 1.445815 -5.288615 -1.840400 0
M  V30 25 H -0.858501 -6.948257 -0.541590 0
M  V30 26 H 0.617427 -7.944714 -0.722655 0
M  V30 27 H 0.048958 -5.124825 1.238885 0
M  V30 28 H 1.057530 -2.933427 1.042781 0
M  V30 29 H 3.436756 -1.803545 -1.358746 0
M  V30 30 H 2.593170 -1.501024 0.206053 0
M  V30 31 H 0.574171 -1.162682 -1.741540 0
M  V30 32 H 1.867575 2.950780 -3.956358 0
M  V30 33 H 0.957802 4.254951 -2.148255 0
M  V30 34 H 0.058072 4.442735 0.122005 0
M  V30 35 H 0.168210 0.725451 1.459701 0
M  V30 36 H -0.431227 -0.638340 3.621559 0
M  V30 37 H -0.387849 -0.522896 6.116442 0
M  V30 38 H -0.638641 1.377452 6.031870 0
M  V30 39 H -2.816322 0.961950 4.878456 0
M  V30 40 H -2.585791 -0.867959 4.899453 0
M  V30 41 H -1.393051 3.072524 4.515144 0
M  V30 42 H 2.559300 -3.715201 -2.799360 0
M  V30 END ATOM
M  V30 BEGIN BOND
M  V30 1 1 1 2
M  V30 2 2 2 3
M  V30 3 1 3 4
M  V30 4 2 4 5
M  V30 5 1 5 6
M  V30 6 1 6 7
M  V30 7 1 7 8
M  V30 8 2 8 9
M  V30 9 1 9 10
M  V30 10 2 10 11
M  V30 11 1 11 12
M  V30 12 1 12 13
M  V30 13 1 13 14
M  V30 14 1 14 15
M  V30 15 2 15 16
M  V30 16 1 16 17
M  V30 17 1 17 18
M  V30 18 1 18 19
M  V30 19 1 16 20
M  V30 20 1 20 21
M  V30 21 2 12 22
M  V30 22 1 5 23
M  V30 23 2 23 24
M  V30 24 1 24 2
M  V30 25 1 22 8
M  V30 26 2 21 14
M  V30 27 1 19 17
M  V30 28 1 1 25
M  V30 29 1 1 26
M  V30 30 1 3 27
M  V30 31 1 4 28
M  V30 32 1 6 29
M  V30 33 1 6 30
M  V30 34 1 7 31
M  V30 35 1 10 32
M  V30 36 1 11 33
M  V30 37 1 13 34
M  V30 38 1 15 35
M  V30 39 1 17 36
M  V30 40 1 18 37
M  V30 41 1 18 38
M  V30 42 1 19 39
M  V30 43 1 19 40
M  V30 44 1 20 41
M  V30 45 1 23 42
M  V30 END BOND
M  V30 END CTAB
M  END
>  <Dataset>  (608) 
ChEMBL_Kinases

>  <Ligand_Instance>  (608) 
nan

>  <PDB_ID>  (608) 
nan

>  <Standardized_SMILES>  (608) 
Nc1ccc(CNc2nccc(Nc3cc(C4CC4)[nH]n3)n2)cn1

>  <Name>  (608) 
nan

>  <Pocket>  (608) 
nan

>  <ATP_Site>  (608) 
nan

>  <Peripheral>  (608) 
nan

>  <Num_H_Atoms_ProtBoundConf>  (608) 
nan

>  <Num_Resolved_Atoms>  (608) 
nan

>  <Num_Not_Resolved_Atoms>  (608) 
nan

$$$$
CHEMBL3580965
     RDKit          3D

  0  0  0  0  0  0  0  0  0  0999 V3000
M  V30 BEGIN CTAB
M  V30 COUNTS 45 48 0 0 0
M  V30 BEGIN ATOM
M  V30 1 C 0.694047 -5.135118 2.170923 0
M  V30 2 N 0.646820 -3.683735 2.122844 0
M  V30 3 C 0.731976 -2.967662 0.889072 0
M  V30 4 C 1.990507 -2.613145 0.444540 0
M  V30 5 C 2.023446 -1.914023 -0.764914 0
M  V30 6 C 0.848054 -1.610455 -1.451445 0
M  V30 7 C 1.133404 -0.871300 -2.692716 0
M  V30 8 N 1.164419 0.551693 -2.535871 0
M  V30 9 C 2.027371 1.286466 -1.673873 0
M  V30 10 N 3.261493 1.738600 -1.984940 0
M  V30 11 C 3.920991 2.424201 -1.030800 0
M  V30 12 C 3.320504 2.630279 0.195569 0
M  V30 13 C 2.074198 2.173518 0.508298 0
M  V30 14 N 1.448000 2.404596 1.785668 0
M  V30 15 C 0.157755 1.862294 2.045985 0
M  V30 16 C -0.317971 0.736145 2.682129 0
M  V30 17 C -1.691943 0.739215 2.601182 0
M  V30 18 C -2.598219 -0.300272 3.171122 0
M  V30 19 C -3.512681 -0.902870 2.153570 0
M  V30 20 C -4.051613 -0.083004 3.279497 0
M  V30 21 N -2.034789 1.858217 1.921838 0
M  V30 22 N -0.929911 2.521372 1.595196 0
M  V30 23 N 1.441233 1.489906 -0.471215 0
M  V30 24 C -0.376297 -2.000495 -0.940139 0
M  V30 25 N -0.425107 -2.677825 0.228887 0
M  V30 26 H -0.340138 -5.512540 2.359191 0
M  V30 27 H 1.006567 -5.493297 1.170292 0
M  V30 28 H 1.394373 -5.481917 2.950673 0
M  V30 29 H 0.547174 -3.158329 3.027687 0
M  V30 30 H 2.877737 -2.860414 0.993969 0
M  V30 31 H 3.041777 -1.654866 -1.078812 0
M  V30 32 H 0.266998 -1.088550 -3.369974 0
M  V30 33 H 2.011682 -1.270589 -3.236431 0
M  V30 34 H 0.535407 1.224744 -3.053720 0
M  V30 35 H 4.927235 2.812541 -1.234443 0
M  V30 36 H 3.886565 3.188500 0.938365 0
M  V30 37 H 1.981368 2.963090 2.457711 0
M  V30 38 H 0.353534 0.043566 3.129450 0
M  V30 39 H -2.070733 -1.018334 3.834948 0
M  V30 40 H -3.569769 -0.470634 1.140861 0
M  V30 41 H -3.626599 -2.011368 2.158380 0
M  V30 42 H -4.491853 0.927332 3.062368 0
M  V30 43 H -4.607801 -0.601240 4.089375 0
M  V30 44 H -3.038449 2.135356 1.700267 0
M  V30 45 H -1.201931 -1.702655 -1.570418 0
M  V30 END ATOM
M  V30 BEGIN BOND
M  V30 1 1 1 2
M  V30 2 1 2 3
M  V30 3 2 3 4
M  V30 4 1 4 5
M  V30 5 2 5 6
M  V30 6 1 6 7
M  V30 7 1 7 8
M  V30 8 1 8 9
M  V30 9 2 9 10
M  V30 10 1 10 11
M  V30 11 2 11 12
M  V30 12 1 12 13
M  V30 13 1 13 14
M  V30 14 1 14 15
M  V30 15 1 15 16
M  V30 16 2 16 17
M  V30 17 1 17 18
M  V30 18 1 18 19
M  V30 19 1 19 20
M  V30 20 1 17 21
M  V30 21 1 21 22
M  V30 22 2 13 23
M  V30 23 1 6 24
M  V30 24 2 24 25
M  V30 25 1 25 3
M  V30 26 1 23 9
M  V30 27 2 22 15
M  V30 28 1 20 18
M  V30 29 1 1 26
M  V30 30 1 1 27
M  V30 31 1 1 28
M  V30 32 1 2 29
M  V30 33 1 4 30
M  V30 34 1 5 31
M  V30 35 1 7 32
M  V30 36 1 7 33
M  V30 37 1 8 34
M  V30 38 1 11 35
M  V30 39 1 12 36
M  V30 40 1 14 37
M  V30 41 1 16 38
M  V30 42 1 18 39
M  V30 43 1 19 40
M  V30 44 1 19 41
M  V30 45 1 20 42
M  V30 46 1 20 43
M  V30 47 1 21 44
M  V30 48 1 24 45
M  V30 END BOND
M  V30 END CTAB
M  END
>  <Dataset>  (609) 
ChEMBL_Kinases

>  <Ligand_Instance>  (609) 
nan

>  <PDB_ID>  (609) 
nan

>  <Standardized_SMILES>  (609) 
CNc1ccc(CNc2nccc(Nc3cc(C4CC4)[nH]n3)n2)cn1

>  <Name>  (609) 
nan

>  <Pocket>  (609) 
nan

>  <ATP_Site>  (609) 
nan

>  <Peripheral>  (609) 
nan

>  <Num_H_Atoms_ProtBoundConf>  (609) 
nan

>  <Num_Resolved_Atoms>  (609) 
nan

>  <Num_Not_Resolved_Atoms>  (609) 
nan

$$$$
CHEMBL3580966
     RDKit          3D

  0  0  0  0  0  0  0  0  0  0999 V3000
M  V30 BEGIN CTAB
M  V30 COUNTS 48 51 0 0 0
M  V30 BEGIN ATOM
M  V30 1 C -1.690625 -3.811605 1.947977 0
M  V30 2 N -1.243881 -3.974337 0.556319 0
M  V30 3 C -2.106493 -4.737816 -0.324562 0
M  V30 4 C -0.017610 -3.398594 0.120444 0
M  V30 5 C 0.501508 -3.479970 -1.154076 0
M  V30 6 C 1.689326 -2.897111 -1.491366 0
M  V30 7 C 2.445181 -2.184358 -0.559405 0
M  V30 8 C 3.726338 -1.596196 -1.027254 0
M  V30 9 N 3.603654 -0.293310 -1.590521 0
M  V30 10 C 3.132684 0.891257 -0.969589 0
M  V30 11 N 3.071777 2.078447 -1.639047 0
M  V30 12 C 2.630276 3.206707 -1.060679 0
M  V30 13 C 2.215269 3.210625 0.250100 0
M  V30 14 C 2.268924 2.022722 0.942549 0
M  V30 15 N 1.836137 2.050699 2.297389 0
M  V30 16 C 0.439142 1.822895 2.536805 0
M  V30 17 C -0.520651 1.581781 1.548547 0
M  V30 18 C -1.712878 1.425570 2.256719 0
M  V30 19 C -3.053602 1.146770 1.656022 0
M  V30 20 C -4.267980 1.811068 2.248268 0
M  V30 21 C -4.040476 0.356425 2.406089 0
M  V30 22 N -1.492657 1.561211 3.568771 0
M  V30 23 N -0.213191 1.796202 3.718485 0
M  V30 24 N 2.718907 0.941068 0.303702 0
M  V30 25 C 1.894586 -2.124855 0.703256 0
M  V30 26 N 0.722072 -2.708329 1.008539 0
M  V30 27 H -0.822797 -3.995771 2.611886 0
M  V30 28 H -2.487270 -4.514158 2.189536 0
M  V30 29 H -1.962984 -2.744501 2.090523 0
M  V30 30 H -2.937622 -4.040115 -0.617920 0
M  V30 31 H -1.614539 -5.145186 -1.209387 0
M  V30 32 H -2.615167 -5.515193 0.292170 0
M  V30 33 H -0.059097 -4.019740 -1.883239 0
M  V30 34 H 2.050459 -2.992827 -2.508557 0
M  V30 35 H 4.458968 -1.552042 -0.183049 0
M  V30 36 H 4.149383 -2.320033 -1.736035 0
M  V30 37 H 3.901338 -0.187129 -2.607444 0
M  V30 38 H 2.622782 4.079761 -1.670398 0
M  V30 39 H 1.871486 4.151975 0.655128 0
M  V30 40 H 2.433445 2.220388 3.137039 0
M  V30 41 H -0.378786 1.526886 0.471502 0
M  V30 42 H -3.029688 1.062645 0.534672 0
M  V30 43 H -4.199840 2.457149 3.128851 0
M  V30 44 H -5.055443 2.130024 1.525340 0
M  V30 45 H -4.677101 -0.335497 1.814873 0
M  V30 46 H -3.743329 -0.052684 3.412968 0
M  V30 47 H -2.171038 1.500913 4.359377 0
M  V30 48 H 2.475130 -1.579046 1.433408 0
M  V30 END ATOM
M  V30 BEGIN BOND
M  V30 1 1 1 2
M  V30 2 1 2 3
M  V30 3 1 2 4
M  V30 4 2 4 5
M  V30 5 1 5 6
M  V30 6 2 6 7
M  V30 7 1 7 8
M  V30 8 1 8 9
M  V30 9 1 9 10
M  V30 10 2 10 11
M  V30 11 1 11 12
M  V30 12 2 12 13
M  V30 13 1 13 14
M  V30 14 1 14 15
M  V30 15 1 15 16
M  V30 16 1 16 17
M  V30 17 2 17 18
M  V30 18 1 18 19
M  V30 19 1 19 20
M  V30 20 1 20 21
M  V30 21 1 18 22
M  V30 22 1 22 23
M  V30 23 2 14 24
M  V30 24 1 7 25
M  V30 25 2 25 26
M  V30 26 1 26 4
M  V30 27 1 24 10
M  V30 28 2 23 16
M  V30 29 1 21 19
M  V30 30 1 1 27
M  V30 31 1 1 28
M  V30 32 1 1 29
M  V30 33 1 3 30
M  V30 34 1 3 31
M  V30 35 1 3 32
M  V30 36 1 5 33
M  V30 37 1 6 34
M  V30 38 1 8 35
M  V30 39 1 8 36
M  V30 40 1 9 37
M  V30 41 1 12 38
M  V30 42 1 13 39
M  V30 43 1 15 40
M  V30 44 1 17 41
M  V30 45 1 19 42
M  V30 46 1 20 43
M  V30 47 1 20 44
M  V30 48 1 21 45
M  V30 49 1 21 46
M  V30 50 1 22 47
M  V30 51 1 25 48
M  V30 END BOND
M  V30 END CTAB
M  END
>  <Dataset>  (610) 
ChEMBL_Kinases

>  <Ligand_Instance>  (610) 
nan

>  <PDB_ID>  (610) 
nan

>  <Standardized_SMILES>  (610) 
CN(C)c1ccc(CNc2nccc(Nc3cc(C4CC4)[nH]n3)n2)cn1

>  <Name>  (610) 
nan

>  <Pocket>  (610) 
nan

>  <ATP_Site>  (610) 
nan

>  <Peripheral>  (610) 
nan

>  <Num_H_Atoms_ProtBoundConf>  (610) 
nan

>  <Num_Resolved_Atoms>  (610) 
nan

>  <Num_Not_Resolved_Atoms>  (610) 
nan

$$$$
CHEMBL3580967
     RDKit          3D

  0  0  0  0  0  0  0  0  0  0999 V3000
M  V30 BEGIN CTAB
M  V30 COUNTS 45 49 0 0 0
M  V30 BEGIN ATOM
M  V30 1 C 1.485485 -3.790306 4.224131 0
M  V30 2 C 2.413248 -3.676225 3.218986 0
M  V30 3 C 2.295617 -2.556031 2.393515 0
M  V30 4 N 3.272653 -2.459858 1.357884 0
M  V30 5 C 3.400621 -1.356537 0.472449 0
M  V30 6 C 2.720518 -0.168105 0.436593 0
M  V30 7 C 3.126433 0.627683 -0.579832 0
M  V30 8 C 2.724570 1.964199 -1.045857 0
M  V30 9 C 2.680032 2.239256 -2.526975 0
M  V30 10 C 3.776229 2.861914 -1.641904 0
M  V30 11 N 4.097540 -0.094224 -1.198712 0
M  V30 12 N 4.234923 -1.243477 -0.565564 0
M  V30 13 N 1.335590 -1.632287 2.556696 0
M  V30 14 C 0.454495 -1.790225 3.553527 0
M  V30 15 N -0.620517 -0.854470 3.799638 0
M  V30 16 C -1.044096 0.246348 2.994793 0
M  V30 17 C -1.758142 -0.108531 1.746757 0
M  V30 18 C -1.291289 -0.384914 0.481103 0
M  V30 19 C -2.086238 -0.686237 -0.586415 0
M  V30 20 C -3.439760 -0.730553 -0.448780 0
M  V30 21 N -4.473429 -0.987818 -1.281353 0
M  V30 22 C -5.666480 -0.897415 -0.618400 0
M  V30 23 C -5.385212 -0.567920 0.695864 0
M  V30 24 C -4.012166 -0.471856 0.771598 0
M  V30 25 C -3.167258 -0.169379 1.834969 0
M  V30 26 N 0.539707 -2.856388 4.366596 0
M  V30 27 H 1.550519 -4.654866 4.886621 0
M  V30 28 H 3.191679 -4.424846 3.083503 0
M  V30 29 H 3.967328 -3.248108 1.208338 0
M  V30 30 H 1.941677 0.151382 1.125947 0
M  V30 31 H 1.971571 2.487481 -0.406321 0
M  V30 32 H 3.016562 1.423963 -3.206967 0
M  V30 33 H 1.942505 2.987466 -2.879924 0
M  V30 34 H 3.744473 3.962247 -1.470690 0
M  V30 35 H 4.815490 2.485421 -1.773714 0
M  V30 36 H 4.721206 0.078539 -2.034638 0
M  V30 37 H -1.175351 -1.006235 4.702632 0
M  V30 38 H -1.718621 0.893373 3.589660 0
M  V30 39 H -0.175984 0.945435 2.760857 0
M  V30 40 H -0.239093 -0.346316 0.394429 0
M  V30 41 H -1.605464 -0.884942 -1.534649 0
M  V30 42 H -4.352862 -1.223052 -2.299734 0
M  V30 43 H -6.638179 -1.065806 -1.099991 0
M  V30 44 H -6.088286 -0.420913 1.476865 0
M  V30 45 H -3.653409 0.030127 2.786616 0
M  V30 END ATOM
M  V30 BEGIN BOND
M  V30 1 2 1 2
M  V30 2 1 2 3
M  V30 3 1 3 4
M  V30 4 1 4 5
M  V30 5 1 5 6
M  V30 6 2 6 7
M  V30 7 1 7 8
M  V30 8 1 8 9
M  V30 9 1 9 10
M  V30 10 1 7 11
M  V30 11 1 11 12
M  V30 12 2 3 13
M  V30 13 1 13 14
M  V30 14 1 14 15
M  V30 15 1 15 16
M  V30 16 1 16 17
M  V30 17 2 17 18
M  V30 18 1 18 19
M  V30 19 2 19 20
M  V30 20 1 20 21
M  V30 21 1 21 22
M  V30 22 2 22 23
M  V30 23 1 23 24
M  V30 24 2 24 25
M  V30 25 2 14 26
M  V30 26 1 26 1
M  V30 27 2 12 5
M  V30 28 1 25 17
M  V30 29 1 10 8
M  V30 30 1 24 20
M  V30 31 1 1 27
M  V30 32 1 2 28
M  V30 33 1 4 29
M  V30 34 1 6 30
M  V30 35 1 8 31
M  V30 36 1 9 32
M  V30 37 1 9 33
M  V30 38 1 10 34
M  V30 39 1 10 35
M  V30 40 1 11 36
M  V30 41 1 15 37
M  V30 42 1 16 38
M  V30 43 1 16 39
M  V30 44 1 18 40
M  V30 45 1 19 41
M  V30 46 1 21 42
M  V30 47 1 22 43
M  V30 48 1 23 44
M  V30 49 1 25 45
M  V30 END BOND
M  V30 END CTAB
M  END
>  <Dataset>  (611) 
ChEMBL_Kinases

>  <Ligand_Instance>  (611) 
nan

>  <PDB_ID>  (611) 
nan

>  <Standardized_SMILES>  (611) 
c1cc(Nc2cc(C3CC3)[nH]n2)nc(NCc2ccc3[nH]ccc3c2)n1

>  <Name>  (611) 
nan

>  <Pocket>  (611) 
nan

>  <ATP_Site>  (611) 
nan

>  <Peripheral>  (611) 
nan

>  <Num_H_Atoms_ProtBoundConf>  (611) 
nan

>  <Num_Resolved_Atoms>  (611) 
nan

>  <Num_Not_Resolved_Atoms>  (611) 
nan

$$$$
CHEMBL3580968
     RDKit          3D

  0  0  0  0  0  0  0  0  0  0999 V3000
M  V30 BEGIN CTAB
M  V30 COUNTS 48 52 0 0 0
M  V30 BEGIN ATOM
M  V30 1 C -0.424240 -3.188440 3.134048 0
M  V30 2 C -0.451298 -3.114370 1.598868 0 CFG=2
M  V30 3 N 0.830661 -2.717392 1.056165 0
M  V30 4 C 1.341679 -2.460336 -0.254784 0
M  V30 5 N 1.512922 -3.453093 -1.151665 0
M  V30 6 C 2.032969 -3.034675 -2.350157 0
M  V30 7 C 2.349075 -1.718661 -2.608661 0
M  V30 8 C 2.163813 -0.742129 -1.683642 0
M  V30 9 N 2.449343 0.636652 -1.867483 0
M  V30 10 C 2.334971 1.591711 -0.820142 0
M  V30 11 C 2.019966 1.445376 0.513006 0
M  V30 12 C 2.037082 2.678501 1.176989 0
M  V30 13 C 1.732495 2.718562 2.656487 0
M  V30 14 C 2.694677 3.235290 3.616036 0
M  V30 15 C 2.684449 1.769144 3.404431 0
M  V30 16 N 2.364978 3.532003 0.193067 0
M  V30 17 N 2.535933 2.915230 -0.944664 0
M  V30 18 N 1.655891 -1.190655 -0.528219 0
M  V30 19 C -1.542658 -2.234235 1.160911 0
M  V30 20 C -1.534469 -0.866140 1.141671 0
M  V30 21 C -2.626623 -0.106226 0.721771 0
M  V30 22 C -3.748040 -0.783945 0.314956 0
M  V30 23 N -4.949914 -0.326023 -0.142978 0
M  V30 24 C -5.757251 -1.385686 -0.430877 0
M  V30 25 C -5.058604 -2.536582 -0.150979 0
M  V30 26 C -3.799440 -2.159838 0.317886 0
M  V30 27 C -2.698404 -2.871477 0.740789 0
M  V30 28 H 0.634622 -3.317574 3.458452 0
M  V30 29 H -0.852657 -2.226883 3.531203 0
M  V30 30 H -1.092522 -4.012064 3.429488 0
M  V30 31 H -0.598887 -4.166905 1.193083 0
M  V30 32 H 1.649074 -2.555325 1.706989 0
M  V30 33 H 2.188024 -3.806440 -3.093969 0
M  V30 34 H 2.757179 -1.434903 -3.572628 0
M  V30 35 H 2.753192 0.942280 -2.814686 0
M  V30 36 H 1.787294 0.492787 0.996027 0
M  V30 37 H 0.660145 2.545359 2.945857 0
M  V30 38 H 2.314286 3.549088 4.605094 0
M  V30 39 H 3.589565 3.817421 3.304514 0
M  V30 40 H 2.229491 1.048690 4.095547 0
M  V30 41 H 3.558866 1.358626 2.855094 0
M  V30 42 H 2.440534 4.535346 0.466263 0
M  V30 43 H -0.619086 -0.362580 1.476628 0
M  V30 44 H -2.581001 0.971840 0.719062 0
M  V30 45 H -5.265104 0.674044 -0.269175 0
M  V30 46 H -6.784125 -1.322585 -0.815741 0
M  V30 47 H -5.397814 -3.579697 -0.262795 0
M  V30 48 H -2.777015 -3.950298 0.727589 0
M  V30 END ATOM
M  V30 BEGIN BOND
M  V30 1 1 1 2
M  V30 2 1 2 3
M  V30 3 1 3 4
M  V30 4 2 4 5
M  V30 5 1 5 6
M  V30 6 2 6 7
M  V30 7 1 7 8
M  V30 8 1 8 9
M  V30 9 1 9 10
M  V30 10 1 10 11
M  V30 11 2 11 12
M  V30 12 1 12 13
M  V30 13 1 13 14
M  V30 14 1 14 15
M  V30 15 1 12 16
M  V30 16 1 16 17
M  V30 17 2 8 18
M  V30 18 1 2 19
M  V30 19 2 19 20
M  V30 20 1 20 21
M  V30 21 2 21 22
M  V30 22 1 22 23
M  V30 23 1 23 24
M  V30 24 2 24 25
M  V30 25 1 25 26
M  V30 26 2 26 27
M  V30 27 1 18 4
M  V30 28 1 27 19
M  V30 29 2 17 10
M  V30 30 1 26 22
M  V30 31 1 15 13
M  V30 32 1 1 28
M  V30 33 1 1 29
M  V30 34 1 1 30
M  V30 35 1 2 31 CFG=3
M  V30 36 1 3 32
M  V30 37 1 6 33
M  V30 38 1 7 34
M  V30 39 1 9 35
M  V30 40 1 11 36
M  V30 41 1 13 37
M  V30 42 1 14 38
M  V30 43 1 14 39
M  V30 44 1 15 40
M  V30 45 1 15 41
M  V30 46 1 16 42
M  V30 47 1 20 43
M  V30 48 1 21 44
M  V30 49 1 23 45
M  V30 50 1 24 46
M  V30 51 1 25 47
M  V30 52 1 27 48
M  V30 END BOND
M  V30 END CTAB
M  END
>  <Dataset>  (612) 
ChEMBL_Kinases

>  <Ligand_Instance>  (612) 
nan

>  <PDB_ID>  (612) 
nan

>  <Standardized_SMILES>  (612) 
C[C@H](Nc1nccc(Nc2cc(C3CC3)[nH]n2)n1)c1ccc2[nH]ccc2c1

>  <Name>  (612) 
nan

>  <Pocket>  (612) 
nan

>  <ATP_Site>  (612) 
nan

>  <Peripheral>  (612) 
nan

>  <Num_H_Atoms_ProtBoundConf>  (612) 
nan

>  <Num_Resolved_Atoms>  (612) 
nan

>  <Num_Not_Resolved_Atoms>  (612) 
nan

$$$$
CHEMBL3580969
     RDKit          3D

  0  0  0  0  0  0  0  0  0  0999 V3000
M  V30 BEGIN CTAB
M  V30 COUNTS 44 48 0 0 0
M  V30 BEGIN ATOM
M  V30 1 C 0.933861 -2.874879 3.003964 0
M  V30 2 C 2.150231 -2.628795 2.378848 0
M  V30 3 C 2.627247 -1.321148 2.244120 0
M  V30 4 N 3.892425 -1.166035 1.567659 0
M  V30 5 C 3.879934 -0.584548 0.251494 0
M  V30 6 C 2.743209 -0.130001 -0.433293 0
M  V30 7 C 3.226792 0.358299 -1.646421 0
M  V30 8 C 2.266255 0.934457 -2.659772 0
M  V30 9 C 1.790478 2.326479 -2.358195 0
M  V30 10 C 2.754712 2.055161 -3.476377 0
M  V30 11 N 4.578310 0.200466 -1.680069 0
M  V30 12 N 4.964119 -0.357223 -0.558075 0
M  V30 13 N 1.856118 -0.320433 2.745911 0
M  V30 14 C 0.679945 -0.611873 3.343821 0
M  V30 15 N 0.045355 0.604631 3.789635 0
M  V30 16 C -0.651467 1.038167 2.564793 0
M  V30 17 C -1.623402 0.054349 2.086648 0
M  V30 18 C -1.301139 -0.963097 1.210657 0
M  V30 19 C -2.162113 -1.902565 0.722623 0
M  V30 20 C -3.488053 -1.868895 1.117263 0
M  V30 21 N -4.514661 -2.667073 0.789169 0
M  V30 22 C -5.567728 -2.178516 1.461382 0
M  V30 23 N -5.191828 -1.118570 2.174889 0
M  V30 24 C -3.876015 -0.871133 1.997833 0
M  V30 25 C -2.949624 0.053592 2.455183 0
M  V30 26 N 0.175891 -1.859106 3.499305 0
M  V30 27 H 0.617109 -3.908568 3.082504 0
M  V30 28 H 2.717993 -3.464145 2.004196 0
M  V30 29 H 4.837731 -1.443031 1.945472 0
M  V30 30 H 1.722023 -0.166131 -0.056159 0
M  V30 31 H 1.507884 0.243246 -3.077723 0
M  V30 32 H 0.755177 2.569556 -2.650116 0
M  V30 33 H 2.137878 2.822714 -1.423193 0
M  V30 34 H 3.779033 2.447190 -3.281501 0
M  V30 35 H 2.419517 2.192867 -4.528760 0
M  V30 36 H 5.152815 0.508332 -2.524796 0
M  V30 37 H -0.000989 1.141727 4.676527 0
M  V30 38 H -1.171997 1.984613 2.843329 0
M  V30 39 H 0.106708 1.317698 1.779098 0
M  V30 40 H -0.287536 -1.064516 0.851560 0
M  V30 41 H -1.844529 -2.693128 0.025192 0
M  V30 42 H -4.461585 -3.502196 0.130093 0
M  V30 43 H -6.538974 -2.676216 1.347232 0
M  V30 44 H -3.289224 0.817458 3.141638 0
M  V30 END ATOM
M  V30 BEGIN BOND
M  V30 1 2 1 2
M  V30 2 1 2 3
M  V30 3 1 3 4
M  V30 4 1 4 5
M  V30 5 1 5 6
M  V30 6 2 6 7
M  V30 7 1 7 8
M  V30 8 1 8 9
M  V30 9 1 9 10
M  V30 10 1 7 11
M  V30 11 1 11 12
M  V30 12 2 3 13
M  V30 13 1 13 14
M  V30 14 1 14 15
M  V30 15 1 15 16
M  V30 16 1 16 17
M  V30 17 2 17 18
M  V30 18 1 18 19
M  V30 19 2 19 20
M  V30 20 1 20 21
M  V30 21 1 21 22
M  V30 22 2 22 23
M  V30 23 1 23 24
M  V30 24 2 24 25
M  V30 25 2 14 26
M  V30 26 1 26 1
M  V30 27 2 12 5
M  V30 28 1 25 17
M  V30 29 1 10 8
M  V30 30 1 24 20
M  V30 31 1 1 27
M  V30 32 1 2 28
M  V30 33 1 4 29
M  V30 34 1 6 30
M  V30 35 1 8 31
M  V30 36 1 9 32
M  V30 37 1 9 33
M  V30 38 1 10 34
M  V30 39 1 10 35
M  V30 40 1 11 36
M  V30 41 1 15 37
M  V30 42 1 16 38
M  V30 43 1 16 39
M  V30 44 1 18 40
M  V30 45 1 19 41
M  V30 46 1 21 42
M  V30 47 1 22 43
M  V30 48 1 25 44
M  V30 END BOND
M  V30 END CTAB
M  END
>  <Dataset>  (613) 
ChEMBL_Kinases

>  <Ligand_Instance>  (613) 
nan

>  <PDB_ID>  (613) 
nan

>  <Standardized_SMILES>  (613) 
c1cc(Nc2cc(C3CC3)[nH]n2)nc(NCc2ccc3[nH]cnc3c2)n1

>  <Name>  (613) 
nan

>  <Pocket>  (613) 
nan

>  <ATP_Site>  (613) 
nan

>  <Peripheral>  (613) 
nan

>  <Num_H_Atoms_ProtBoundConf>  (613) 
nan

>  <Num_Resolved_Atoms>  (613) 
nan

>  <Num_Not_Resolved_Atoms>  (613) 
nan

$$$$
CHEMBL3580970
     RDKit          3D

  0  0  0  0  0  0  0  0  0  0999 V3000
M  V30 BEGIN CTAB
M  V30 COUNTS 47 51 0 0 0
M  V30 BEGIN ATOM
M  V30 1 C -3.684728 -2.401615 -1.142024 0
M  V30 2 N -2.414234 -2.731563 -1.771200 0
M  V30 3 C -2.137151 -3.659221 -2.709297 0
M  V30 4 N -0.832398 -3.638951 -3.019801 0
M  V30 5 C -0.223351 -2.706472 -2.301042 0
M  V30 6 C 1.046283 -2.172008 -2.123145 0
M  V30 7 C 1.345082 -1.136568 -1.231099 0
M  V30 8 C 2.807801 -0.782838 -1.276435 0
M  V30 9 N 3.600080 -1.553959 -0.372927 0
M  V30 10 C 3.533730 -1.584540 1.025110 0
M  V30 11 N 4.328809 -2.428299 1.747474 0
M  V30 12 C 4.293654 -2.474760 3.078585 0
M  V30 13 C 3.464403 -1.685496 3.807210 0
M  V30 14 C 2.648395 -0.820123 3.086488 0
M  V30 15 N 1.766154 0.030504 3.797837 0
M  V30 16 C 0.831399 1.029924 3.414393 0
M  V30 17 C -0.498339 1.178635 3.086681 0
M  V30 18 C -0.714529 2.511534 2.808782 0
M  V30 19 C -2.060645 3.019203 2.415591 0
M  V30 20 C -3.249024 2.210667 2.702668 0
M  V30 21 C -2.802651 2.257526 1.295345 0
M  V30 22 N 0.461697 3.141490 2.967792 0
M  V30 23 N 1.375583 2.278484 3.323637 0
M  V30 24 N 2.721058 -0.812001 1.754619 0
M  V30 25 C 0.321276 -0.605793 -0.475655 0
M  V30 26 C -0.937637 -1.135929 -0.652162 0
M  V30 27 C -1.234706 -2.146321 -1.521440 0
M  V30 28 H -3.811980 -3.021081 -0.230323 0
M  V30 29 H -3.701556 -1.325278 -0.836836 0
M  V30 30 H -4.487259 -2.649563 -1.844893 0
M  V30 31 H -2.872828 -4.336554 -3.157712 0
M  V30 32 H 1.772935 -2.676027 -2.778456 0
M  V30 33 H 3.162982 -0.805208 -2.306687 0
M  V30 34 H 2.876298 0.304207 -0.971774 0
M  V30 35 H 4.325961 -2.178219 -0.840585 0
M  V30 36 H 4.950433 -3.167627 3.602621 0
M  V30 37 H 3.463611 -1.751379 4.886056 0
M  V30 38 H 1.727841 -0.023212 4.859932 0
M  V30 39 H -1.087402 0.281759 3.107086 0
M  V30 40 H -2.126385 4.117860 2.243794 0
M  V30 41 H -3.100772 1.351959 3.371738 0
M  V30 42 H -4.180023 2.782022 2.947897 0
M  V30 43 H -2.179899 1.490725 0.824605 0
M  V30 44 H -3.417371 2.817590 0.583696 0
M  V30 45 H 0.568202 4.173167 2.815088 0
M  V30 46 H 0.656939 0.176771 0.167764 0
M  V30 47 H -1.705650 -0.687691 -0.037398 0
M  V30 END ATOM
M  V30 BEGIN BOND
M  V30 1 1 1 2
M  V30 2 1 2 3
M  V30 3 2 3 4
M  V30 4 1 4 5
M  V30 5 2 5 6
M  V30 6 1 6 7
M  V30 7 1 7 8
M  V30 8 1 8 9
M  V30 9 1 9 10
M  V30 10 2 10 11
M  V30 11 1 11 12
M  V30 12 2 12 13
M  V30 13 1 13 14
M  V30 14 1 14 15
M  V30 15 1 15 16
M  V30 16 1 16 17
M  V30 17 2 17 18
M  V30 18 1 18 19
M  V30 19 1 19 20
M  V30 20 1 20 21
M  V30 21 1 18 22
M  V30 22 1 22 23
M  V30 23 2 14 24
M  V30 24 2 7 25
M  V30 25 1 25 26
M  V30 26 2 26 27
M  V30 27 1 27 2
M  V30 28 1 27 5
M  V30 29 1 24 10
M  V30 30 2 23 16
M  V30 31 1 21 19
M  V30 32 1 1 28
M  V30 33 1 1 29
M  V30 34 1 1 30
M  V30 35 1 3 31
M  V30 36 1 6 32
M  V30 37 1 8 33
M  V30 38 1 8 34
M  V30 39 1 9 35
M  V30 40 1 12 36
M  V30 41 1 13 37
M  V30 42 1 15 38
M  V30 43 1 17 39
M  V30 44 1 19 40
M  V30 45 1 20 41
M  V30 46 1 20 42
M  V30 47 1 21 43
M  V30 48 1 21 44
M  V30 49 1 22 45
M  V30 50 1 25 46
M  V30 51 1 26 47
M  V30 END BOND
M  V30 END CTAB
M  END
>  <Dataset>  (614) 
ChEMBL_Kinases

>  <Ligand_Instance>  (614) 
nan

>  <PDB_ID>  (614) 
nan

>  <Standardized_SMILES>  (614) 
Cn1cnc2cc(CNc3nccc(Nc4cc(C5CC5)[nH]n4)n3)ccc21

>  <Name>  (614) 
nan

>  <Pocket>  (614) 
nan

>  <ATP_Site>  (614) 
nan

>  <Peripheral>  (614) 
nan

>  <Num_H_Atoms_ProtBoundConf>  (614) 
nan

>  <Num_Resolved_Atoms>  (614) 
nan

>  <Num_Not_Resolved_Atoms>  (614) 
nan

$$$$
CHEMBL3580971
     RDKit          3D

  0  0  0  0  0  0  0  0  0  0999 V3000
M  V30 BEGIN CTAB
M  V30 COUNTS 47 51 0 0 0
M  V30 BEGIN ATOM
M  V30 1 C 2.616293 -2.594712 2.942931 0
M  V30 2 N 2.452181 -3.147672 1.600421 0
M  V30 3 C 2.164255 -4.413447 1.284429 0
M  V30 4 N 2.063750 -4.530360 -0.074089 0
M  V30 5 C 2.295706 -3.318237 -0.572707 0
M  V30 6 C 2.334365 -2.834120 -1.886127 0
M  V30 7 C 2.620263 -1.491772 -2.088077 0
M  V30 8 C 2.874362 -0.581145 -1.078597 0
M  V30 9 C 3.177148 0.812800 -1.432292 0
M  V30 10 N 2.082264 1.753220 -1.393748 0
M  V30 11 C 1.322091 2.203019 -0.253257 0
M  V30 12 N 0.914410 3.497710 -0.056021 0
M  V30 13 C 0.225698 3.809753 1.054742 0
M  V30 14 C -0.111249 2.904424 2.037419 0
M  V30 15 C 0.323130 1.601379 1.790285 0
M  V30 16 N 0.057390 0.514077 2.665334 0
M  V30 17 C -1.007777 -0.242116 2.076451 0
M  V30 18 C -2.347853 0.083065 2.001891 0
M  V30 19 C -2.986908 -0.974178 1.356288 0
M  V30 20 C -4.455498 -0.965858 1.111737 0
M  V30 21 C -5.307021 -0.370746 2.257323 0
M  V30 22 C -5.189478 0.289597 0.921500 0
M  V30 23 N -2.027801 -1.888194 1.066877 0
M  V30 24 N -0.846811 -1.447032 1.499426 0
M  V30 25 N 1.003310 1.316290 0.679994 0
M  V30 26 C 2.822798 -1.113415 0.183551 0
M  V30 27 C 2.542709 -2.441685 0.458248 0
M  V30 28 H 3.336759 -3.150122 3.541571 0
M  V30 29 H 2.863711 -1.522306 2.900026 0
M  V30 30 H 1.578702 -2.625948 3.392597 0
M  V30 31 H 2.051424 -5.197008 2.034322 0
M  V30 32 H 2.147049 -3.511810 -2.690226 0
M  V30 33 H 2.629778 -1.192814 -3.130346 0
M  V30 34 H 3.967001 1.197248 -0.734173 0
M  V30 35 H 3.604698 0.876672 -2.479319 0
M  V30 36 H 1.687130 2.231785 -2.239326 0
M  V30 37 H -0.102517 4.829950 1.224291 0
M  V30 38 H -0.644227 3.078178 2.952240 0
M  V30 39 H 0.392880 0.129919 3.561664 0
M  V30 40 H -2.768143 0.993502 2.378074 0
M  V30 41 H -4.836510 -1.940176 0.747949 0
M  V30 42 H -6.209108 -0.918817 2.573093 0
M  V30 43 H -4.705000 0.038864 3.113730 0
M  V30 44 H -6.141604 0.327032 0.337042 0
M  V30 45 H -4.638449 1.240115 0.863793 0
M  V30 46 H -2.270577 -2.766778 0.579148 0
M  V30 47 H 3.035362 -0.492401 1.041511 0
M  V30 END ATOM
M  V30 BEGIN BOND
M  V30 1 1 1 2
M  V30 2 1 2 3
M  V30 3 2 3 4
M  V30 4 1 4 5
M  V30 5 2 5 6
M  V30 6 1 6 7
M  V30 7 2 7 8
M  V30 8 1 8 9
M  V30 9 1 9 10
M  V30 10 1 10 11
M  V30 11 2 11 12
M  V30 12 1 12 13
M  V30 13 2 13 14
M  V30 14 1 14 15
M  V30 15 1 15 16
M  V30 16 1 16 17
M  V30 17 1 17 18
M  V30 18 2 18 19
M  V30 19 1 19 20
M  V30 20 1 20 21
M  V30 21 1 21 22
M  V30 22 1 19 23
M  V30 23 1 23 24
M  V30 24 2 15 25
M  V30 25 1 8 26
M  V30 26 2 26 27
M  V30 27 1 27 2
M  V30 28 1 27 5
M  V30 29 1 25 11
M  V30 30 2 24 17
M  V30 31 1 22 20
M  V30 32 1 1 28
M  V30 33 1 1 29
M  V30 34 1 1 30
M  V30 35 1 3 31
M  V30 36 1 6 32
M  V30 37 1 7 33
M  V30 38 1 9 34
M  V30 39 1 9 35
M  V30 40 1 10 36
M  V30 41 1 13 37
M  V30 42 1 14 38
M  V30 43 1 16 39
M  V30 44 1 18 40
M  V30 45 1 20 41
M  V30 46 1 21 42
M  V30 47 1 21 43
M  V30 48 1 22 44
M  V30 49 1 22 45
M  V30 50 1 23 46
M  V30 51 1 26 47
M  V30 END BOND
M  V30 END CTAB
M  END
>  <Dataset>  (615) 
ChEMBL_Kinases

>  <Ligand_Instance>  (615) 
nan

>  <PDB_ID>  (615) 
nan

>  <Standardized_SMILES>  (615) 
Cn1cnc2ccc(CNc3nccc(Nc4cc(C5CC5)[nH]n4)n3)cc21

>  <Name>  (615) 
nan

>  <Pocket>  (615) 
nan

>  <ATP_Site>  (615) 
nan

>  <Peripheral>  (615) 
nan

>  <Num_H_Atoms_ProtBoundConf>  (615) 
nan

>  <Num_Resolved_Atoms>  (615) 
nan

>  <Num_Not_Resolved_Atoms>  (615) 
nan

$$$$
CHEMBL3580972
     RDKit          3D

  0  0  0  0  0  0  0  0  0  0999 V3000
M  V30 BEGIN CTAB
M  V30 COUNTS 47 51 0 0 0
M  V30 BEGIN ATOM
M  V30 1 C -1.759564 -2.791969 3.333530 0
M  V30 2 C -1.281098 -2.807691 1.880875 0 CFG=2
M  V30 3 N -0.276557 -1.806576 1.666863 0
M  V30 4 C 0.323524 -1.629649 0.384684 0
M  V30 5 N -0.049155 -2.402307 -0.635626 0
M  V30 6 C 0.534809 -2.218890 -1.852604 0
M  V30 7 C 1.490243 -1.230275 -1.956530 0
M  V30 8 C 1.896500 -0.421006 -0.934761 0
M  V30 9 N 2.889307 0.579918 -1.115189 0
M  V30 10 C 3.330967 1.435919 -0.068910 0
M  V30 11 C 2.937288 1.493806 1.250817 0
M  V30 12 C 3.635257 2.484443 1.910568 0
M  V30 13 C 3.596331 2.956223 3.319917 0
M  V30 14 C 3.955215 4.366334 3.601377 0
M  V30 15 C 4.932233 3.270245 3.934998 0
M  V30 16 N 4.441826 3.008652 0.970355 0
M  V30 17 N 4.260186 2.394930 -0.177850 0
M  V30 18 N 1.260804 -0.682976 0.219260 0
M  V30 19 C -2.432189 -2.599040 0.957141 0
M  V30 20 C -2.931866 -1.324750 0.789415 0
M  V30 21 C -4.005373 -1.092028 -0.064543 0
M  V30 22 C -4.597795 -2.121895 -0.764050 0
M  V30 23 N -5.610845 -2.254926 -1.639402 0
M  V30 24 C -5.759553 -3.545463 -2.018353 0
M  V30 25 N -4.804644 -4.236588 -1.354137 0
M  V30 26 C -4.085873 -3.396733 -0.586168 0
M  V30 27 C -3.020313 -3.635923 0.259853 0
M  V30 28 H -0.879592 -2.648466 3.991974 0
M  V30 29 H -2.397849 -1.885525 3.491937 0
M  V30 30 H -2.294440 -3.737969 3.525203 0
M  V30 31 H -0.785371 -3.787958 1.697230 0
M  V30 32 H 0.012861 -1.200840 2.475005 0
M  V30 33 H 0.231440 -2.846920 -2.680599 0
M  V30 34 H 1.905611 -1.148291 -2.955031 0
M  V30 35 H 3.299821 0.677356 -2.057696 0
M  V30 36 H 2.202183 0.877307 1.727066 0
M  V30 37 H 2.897962 2.461273 4.023171 0
M  V30 38 H 3.508108 4.821423 4.519918 0
M  V30 39 H 4.156283 5.058245 2.780806 0
M  V30 40 H 5.122984 2.991574 4.999992 0
M  V30 41 H 5.852261 3.311850 3.331785 0
M  V30 42 H 5.125706 3.791814 1.102409 0
M  V30 43 H -2.535713 -0.441788 1.295462 0
M  V30 44 H -4.415906 -0.094053 -0.212000 0
M  V30 45 H -6.149529 -1.403325 -1.923119 0
M  V30 46 H -6.522677 -3.889078 -2.725715 0
M  V30 47 H -2.613724 -4.642684 0.402271 0
M  V30 END ATOM
M  V30 BEGIN BOND
M  V30 1 1 1 2
M  V30 2 1 2 3
M  V30 3 1 3 4
M  V30 4 2 4 5
M  V30 5 1 5 6
M  V30 6 2 6 7
M  V30 7 1 7 8
M  V30 8 1 8 9
M  V30 9 1 9 10
M  V30 10 1 10 11
M  V30 11 2 11 12
M  V30 12 1 12 13
M  V30 13 1 13 14
M  V30 14 1 14 15
M  V30 15 1 12 16
M  V30 16 1 16 17
M  V30 17 2 8 18
M  V30 18 1 2 19
M  V30 19 2 19 20
M  V30 20 1 20 21
M  V30 21 2 21 22
M  V30 22 1 22 23
M  V30 23 1 23 24
M  V30 24 2 24 25
M  V30 25 1 25 26
M  V30 26 2 26 27
M  V30 27 1 18 4
M  V30 28 1 27 19
M  V30 29 2 17 10
M  V30 30 1 26 22
M  V30 31 1 15 13
M  V30 32 1 1 28
M  V30 33 1 1 29
M  V30 34 1 1 30
M  V30 35 1 2 31 CFG=3
M  V30 36 1 3 32
M  V30 37 1 6 33
M  V30 38 1 7 34
M  V30 39 1 9 35
M  V30 40 1 11 36
M  V30 41 1 13 37
M  V30 42 1 14 38
M  V30 43 1 14 39
M  V30 44 1 15 40
M  V30 45 1 15 41
M  V30 46 1 16 42
M  V30 47 1 20 43
M  V30 48 1 21 44
M  V30 49 1 23 45
M  V30 50 1 24 46
M  V30 51 1 27 47
M  V30 END BOND
M  V30 END CTAB
M  END
>  <Dataset>  (616) 
ChEMBL_Kinases

>  <Ligand_Instance>  (616) 
nan

>  <PDB_ID>  (616) 
nan

>  <Standardized_SMILES>  (616) 
C[C@H](Nc1nccc(Nc2cc(C3CC3)[nH]n2)n1)c1ccc2[nH]cnc2c1

>  <Name>  (616) 
nan

>  <Pocket>  (616) 
nan

>  <ATP_Site>  (616) 
nan

>  <Peripheral>  (616) 
nan

>  <Num_H_Atoms_ProtBoundConf>  (616) 
nan

>  <Num_Resolved_Atoms>  (616) 
nan

>  <Num_Not_Resolved_Atoms>  (616) 
nan

$$$$
CHEMBL3577874
     RDKit          3D

  0  0  0  0  0  0  0  0  0  0999 V3000
M  V30 BEGIN CTAB
M  V30 COUNTS 55 57 0 0 0
M  V30 BEGIN ATOM
M  V30 1 C 5.435163 -4.478650 1.574612 0
M  V30 2 C 3.975162 -4.156426 1.643208 0
M  V30 3 C 3.709100 -3.467274 2.983692 0
M  V30 4 N 3.503850 -3.333845 0.552090 0
M  V30 5 C 2.459398 -3.622958 -0.354798 0
M  V30 6 O 1.770424 -4.698234 -0.321343 0
M  V30 7 N 2.116378 -2.700136 -1.373513 0
M  V30 8 C 2.729475 -1.403013 -1.697490 0
M  V30 9 C 1.720204 -0.371780 -1.233674 0
M  V30 10 C 0.467247 -0.440177 -2.117151 0
M  V30 11 N -0.513272 0.457098 -1.558593 0
M  V30 12 C -1.112423 0.328676 -0.274224 0
M  V30 13 N -0.805307 -0.719600 0.524517 0
M  V30 14 C -1.328509 -0.890865 1.757985 0
M  V30 15 C -2.215612 0.116959 2.129177 0
M  V30 16 C -2.749619 -0.066746 3.409291 0
M  V30 17 C -3.632215 0.865286 3.879644 0
M  V30 18 C -3.897883 1.896708 3.025471 0
M  V30 19 O -4.721398 2.767323 3.474827 0
M  V30 20 N -3.449228 2.163535 1.801723 0
M  V30 21 C -3.684265 3.220134 0.875582 0
M  V30 22 C -4.934756 3.971403 1.259821 0
M  V30 23 C -3.811019 2.752765 -0.560279 0
M  V30 24 C -2.569036 1.208903 1.360627 0
M  V30 25 N -1.972845 1.246851 0.163884 0
M  V30 26 C -0.054802 -1.833356 -2.176431 0
M  V30 27 C 1.030918 -2.894002 -2.301134 0
M  V30 28 H 5.564098 -5.411222 0.993452 0
M  V30 29 H 5.899768 -4.614086 2.571575 0
M  V30 30 H 5.961504 -3.677532 1.005989 0
M  V30 31 H 3.408839 -5.114464 1.676829 0
M  V30 32 H 2.619912 -3.338768 3.147335 0
M  V30 33 H 4.104446 -4.144059 3.752224 0
M  V30 34 H 4.227255 -2.506949 3.060567 0
M  V30 35 H 4.081190 -2.465949 0.543718 0
M  V30 36 H 2.983210 -1.326669 -2.774440 0
M  V30 37 H 3.619926 -1.306476 -1.048098 0
M  V30 38 H 2.099048 0.667451 -1.254949 0
M  V30 39 H 1.406814 -0.712635 -0.227943 0
M  V30 40 H 0.758596 -0.108277 -3.135805 0
M  V30 41 H -0.811164 1.281380 -2.157516 0
M  V30 42 H -1.085169 -1.714569 2.376600 0
M  V30 43 H -2.488225 -0.914721 4.028457 0
M  V30 44 H -4.096555 0.812725 4.852201 0
M  V30 45 H -2.869617 3.976461 0.867925 0
M  V30 46 H -5.786965 3.341607 1.546326 0
M  V30 47 H -5.311008 4.581860 0.392740 0
M  V30 48 H -4.697849 4.629809 2.123778 0
M  V30 49 H -4.142267 1.696140 -0.646817 0
M  V30 50 H -4.636090 3.346252 -1.029906 0
M  V30 51 H -2.921116 2.973005 -1.152401 0
M  V30 52 H -0.686174 -2.147534 -1.348376 0
M  V30 53 H -0.687796 -1.934968 -3.095570 0
M  V30 54 H 1.423308 -2.843356 -3.321129 0
M  V30 55 H 0.542034 -3.883970 -2.087039 0
M  V30 END ATOM
M  V30 BEGIN BOND
M  V30 1 1 1 2
M  V30 2 1 2 3
M  V30 3 1 2 4
M  V30 4 1 4 5
M  V30 5 2 5 6
M  V30 6 1 5 7
M  V30 7 1 7 8
M  V30 8 1 8 9
M  V30 9 1 9 10
M  V30 10 1 10 11
M  V30 11 1 11 12
M  V30 12 2 12 13
M  V30 13 1 13 14
M  V30 14 2 14 15
M  V30 15 1 15 16
M  V30 16 2 16 17
M  V30 17 1 17 18
M  V30 18 2 18 19
M  V30 19 1 18 20
M  V30 20 1 20 21
M  V30 21 1 21 22
M  V30 22 1 21 23
M  V30 23 1 20 24
M  V30 24 2 24 25
M  V30 25 1 10 26
M  V30 26 1 26 27
M  V30 27 1 27 7
M  V30 28 1 25 12
M  V30 29 1 24 15
M  V30 30 1 1 28
M  V30 31 1 1 29
M  V30 32 1 1 30
M  V30 33 1 2 31
M  V30 34 1 3 32
M  V30 35 1 3 33
M  V30 36 1 3 34
M  V30 37 1 4 35
M  V30 38 1 8 36
M  V30 39 1 8 37
M  V30 40 1 9 38
M  V30 41 1 9 39
M  V30 42 1 10 40
M  V30 43 1 11 41
M  V30 44 1 14 42
M  V30 45 1 16 43
M  V30 46 1 17 44
M  V30 47 1 21 45
M  V30 48 1 22 46
M  V30 49 1 22 47
M  V30 50 1 22 48
M  V30 51 1 23 49
M  V30 52 1 23 50
M  V30 53 1 23 51
M  V30 54 1 26 52
M  V30 55 1 26 53
M  V30 56 1 27 54
M  V30 57 1 27 55
M  V30 END BOND
M  V30 END CTAB
M  END
>  <Dataset>  (617) 
ChEMBL_Kinases

>  <Ligand_Instance>  (617) 
nan

>  <PDB_ID>  (617) 
nan

>  <Standardized_SMILES>  (617) 
CC(C)NC(=O)N1CCC(Nc2ncc3ccc(=O)n(C(C)C)c3n2)CC1

>  <Name>  (617) 
nan

>  <Pocket>  (617) 
nan

>  <ATP_Site>  (617) 
nan

>  <Peripheral>  (617) 
nan

>  <Num_H_Atoms_ProtBoundConf>  (617) 
nan

>  <Num_Resolved_Atoms>  (617) 
nan

>  <Num_Not_Resolved_Atoms>  (617) 
nan

$$$$
CHEMBL3580974
     RDKit          3D

  0  0  0  0  0  0  0  0  0  0999 V3000
M  V30 BEGIN CTAB
M  V30 COUNTS 44 48 0 0 0
M  V30 BEGIN ATOM
M  V30 1 Cl -0.407343 -5.727964 -0.104596 0
M  V30 2 C -1.172050 -4.776508 1.136773 0
M  V30 3 C -0.399914 -3.852646 1.806787 0
M  V30 4 C 1.036852 -3.603136 1.572893 0
M  V30 5 N 1.326423 -2.863355 0.366037 0
M  V30 6 C 0.767402 -1.580548 0.133970 0
M  V30 7 N -0.102999 -1.000952 0.972293 0
M  V30 8 C -0.619310 0.213767 0.739964 0
M  V30 9 C -0.234202 0.888784 -0.413326 0
M  V30 10 C 0.660438 0.303570 -1.283850 0
M  V30 11 N 0.925879 1.151104 -2.389264 0
M  V30 12 C 1.684820 2.325152 -2.024845 0
M  V30 13 C 2.101979 2.640239 -0.726006 0
M  V30 14 C 2.804785 3.850502 -0.710992 0
M  V30 15 C 3.400208 4.522075 0.484142 0
M  V30 16 C 4.081005 3.611037 1.472921 0
M  V30 17 C 2.790186 4.242833 1.826731 0
M  V30 18 N 2.791547 4.227486 -1.999927 0
M  V30 19 N 2.150837 3.358698 -2.765297 0
M  V30 20 N 1.140949 -0.915316 -0.992941 0
M  V30 21 C -1.076801 -3.119806 2.789138 0
M  V30 22 C -2.408421 -3.246014 3.126293 0
M  V30 23 C -3.133450 -4.204798 2.405259 0
M  V30 24 N -4.441463 -4.543783 2.515605 0
M  V30 25 C -4.623754 -5.505024 1.599172 0
M  V30 26 N -3.481257 -5.761591 0.939304 0
M  V30 27 C -2.506850 -4.955715 1.421975 0
M  V30 28 H 1.422888 -2.989779 2.416981 0
M  V30 29 H 1.623790 -4.554707 1.576390 0
M  V30 30 H 1.957633 -3.295532 -0.339295 0
M  V30 31 H -1.327930 0.651489 1.451624 0
M  V30 32 H -0.699473 1.874324 -0.528166 0
M  V30 33 H 0.687247 1.102831 -3.415874 0
M  V30 34 H 1.956783 2.096632 0.194326 0
M  V30 35 H 3.833266 5.518826 0.281679 0
M  V30 36 H 4.111751 2.524301 1.325942 0
M  V30 37 H 5.023807 4.044555 1.885373 0
M  V30 38 H 1.902928 3.561747 1.886604 0
M  V30 39 H 2.749887 5.046544 2.602644 0
M  V30 40 H 3.242619 5.117643 -2.342502 0
M  V30 41 H -0.544093 -2.366588 3.373922 0
M  V30 42 H -2.869241 -2.651490 3.895671 0
M  V30 43 H -5.108419 -4.102835 3.199209 0
M  V30 44 H -5.621054 -5.926872 1.514846 0
M  V30 END ATOM
M  V30 BEGIN BOND
M  V30 1 1 1 2
M  V30 2 2 2 3
M  V30 3 1 3 4
M  V30 4 1 4 5
M  V30 5 1 5 6
M  V30 6 2 6 7
M  V30 7 1 7 8
M  V30 8 2 8 9
M  V30 9 1 9 10
M  V30 10 1 10 11
M  V30 11 1 11 12
M  V30 12 1 12 13
M  V30 13 2 13 14
M  V30 14 1 14 15
M  V30 15 1 15 16
M  V30 16 1 16 17
M  V30 17 1 14 18
M  V30 18 1 18 19
M  V30 19 2 10 20
M  V30 20 1 3 21
M  V30 21 2 21 22
M  V30 22 1 22 23
M  V30 23 1 23 24
M  V30 24 1 24 25
M  V30 25 2 25 26
M  V30 26 1 26 27
M  V30 27 1 27 2
M  V30 28 1 20 6
M  V30 29 2 27 23
M  V30 30 2 19 12
M  V30 31 1 17 15
M  V30 32 1 4 28
M  V30 33 1 4 29
M  V30 34 1 5 30
M  V30 35 1 8 31
M  V30 36 1 9 32
M  V30 37 1 11 33
M  V30 38 1 13 34
M  V30 39 1 15 35
M  V30 40 1 16 36
M  V30 41 1 16 37
M  V30 42 1 17 38
M  V30 43 1 17 39
M  V30 44 1 18 40
M  V30 45 1 21 41
M  V30 46 1 22 42
M  V30 47 1 24 43
M  V30 48 1 25 44
M  V30 END BOND
M  V30 END CTAB
M  END
>  <Dataset>  (618) 
ChEMBL_Kinases

>  <Ligand_Instance>  (618) 
nan

>  <PDB_ID>  (618) 
nan

>  <Standardized_SMILES>  (618) 
Clc1c(CNc2nccc(Nc3cc(C4CC4)[nH]n3)n2)ccc2[nH]cnc12

>  <Name>  (618) 
nan

>  <Pocket>  (618) 
nan

>  <ATP_Site>  (618) 
nan

>  <Peripheral>  (618) 
nan

>  <Num_H_Atoms_ProtBoundConf>  (618) 
nan

>  <Num_Resolved_Atoms>  (618) 
nan

>  <Num_Not_Resolved_Atoms>  (618) 
nan

$$$$
CHEMBL384103
     RDKit          3D

  0  0  0  0  0  0  0  0  0  0999 V3000
M  V30 BEGIN CTAB
M  V30 COUNTS 41 45 0 0 0
M  V30 BEGIN ATOM
M  V30 1 N 4.558270 -0.714868 -1.471749 0
M  V30 2 C 3.197131 -0.548854 -1.054479 0
M  V30 3 O 2.964375 -0.871324 0.122963 0
M  V30 4 C 2.292736 -0.033513 -2.054100 0
M  V30 5 C 2.649423 0.297406 -3.343984 0
M  V30 6 C 1.704515 0.783693 -4.223983 0
M  V30 7 C 0.405653 0.940105 -3.819278 0
M  V30 8 C 0.007426 0.622718 -2.543344 0
M  V30 9 C 0.969501 0.130324 -1.655957 0
M  V30 10 C 0.460352 -0.180001 -0.325439 0
M  V30 11 C 0.471584 0.800329 0.645113 0
M  V30 12 C -0.010923 0.504114 1.903800 0
M  V30 13 N -0.103105 1.280419 2.999753 0
M  V30 14 C -0.653200 0.483919 3.963503 0
M  V30 15 C -0.930669 0.868722 5.257494 0
M  V30 16 C -1.488761 -0.026334 6.145907 0
M  V30 17 C -1.761926 -1.324684 5.697190 0
M  V30 18 O -2.323996 -2.237210 6.580578 0
M  V30 19 C -1.453825 -1.626204 4.389510 0
M  V30 20 C -0.903321 -0.779419 3.476088 0
M  V30 21 C -0.494554 -0.755858 2.176226 0
M  V30 22 C -0.517633 -1.741084 1.239039 0
M  V30 23 C -0.038088 -1.451868 -0.017251 0
M  V30 24 C -0.127169 -2.612296 -0.920610 0
M  V30 25 O 0.228006 -2.666193 -2.126442 0
M  V30 26 N -0.707219 -3.628297 -0.085270 0
M  V30 27 C -0.937214 -3.097061 1.205385 0
M  V30 28 O -1.430231 -3.863964 2.014646 0
M  V30 29 H 5.329377 -0.001128 -1.410176 0
M  V30 30 H 5.005964 0.195577 -1.253025 0
M  V30 31 H 3.702422 0.156735 -3.628356 0
M  V30 32 H 2.047657 1.022401 -5.213784 0
M  V30 33 H -0.307290 1.321822 -4.529922 0
M  V30 34 H -1.035219 0.758629 -2.251105 0
M  V30 35 H 0.860809 1.791659 0.402560 0
M  V30 36 H 0.195532 2.273578 3.052508 0
M  V30 37 H -0.730299 1.856471 5.622992 0
M  V30 38 H -1.701799 0.286433 7.157235 0
M  V30 39 H -3.281297 -2.118321 6.824449 0
M  V30 40 H -1.689802 -2.627331 4.125634 0
M  V30 41 H -0.870355 -4.565291 -0.519236 0
M  V30 END ATOM
M  V30 BEGIN BOND
M  V30 1 1 1 2
M  V30 2 2 2 3
M  V30 3 1 2 4
M  V30 4 2 4 5
M  V30 5 1 5 6
M  V30 6 2 6 7
M  V30 7 1 7 8
M  V30 8 2 8 9
M  V30 9 1 9 10
M  V30 10 2 10 11
M  V30 11 1 11 12
M  V30 12 1 12 13
M  V30 13 1 13 14
M  V30 14 2 14 15
M  V30 15 1 15 16
M  V30 16 2 16 17
M  V30 17 1 17 18
M  V30 18 1 17 19
M  V30 19 2 19 20
M  V30 20 1 20 21
M  V30 21 1 21 22
M  V30 22 2 22 23
M  V30 23 1 23 24
M  V30 24 2 24 25
M  V30 25 1 24 26
M  V30 26 1 26 27
M  V30 27 2 27 28
M  V30 28 1 9 4
M  V30 29 1 23 10
M  V30 30 2 21 12
M  V30 31 1 27 22
M  V30 32 1 20 14
M  V30 33 1 1 29
M  V30 34 1 1 30
M  V30 35 1 5 31
M  V30 36 1 6 32
M  V30 37 1 7 33
M  V30 38 1 8 34
M  V30 39 1 11 35
M  V30 40 1 13 36
M  V30 41 1 15 37
M  V30 42 1 16 38
M  V30 43 1 18 39
M  V30 44 1 19 40
M  V30 45 1 26 41
M  V30 END BOND
M  V30 END CTAB
M  END
>  <Dataset>  (619) 
ChEMBL_Kinases

>  <Ligand_Instance>  (619) 
nan

>  <PDB_ID>  (619) 
nan

>  <Standardized_SMILES>  (619) 
NC(=O)c1ccccc1-c1cc2[nH]c3ccc(O)cc3c2c2c1C(=O)NC2=O

>  <Name>  (619) 
nan

>  <Pocket>  (619) 
nan

>  <ATP_Site>  (619) 
nan

>  <Peripheral>  (619) 
nan

>  <Num_H_Atoms_ProtBoundConf>  (619) 
nan

>  <Num_Resolved_Atoms>  (619) 
nan

>  <Num_Not_Resolved_Atoms>  (619) 
nan

$$$$
CHEMBL384219
     RDKit          3D

  0  0  0  0  0  0  0  0  0  0999 V3000
M  V30 BEGIN CTAB
M  V30 COUNTS 50 51 0 0 0
M  V30 BEGIN ATOM
M  V30 1 C 3.090467 -4.075849 5.064145 0
M  V30 2 S 4.002075 -4.516106 3.619403 0
M  V30 3 O 5.464376 -4.470655 3.969122 0
M  V30 4 O 3.703025 -5.978593 3.323566 0
M  V30 5 C 3.620642 -3.516929 2.241533 0
M  V30 6 C 2.595940 -3.935794 1.419536 0
M  V30 7 C 2.264187 -3.173808 0.319211 0
M  V30 8 C 2.910449 -1.979630 -0.026602 0
M  V30 9 C 2.418415 -1.295187 -1.250334 0
M  V30 10 N 1.338894 -0.408553 -0.835415 0
M  V30 11 C 1.457595 0.833874 -0.192550 0
M  V30 12 O 2.593577 1.294060 0.084550 0
M  V30 13 C 0.247609 1.605937 0.160830 0
M  V30 14 C 0.387622 2.823829 0.793595 0
M  V30 15 C -0.796940 3.460896 1.079654 0
M  V30 16 N -0.696957 4.732876 1.739064 0
M  V30 17 C -2.059895 2.947041 0.769985 0
M  V30 18 C -3.268372 3.657420 1.093892 0
M  V30 19 N -4.220807 4.227164 1.364740 0
M  V30 20 C -2.132234 1.714993 0.132377 0
M  V30 21 N -3.346892 1.104229 -0.221020 0
M  V30 22 C -3.450258 -0.163134 -0.878601 0
M  V30 23 C -2.787597 -0.172356 -2.242148 0
M  V30 24 O -2.949020 -1.450723 -2.790864 0
M  V30 25 C -4.885950 -0.572576 -1.065379 0
M  V30 26 O -4.981781 -1.811736 -1.708735 0
M  V30 27 N -0.961361 1.109967 -0.137921 0
M  V30 28 C 3.918666 -1.598880 0.811000 0
M  V30 29 C 4.269141 -2.343934 1.917768 0
M  V30 30 H 3.594132 -3.297764 5.687590 0
M  V30 31 H 2.037472 -3.815195 4.841107 0
M  V30 32 H 3.030452 -4.990815 5.712764 0
M  V30 33 H 2.058855 -4.847519 1.632127 0
M  V30 34 H 1.448805 -3.550809 -0.295078 0
M  V30 35 H 3.226904 -0.735836 -1.765835 0
M  V30 36 H 2.039245 -2.059550 -1.954663 0
M  V30 37 H 0.345605 -0.733326 -1.038946 0
M  V30 38 H 1.345052 3.244535 1.045454 0
M  V30 39 H -0.690914 5.047695 2.738897 0
M  V30 40 H -0.600575 5.677800 1.270263 0
M  V30 41 H -4.223706 1.618793 0.016912 0
M  V30 42 H -2.926772 -0.981249 -0.306250 0
M  V30 43 H -1.712290 -0.020503 -2.085398 0
M  V30 44 H -3.257933 0.592313 -2.908877 0
M  V30 45 H -2.293116 -2.029482 -2.309402 0
M  V30 46 H -5.403352 -0.709772 -0.079402 0
M  V30 47 H -5.457140 0.157075 -1.647187 0
M  V30 48 H -4.898133 -2.557639 -1.050556 0
M  V30 49 H 4.422251 -0.681076 0.547814 0
M  V30 50 H 5.072060 -2.016954 2.563531 0
M  V30 END ATOM
M  V30 BEGIN BOND
M  V30 1 1 1 2
M  V30 2 2 2 3
M  V30 3 2 2 4
M  V30 4 1 2 5
M  V30 5 2 5 6
M  V30 6 1 6 7
M  V30 7 2 7 8
M  V30 8 1 8 9
M  V30 9 1 9 10
M  V30 10 1 10 11
M  V30 11 2 11 12
M  V30 12 1 11 13
M  V30 13 2 13 14
M  V30 14 1 14 15
M  V30 15 1 15 16
M  V30 16 2 15 17
M  V30 17 1 17 18
M  V30 18 3 18 19
M  V30 19 1 17 20
M  V30 20 1 20 21
M  V30 21 1 21 22
M  V30 22 1 22 23
M  V30 23 1 23 24
M  V30 24 1 22 25
M  V30 25 1 25 26
M  V30 26 2 20 27
M  V30 27 1 8 28
M  V30 28 2 28 29
M  V30 29 1 29 5
M  V30 30 1 27 13
M  V30 31 1 1 30
M  V30 32 1 1 31
M  V30 33 1 1 32
M  V30 34 1 6 33
M  V30 35 1 7 34
M  V30 36 1 9 35
M  V30 37 1 9 36
M  V30 38 1 10 37
M  V30 39 1 14 38
M  V30 40 1 16 39
M  V30 41 1 16 40
M  V30 42 1 21 41
M  V30 43 1 22 42
M  V30 44 1 23 43
M  V30 45 1 23 44
M  V30 46 1 24 45
M  V30 47 1 25 46
M  V30 48 1 25 47
M  V30 49 1 26 48
M  V30 50 1 28 49
M  V30 51 1 29 50
M  V30 END BOND
M  V30 END CTAB
M  END
>  <Dataset>  (620) 
ChEMBL_Kinases

>  <Ligand_Instance>  (620) 
nan

>  <PDB_ID>  (620) 
nan

>  <Standardized_SMILES>  (620) 
CS(=O)(=O)c1ccc(CNC(=O)c2cc(N)c(C#N)c(NC(CO)CO)n2)cc1

>  <Name>  (620) 
nan

>  <Pocket>  (620) 
nan

>  <ATP_Site>  (620) 
nan

>  <Peripheral>  (620) 
nan

>  <Num_H_Atoms_ProtBoundConf>  (620) 
nan

>  <Num_Resolved_Atoms>  (620) 
nan

>  <Num_Not_Resolved_Atoms>  (620) 
nan

$$$$
CHEMBL4086461
     RDKit          3D

  0  0  0  0  0  0  0  0  0  0999 V3000
M  V30 BEGIN CTAB
M  V30 COUNTS 41 44 0 0 0
M  V30 BEGIN ATOM
M  V30 1 N 0.830622 -5.480504 1.702843 0
M  V30 2 C 1.803142 -5.055836 0.753724 0
M  V30 3 O 2.545287 -6.013674 0.414420 0
M  V30 4 C 1.921104 -3.693878 0.245045 0
M  V30 5 C 2.931122 -3.485094 -0.670904 0
M  V30 6 C 3.101666 -2.221297 -1.194514 0
M  V30 7 Cl 4.339272 -1.855388 -2.349887 0
M  V30 8 C 2.281054 -1.186534 -0.812029 0
M  V30 9 C 2.136241 0.156724 -1.093164 0
M  V30 10 Cl 3.175253 0.987059 -2.233255 0
M  V30 11 C 1.086640 0.693396 -0.367217 0
M  V30 12 C 0.577376 2.044787 -0.330988 0
M  V30 13 C 0.785461 3.139658 0.551117 0
M  V30 14 C 1.688270 3.091185 -0.636284 0
M  V30 15 N 0.545086 -0.306307 0.390243 0
M  V30 16 C -0.561912 -0.205830 1.295289 0 CFG=2
M  V30 17 C -1.735668 0.550216 0.781245 0
M  V30 18 C -2.955432 0.140182 1.614510 0
M  V30 19 C -2.663884 0.183176 3.082295 0
M  V30 20 N -1.447858 -0.429596 3.499156 0
M  V30 21 C -0.273175 -0.030043 2.738622 0
M  V30 22 C 1.280229 -1.432292 0.107260 0
M  V30 23 N 1.119046 -2.680868 0.618392 0
M  V30 24 H -0.015704 -6.084524 1.531134 0
M  V30 25 H 0.935617 -5.174901 2.705739 0
M  V30 26 H 3.616941 -4.257438 -1.018307 0
M  V30 27 H -0.295197 2.177141 -1.052346 0
M  V30 28 H 0.089148 4.007524 0.533746 0
M  V30 29 H 1.198472 3.108898 1.578149 0
M  V30 30 H 2.737237 2.788083 -0.540283 0
M  V30 31 H 1.538940 3.781420 -1.486483 0
M  V30 32 H -1.004300 -1.237997 1.294674 0
M  V30 33 H -1.943878 0.213681 -0.252803 0
M  V30 34 H -1.674674 1.636056 0.829417 0
M  V30 35 H -3.319354 -0.858187 1.278813 0
M  V30 36 H -3.785110 0.845061 1.424048 0
M  V30 37 H -3.483104 -0.381040 3.584408 0
M  V30 38 H -2.769592 1.239969 3.438650 0
M  V30 39 H -1.287851 -0.117319 4.493336 0
M  V30 40 H -0.054462 0.980844 3.084410 0
M  V30 41 H 0.560763 -0.672563 3.022859 0
M  V30 END ATOM
M  V30 BEGIN BOND
M  V30 1 1 1 2
M  V30 2 2 2 3
M  V30 3 1 2 4
M  V30 4 2 4 5
M  V30 5 1 5 6
M  V30 6 1 6 7
M  V30 7 2 6 8
M  V30 8 1 8 9
M  V30 9 1 9 10
M  V30 10 2 9 11
M  V30 11 1 11 12
M  V30 12 1 12 13
M  V30 13 1 13 14
M  V30 14 1 11 15
M  V30 15 1 15 16
M  V30 16 1 16 17
M  V30 17 1 17 18
M  V30 18 1 18 19
M  V30 19 1 19 20
M  V30 20 1 20 21
M  V30 21 1 15 22
M  V30 22 2 22 23
M  V30 23 1 23 4
M  V30 24 1 22 8
M  V30 25 1 14 12
M  V30 26 1 21 16
M  V30 27 1 1 24
M  V30 28 1 1 25
M  V30 29 1 5 26
M  V30 30 1 12 27
M  V30 31 1 13 28
M  V30 32 1 13 29
M  V30 33 1 14 30
M  V30 34 1 14 31
M  V30 35 1 16 32 CFG=1
M  V30 36 1 17 33
M  V30 37 1 17 34
M  V30 38 1 18 35
M  V30 39 1 18 36
M  V30 40 1 19 37
M  V30 41 1 19 38
M  V30 42 1 20 39
M  V30 43 1 21 40
M  V30 44 1 21 41
M  V30 END BOND
M  V30 END CTAB
M  END
>  <Dataset>  (621) 
ChEMBL_Kinases

>  <Ligand_Instance>  (621) 
nan

>  <PDB_ID>  (621) 
nan

>  <Standardized_SMILES>  (621) 
NC(=O)c1cc(Cl)c2c(Cl)c(C3CC3)n([C@@H]3CCCNC3)c2n1

>  <Name>  (621) 
nan

>  <Pocket>  (621) 
nan

>  <ATP_Site>  (621) 
nan

>  <Peripheral>  (621) 
nan

>  <Num_H_Atoms_ProtBoundConf>  (621) 
nan

>  <Num_Resolved_Atoms>  (621) 
nan

>  <Num_Not_Resolved_Atoms>  (621) 
nan

$$$$
CHEMBL4086457
     RDKit          3D

  0  0  0  0  0  0  0  0  0  0999 V3000
M  V30 BEGIN CTAB
M  V30 COUNTS 72 76 0 0 0
M  V30 BEGIN ATOM
M  V30 1 C 4.944799 -6.155059 1.512061 0
M  V30 2 C 5.423806 -5.753376 0.347956 0
M  V30 3 C 5.777482 -4.357186 0.282111 0
M  V30 4 O 5.576587 -3.717150 1.359887 0
M  V30 5 N 6.307257 -3.733055 -0.880858 0
M  V30 6 C 6.584334 -2.338748 -0.709314 0
M  V30 7 C 7.814132 -1.822995 -0.333722 0
M  V30 8 C 7.965753 -0.461025 -0.184060 0
M  V30 9 C 6.884845 0.345766 -0.413563 0
M  V30 10 C 5.643646 -0.128164 -0.788445 0
M  V30 11 C 4.564167 0.830598 -0.992301 0
M  V30 12 O 4.645665 1.678278 -1.938423 0
M  V30 13 N 3.421854 0.846849 -0.162864 0
M  V30 14 C 2.167561 1.395184 0.194350 0
M  V30 15 C 2.124226 2.528829 1.001565 0
M  V30 16 C 0.905413 3.072064 1.369942 0
M  V30 17 C -0.195398 2.404713 0.879509 0
M  V30 18 N -1.471924 2.961789 1.234828 0
M  V30 19 C -2.558553 2.078907 1.469621 0
M  V30 20 C -3.468364 1.400299 0.704618 0
M  V30 21 C -4.429638 0.604971 1.253930 0
M  V30 22 C -5.348156 -0.118222 0.429464 0
M  V30 23 C -4.944727 -1.106381 -0.446658 0
M  V30 24 C -3.556497 -1.536525 -0.670681 0
M  V30 25 C -2.819384 -1.560548 -1.835839 0
M  V30 26 C -1.515536 -2.003336 -1.793681 0
M  V30 27 C -0.928954 -2.425632 -0.599950 0
M  V30 28 F 0.350930 -2.846921 -0.616955 0
M  V30 29 C -1.680337 -2.395381 0.557821 0
M  V30 30 C -2.981776 -1.953431 0.515509 0
M  V30 31 N -6.090649 -1.553064 -1.014203 0
M  V30 32 C -7.139891 -0.868437 -0.506979 0
M  V30 33 S -8.742089 -1.321976 -1.131108 0
M  V30 34 C -10.043533 -0.365406 -0.374685 0
M  V30 35 N -6.682137 0.022172 0.388394 0
M  V30 36 C -7.556232 0.921660 1.111148 0
M  V30 37 C -4.539734 0.439354 2.644517 0
M  V30 38 C -3.596507 1.144928 3.407608 0
M  V30 39 N -2.642771 1.934709 2.829561 0
M  V30 40 C -0.212432 1.283046 0.080464 0
M  V30 41 C 1.033804 0.769534 -0.268037 0
M  V30 42 C 5.496565 -1.493942 -0.937747 0
M  V30 43 C 4.146252 -1.966088 -1.339577 0
M  V30 44 H 4.919973 -5.312901 2.193134 0
M  V30 45 H 4.600503 -7.116696 1.862902 0
M  V30 46 H 5.515545 -6.484616 -0.459903 0
M  V30 47 H 6.420764 -4.370379 -1.691763 0
M  V30 48 H 8.598318 -2.551107 -0.178440 0
M  V30 49 H 8.941506 -0.128754 0.108804 0
M  V30 50 H 7.000435 1.404649 -0.297295 0
M  V30 51 H 3.463147 0.097984 0.595553 0
M  V30 52 H 3.044688 3.014589 1.361754 0
M  V30 53 H 0.795006 3.947936 1.991160 0
M  V30 54 H -1.606181 3.987464 1.321620 0
M  V30 55 H -3.303362 1.594494 -0.331490 0
M  V30 56 H -3.378951 -1.211913 -2.692006 0
M  V30 57 H -0.981085 -1.998345 -2.745437 0
M  V30 58 H -1.168717 -2.739377 1.472044 0
M  V30 59 H -3.443871 -1.984420 1.495039 0
M  V30 60 H -11.011431 -0.906961 -0.596920 0
M  V30 61 H -10.182487 0.630475 -0.858725 0
M  V30 62 H -10.003335 -0.318074 0.725177 0
M  V30 63 H -8.336572 1.365337 0.448786 0
M  V30 64 H -8.086720 0.435674 1.936334 0
M  V30 65 H -6.980068 1.833914 1.460918 0
M  V30 66 H -5.303260 -0.190428 3.077816 0
M  V30 67 H -3.705577 0.999477 4.474780 0
M  V30 68 H -1.075137 0.765123 -0.299131 0
M  V30 69 H 1.088842 -0.105112 -0.891024 0
M  V30 70 H 3.589792 -2.180113 -0.395056 0
M  V30 71 H 4.198404 -2.891798 -1.912425 0
M  V30 72 H 3.638237 -1.185853 -1.940787 0
M  V30 END ATOM
M  V30 BEGIN BOND
M  V30 1 2 1 2
M  V30 2 1 2 3
M  V30 3 2 3 4
M  V30 4 1 3 5
M  V30 5 1 5 6
M  V30 6 2 6 7
M  V30 7 1 7 8
M  V30 8 2 8 9
M  V30 9 1 9 10
M  V30 10 1 10 11
M  V30 11 2 11 12
M  V30 12 1 11 13
M  V30 13 1 13 14
M  V30 14 2 14 15
M  V30 15 1 15 16
M  V30 16 2 16 17
M  V30 17 1 17 18
M  V30 18 1 18 19
M  V30 19 2 19 20
M  V30 20 1 20 21
M  V30 21 1 21 22
M  V30 22 2 22 23
M  V30 23 1 23 24
M  V30 24 2 24 25
M  V30 25 1 25 26
M  V30 26 2 26 27
M  V30 27 1 27 28
M  V30 28 1 27 29
M  V30 29 2 29 30
M  V30 30 1 23 31
M  V30 31 2 31 32
M  V30 32 1 32 33
M  V30 33 1 33 34
M  V30 34 1 32 35
M  V30 35 1 35 36
M  V30 36 2 21 37
M  V30 37 1 37 38
M  V30 38 2 38 39
M  V30 39 1 17 40
M  V30 40 2 40 41
M  V30 41 2 10 42
M  V30 42 1 42 43
M  V30 43 1 42 6
M  V30 44 1 41 14
M  V30 45 1 39 19
M  V30 46 1 35 22
M  V30 47 1 30 24
M  V30 48 1 1 44
M  V30 49 1 1 45
M  V30 50 1 2 46
M  V30 51 1 5 47
M  V30 52 1 7 48
M  V30 53 1 8 49
M  V30 54 1 9 50
M  V30 55 1 13 51
M  V30 56 1 15 52
M  V30 57 1 16 53
M  V30 58 1 18 54
M  V30 59 1 20 55
M  V30 60 1 25 56
M  V30 61 1 26 57
M  V30 62 1 29 58
M  V30 63 1 30 59
M  V30 64 1 34 60
M  V30 65 1 34 61
M  V30 66 1 34 62
M  V30 67 1 36 63
M  V30 68 1 36 64
M  V30 69 1 36 65
M  V30 70 1 37 66
M  V30 71 1 38 67
M  V30 72 1 40 68
M  V30 73 1 41 69
M  V30 74 1 43 70
M  V30 75 1 43 71
M  V30 76 1 43 72
M  V30 END BOND
M  V30 END CTAB
M  END
>  <Dataset>  (622) 
ChEMBL_Kinases

>  <Ligand_Instance>  (622) 
nan

>  <PDB_ID>  (622) 
nan

>  <Standardized_SMILES>  (622) 
C=CC(=O)Nc1cccc(C(=O)Nc2ccc(Nc3cc(-c4c(-c5ccc(F)cc5)nc(SC)n4C)ccn3)cc2)c1C

>  <Name>  (622) 
nan

>  <Pocket>  (622) 
nan

>  <ATP_Site>  (622) 
nan

>  <Peripheral>  (622) 
nan

>  <Num_H_Atoms_ProtBoundConf>  (622) 
nan

>  <Num_Resolved_Atoms>  (622) 
nan

>  <Num_Not_Resolved_Atoms>  (622) 
nan

$$$$
CHEMBL3581116
     RDKit          3D

  0  0  0  0  0  0  0  0  0  0999 V3000
M  V30 BEGIN CTAB
M  V30 COUNTS 34 36 0 0 0
M  V30 BEGIN ATOM
M  V30 1 O 1.289248 -1.150264 0.666589 0
M  V30 2 C 1.240257 -0.826089 1.899807 0
M  V30 3 C 1.775050 -1.900588 2.779860 0
M  V30 4 C 2.207102 -3.037521 1.925156 0
M  V30 5 C 1.411139 -4.096624 1.542906 0
M  V30 6 C 1.890781 -5.116699 0.744305 0
M  V30 7 C 3.211635 -5.076720 0.312917 0
M  V30 8 C 4.047239 -4.021060 0.679339 0
M  V30 9 C 3.529133 -3.016672 1.481491 0
M  V30 10 N 0.752071 0.387481 2.450935 0
M  V30 11 C 0.280587 1.280165 1.357591 0
M  V30 12 N -0.753644 1.342495 0.907347 0
M  V30 13 C -1.220079 2.121322 -0.067102 0
M  V30 14 C -2.570025 2.148786 -0.599415 0
M  V30 15 C -3.560702 1.322618 -0.120433 0
M  V30 16 C -4.850412 1.330252 -0.609889 0
M  V30 17 N -5.174445 2.178308 -1.602309 0
M  V30 18 C -4.258785 3.015533 -2.120662 0
M  V30 19 C -2.978554 2.984920 -1.611135 0
M  V30 20 C -0.210707 3.012704 -0.606124 0
M  V30 21 S 1.302180 2.556357 0.427727 0
M  V30 22 H 2.580339 -1.546469 3.445027 0
M  V30 23 H 0.919257 -2.247178 3.422293 0
M  V30 24 H 0.387971 -4.066570 1.914929 0
M  V30 25 H 1.178696 -5.892260 0.509013 0
M  V30 26 H 3.554314 -5.891159 -0.310783 0
M  V30 27 H 5.061133 -4.023034 0.327938 0
M  V30 28 H 4.219306 -2.224469 1.734672 0
M  V30 29 H 0.779927 0.499832 3.476190 0
M  V30 30 H -3.311662 0.625043 0.689358 0
M  V30 31 H -5.566369 0.640716 -0.168714 0
M  V30 32 H -4.522336 3.696038 -2.918332 0
M  V30 33 H -2.281130 3.674965 -2.059751 0
M  V30 34 H -0.360121 3.772356 -1.442496 0
M  V30 END ATOM
M  V30 BEGIN BOND
M  V30 1 2 1 2
M  V30 2 1 2 3
M  V30 3 1 3 4
M  V30 4 2 4 5
M  V30 5 1 5 6
M  V30 6 2 6 7
M  V30 7 1 7 8
M  V30 8 2 8 9
M  V30 9 1 2 10
M  V30 10 1 10 11
M  V30 11 2 11 12
M  V30 12 1 12 13
M  V30 13 1 13 14
M  V30 14 2 14 15
M  V30 15 1 15 16
M  V30 16 2 16 17
M  V30 17 1 17 18
M  V30 18 2 18 19
M  V30 19 2 13 20
M  V30 20 1 20 21
M  V30 21 1 9 4
M  V30 22 1 21 11
M  V30 23 1 19 14
M  V30 24 1 3 22
M  V30 25 1 3 23
M  V30 26 1 5 24
M  V30 27 1 6 25
M  V30 28 1 7 26
M  V30 29 1 8 27
M  V30 30 1 9 28
M  V30 31 1 10 29
M  V30 32 1 15 30
M  V30 33 1 16 31
M  V30 34 1 18 32
M  V30 35 1 19 33
M  V30 36 1 20 34
M  V30 END BOND
M  V30 END CTAB
M  END
>  <Dataset>  (623) 
ChEMBL_Kinases

>  <Ligand_Instance>  (623) 
nan

>  <PDB_ID>  (623) 
nan

>  <Standardized_SMILES>  (623) 
O=C(Cc1ccccc1)Nc1nc(-c2ccncc2)cs1

>  <Name>  (623) 
nan

>  <Pocket>  (623) 
nan

>  <ATP_Site>  (623) 
nan

>  <Peripheral>  (623) 
nan

>  <Num_H_Atoms_ProtBoundConf>  (623) 
nan

>  <Num_Resolved_Atoms>  (623) 
nan

>  <Num_Not_Resolved_Atoms>  (623) 
nan

$$$$
CHEMBL3581117
     RDKit          3D

  0  0  0  0  0  0  0  0  0  0999 V3000
M  V30 BEGIN CTAB
M  V30 COUNTS 34 36 0 0 0
M  V30 BEGIN ATOM
M  V30 1 O 0.258146 -1.938968 1.183284 0
M  V30 2 C 1.004757 -1.345879 2.036653 0
M  V30 3 C 2.161427 -2.173164 2.474398 0
M  V30 4 C 2.036883 -3.458589 1.723315 0
M  V30 5 C 1.582801 -4.681297 2.216834 0
M  V30 6 C 1.534057 -5.765952 1.367279 0
M  V30 7 C 1.908236 -5.726755 0.044264 0
M  V30 8 C 2.359732 -4.514994 -0.450024 0
M  V30 9 C 2.414493 -3.417030 0.389902 0
M  V30 10 F 2.868763 -2.265744 -0.167272 0
M  V30 11 N 0.745785 -0.036607 2.507576 0
M  V30 12 C -0.451747 0.659026 1.976811 0
M  V30 13 N -0.613164 1.354293 1.038681 0
M  V30 14 C -1.793926 1.894913 0.724282 0
M  V30 15 C -1.915219 2.743288 -0.457681 0
M  V30 16 C -0.877091 3.057284 -1.324750 0
M  V30 17 C -1.036932 3.858265 -2.429958 0
M  V30 18 N -2.223129 4.399486 -2.751418 0
M  V30 19 C -3.266676 4.134310 -1.953014 0
M  V30 20 C -3.115628 3.332134 -0.842965 0
M  V30 21 C -2.899739 1.643110 1.523442 0
M  V30 22 S -2.119798 0.518056 2.836941 0
M  V30 23 H 2.158180 -2.330669 3.562316 0
M  V30 24 H 3.096266 -1.668265 2.109911 0
M  V30 25 H 1.303431 -4.665950 3.246176 0
M  V30 26 H 1.171402 -6.717961 1.782385 0
M  V30 27 H 1.824610 -6.653401 -0.527245 0
M  V30 28 H 2.650212 -4.496043 -1.488230 0
M  V30 29 H 1.380904 0.389659 3.191640 0
M  V30 30 H 0.098606 2.616073 -1.064017 0
M  V30 31 H -0.119428 4.015291 -3.019545 0
M  V30 32 H -4.242757 4.552496 -2.179526 0
M  V30 33 H -4.006585 3.160277 -0.239613 0
M  V30 34 H -3.878478 1.985825 1.417410 0
M  V30 END ATOM
M  V30 BEGIN BOND
M  V30 1 2 1 2
M  V30 2 1 2 3
M  V30 3 1 3 4
M  V30 4 2 4 5
M  V30 5 1 5 6
M  V30 6 2 6 7
M  V30 7 1 7 8
M  V30 8 2 8 9
M  V30 9 1 9 10
M  V30 10 1 2 11
M  V30 11 1 11 12
M  V30 12 2 12 13
M  V30 13 1 13 14
M  V30 14 1 14 15
M  V30 15 2 15 16
M  V30 16 1 16 17
M  V30 17 2 17 18
M  V30 18 1 18 19
M  V30 19 2 19 20
M  V30 20 2 14 21
M  V30 21 1 21 22
M  V30 22 1 9 4
M  V30 23 1 22 12
M  V30 24 1 20 15
M  V30 25 1 3 23
M  V30 26 1 3 24
M  V30 27 1 5 25
M  V30 28 1 6 26
M  V30 29 1 7 27
M  V30 30 1 8 28
M  V30 31 1 11 29
M  V30 32 1 16 30
M  V30 33 1 17 31
M  V30 34 1 19 32
M  V30 35 1 20 33
M  V30 36 1 21 34
M  V30 END BOND
M  V30 END CTAB
M  END
>  <Dataset>  (624) 
ChEMBL_Kinases

>  <Ligand_Instance>  (624) 
nan

>  <PDB_ID>  (624) 
nan

>  <Standardized_SMILES>  (624) 
O=C(Cc1ccccc1F)Nc1nc(-c2ccncc2)cs1

>  <Name>  (624) 
nan

>  <Pocket>  (624) 
nan

>  <ATP_Site>  (624) 
nan

>  <Peripheral>  (624) 
nan

>  <Num_H_Atoms_ProtBoundConf>  (624) 
nan

>  <Num_Resolved_Atoms>  (624) 
nan

>  <Num_Not_Resolved_Atoms>  (624) 
nan

$$$$
CHEMBL3581118
     RDKit          3D

  0  0  0  0  0  0  0  0  0  0999 V3000
M  V30 BEGIN CTAB
M  V30 COUNTS 34 36 0 0 0
M  V30 BEGIN ATOM
M  V30 1 O 0.069732 -1.942038 0.957425 0
M  V30 2 C 0.953861 -1.383979 1.669959 0
M  V30 3 C 2.290618 -2.001313 1.818043 0
M  V30 4 C 2.416739 -3.267982 1.063486 0
M  V30 5 C 2.089685 -4.487408 1.659042 0
M  V30 6 C 2.181054 -5.717939 1.017850 0
M  V30 7 C 2.626148 -5.714718 -0.293183 0
M  V30 8 C 2.947642 -4.512782 -0.877634 0
M  V30 9 F 3.379649 -4.580316 -2.171463 0
M  V30 10 C 2.863072 -3.280076 -0.255828 0
M  V30 11 N 0.761813 -0.159889 2.370779 0
M  V30 12 C -0.610280 0.436035 2.194783 0
M  V30 13 N -0.874543 1.242972 1.263887 0
M  V30 14 C -2.084683 1.749228 1.133722 0
M  V30 15 C -2.337814 2.688330 0.026714 0
M  V30 16 C -1.396371 3.086962 -0.899037 0
M  V30 17 C -1.683266 3.968153 -1.916282 0
M  V30 18 N -2.919469 4.481580 -2.044357 0
M  V30 19 C -3.889449 4.139224 -1.179134 0
M  V30 20 C -3.578368 3.255546 -0.169179 0
M  V30 21 C -3.057223 1.382754 2.031303 0
M  V30 22 S -2.038328 0.200534 3.120589 0
M  V30 23 H 2.416635 -2.247699 2.898133 0
M  V30 24 H 3.085838 -1.301906 1.499440 0
M  V30 25 H 1.748142 -4.423064 2.685257 0
M  V30 26 H 1.897871 -6.586630 1.590075 0
M  V30 27 H 2.694319 -6.659947 -0.779775 0
M  V30 28 H 3.125025 -2.366664 -0.751961 0
M  V30 29 H 1.503982 0.280681 2.951174 0
M  V30 30 H -0.383738 2.666174 -0.793848 0
M  V30 31 H -0.852511 4.205551 -2.584986 0
M  V30 32 H -4.865565 4.555262 -1.294042 0
M  V30 33 H -4.398039 3.022392 0.489204 0
M  V30 34 H -4.083786 1.729485 2.028087 0
M  V30 END ATOM
M  V30 BEGIN BOND
M  V30 1 2 1 2
M  V30 2 1 2 3
M  V30 3 1 3 4
M  V30 4 2 4 5
M  V30 5 1 5 6
M  V30 6 2 6 7
M  V30 7 1 7 8
M  V30 8 1 8 9
M  V30 9 2 8 10
M  V30 10 1 2 11
M  V30 11 1 11 12
M  V30 12 2 12 13
M  V30 13 1 13 14
M  V30 14 1 14 15
M  V30 15 2 15 16
M  V30 16 1 16 17
M  V30 17 2 17 18
M  V30 18 1 18 19
M  V30 19 2 19 20
M  V30 20 2 14 21
M  V30 21 1 21 22
M  V30 22 1 10 4
M  V30 23 1 22 12
M  V30 24 1 20 15
M  V30 25 1 3 23
M  V30 26 1 3 24
M  V30 27 1 5 25
M  V30 28 1 6 26
M  V30 29 1 7 27
M  V30 30 1 10 28
M  V30 31 1 11 29
M  V30 32 1 16 30
M  V30 33 1 17 31
M  V30 34 1 19 32
M  V30 35 1 20 33
M  V30 36 1 21 34
M  V30 END BOND
M  V30 END CTAB
M  END
>  <Dataset>  (625) 
ChEMBL_Kinases

>  <Ligand_Instance>  (625) 
nan

>  <PDB_ID>  (625) 
nan

>  <Standardized_SMILES>  (625) 
O=C(Cc1cccc(F)c1)Nc1nc(-c2ccncc2)cs1

>  <Name>  (625) 
nan

>  <Pocket>  (625) 
nan

>  <ATP_Site>  (625) 
nan

>  <Peripheral>  (625) 
nan

>  <Num_H_Atoms_ProtBoundConf>  (625) 
nan

>  <Num_Resolved_Atoms>  (625) 
nan

>  <Num_Not_Resolved_Atoms>  (625) 
nan

$$$$
CHEMBL3581119
     RDKit          3D

  0  0  0  0  0  0  0  0  0  0999 V3000
M  V30 BEGIN CTAB
M  V30 COUNTS 34 36 0 0 0
M  V30 BEGIN ATOM
M  V30 1 O -0.406165 -1.605971 2.453756 0
M  V30 2 C 0.831208 -1.512710 2.498009 0
M  V30 3 C 1.893428 -2.542690 2.443798 0
M  V30 4 C 1.976750 -3.216901 1.122261 0
M  V30 5 C 1.424415 -4.385363 0.676230 0
M  V30 6 C 1.645894 -4.822975 -0.619939 0
M  V30 7 C 2.438879 -4.074730 -1.496684 0
M  V30 8 F 2.626017 -4.543386 -2.753425 0
M  V30 9 C 3.002230 -2.878549 -1.036645 0
M  V30 10 C 2.769630 -2.467309 0.247351 0
M  V30 11 N 1.255721 -0.149681 2.620091 0
M  V30 12 C 0.023451 0.712106 2.658779 0
M  V30 13 N -0.500612 1.039987 1.702703 0
M  V30 14 C -1.536605 1.773413 1.424774 0
M  V30 15 C -2.174861 2.146790 0.168793 0
M  V30 16 C -1.615766 1.648426 -0.990026 0
M  V30 17 C -2.103166 1.910338 -2.252322 0
M  V30 18 N -3.181013 2.698428 -2.295358 0
M  V30 19 C -3.755150 3.204358 -1.177789 0
M  V30 20 C -3.280237 2.951595 0.094933 0
M  V30 21 C -2.111719 2.252685 2.654192 0
M  V30 22 S -0.988071 1.511552 3.987349 0
M  V30 23 H 1.617527 -3.378551 3.165558 0
M  V30 24 H 2.846289 -2.115940 2.768088 0
M  V30 25 H 0.827674 -4.886747 1.435461 0
M  V30 26 H 1.170506 -5.764505 -0.897021 0
M  V30 27 H 3.610387 -2.344485 -1.782768 0
M  V30 28 H 3.268109 -1.530618 0.443553 0
M  V30 29 H 2.251853 0.169855 2.670451 0
M  V30 30 H -0.726424 0.996513 -0.944616 0
M  V30 31 H -1.645306 1.500205 -3.165544 0
M  V30 32 H -4.639746 3.850283 -1.230431 0
M  V30 33 H -3.733321 3.347449 0.990269 0
M  V30 34 H -3.083411 2.963642 2.874415 0
M  V30 END ATOM
M  V30 BEGIN BOND
M  V30 1 2 1 2
M  V30 2 1 2 3
M  V30 3 1 3 4
M  V30 4 2 4 5
M  V30 5 1 5 6
M  V30 6 2 6 7
M  V30 7 1 7 8
M  V30 8 1 7 9
M  V30 9 2 9 10
M  V30 10 1 2 11
M  V30 11 1 11 12
M  V30 12 2 12 13
M  V30 13 1 13 14
M  V30 14 1 14 15
M  V30 15 2 15 16
M  V30 16 1 16 17
M  V30 17 2 17 18
M  V30 18 1 18 19
M  V30 19 2 19 20
M  V30 20 2 14 21
M  V30 21 1 21 22
M  V30 22 1 10 4
M  V30 23 1 22 12
M  V30 24 1 20 15
M  V30 25 1 3 23
M  V30 26 1 3 24
M  V30 27 1 5 25
M  V30 28 1 6 26
M  V30 29 1 9 27
M  V30 30 1 10 28
M  V30 31 1 11 29
M  V30 32 1 16 30
M  V30 33 1 17 31
M  V30 34 1 19 32
M  V30 35 1 20 33
M  V30 36 1 21 34
M  V30 END BOND
M  V30 END CTAB
M  END
>  <Dataset>  (626) 
ChEMBL_Kinases

>  <Ligand_Instance>  (626) 
nan

>  <PDB_ID>  (626) 
nan

>  <Standardized_SMILES>  (626) 
O=C(Cc1ccc(F)cc1)Nc1nc(-c2ccncc2)cs1

>  <Name>  (626) 
nan

>  <Pocket>  (626) 
nan

>  <ATP_Site>  (626) 
nan

>  <Peripheral>  (626) 
nan

>  <Num_H_Atoms_ProtBoundConf>  (626) 
nan

>  <Num_Resolved_Atoms>  (626) 
nan

>  <Num_Not_Resolved_Atoms>  (626) 
nan

$$$$
CHEMBL3580973
     RDKit          3D

  0  0  0  0  0  0  0  0  0  0999 V3000
M  V30 BEGIN CTAB
M  V30 COUNTS 44 48 0 0 0
M  V30 BEGIN ATOM
M  V30 1 F -0.661581 -4.871966 -0.120246 0
M  V30 2 C -0.923935 -4.104971 0.962309 0
M  V30 3 C 0.166175 -3.581678 1.630702 0
M  V30 4 C 1.600103 -3.749098 1.314897 0
M  V30 5 N 2.006671 -2.991796 0.118881 0
M  V30 6 C 1.223825 -1.893822 -0.311819 0
M  V30 7 N 0.090664 -1.665670 0.318183 0
M  V30 8 C -0.772656 -0.702355 0.053260 0
M  V30 9 C -0.485441 0.170600 -0.976666 0
M  V30 10 C 0.712101 -0.039060 -1.668127 0
M  V30 11 N 0.913828 0.930935 -2.686669 0
M  V30 12 C 1.734544 1.885140 -1.973385 0
M  V30 13 C 1.512160 2.461939 -0.730626 0
M  V30 14 C 2.532707 3.340107 -0.345808 0
M  V30 15 C 2.468378 4.050644 0.982052 0
M  V30 16 C 2.613803 3.089404 2.191102 0
M  V30 17 C 1.328488 3.773338 1.906119 0
M  V30 18 N 3.361203 3.264984 -1.396309 0
M  V30 19 N 2.917428 2.447084 -2.312610 0
M  V30 20 N 1.541693 -1.062725 -1.326823 0
M  V30 21 C -0.105174 -2.778432 2.753753 0
M  V30 22 C -1.392972 -2.491918 3.214883 0
M  V30 23 C -2.465867 -3.022635 2.534065 0
M  V30 24 N -3.820242 -2.955301 2.685978 0
M  V30 25 C -4.411198 -3.682559 1.702628 0
M  V30 26 N -3.426690 -4.219263 0.918298 0
M  V30 27 C -2.227619 -3.827518 1.411170 0
M  V30 28 H 2.217108 -3.368989 2.142147 0
M  V30 29 H 1.837851 -4.824281 1.135636 0
M  V30 30 H 2.882002 -3.317977 -0.351012 0
M  V30 31 H -1.661315 -0.682990 0.700385 0
M  V30 32 H -1.240812 0.935793 -1.134056 0
M  V30 33 H 0.631615 1.084176 -3.690798 0
M  V30 34 H 0.594618 2.207984 -0.172989 0
M  V30 35 H 3.098365 4.928184 1.106002 0
M  V30 36 H 2.674903 2.011312 1.963706 0
M  V30 37 H 3.265449 3.390067 3.023428 0
M  V30 38 H 0.466227 3.157463 1.582241 0
M  V30 39 H 1.035596 4.606697 2.610318 0
M  V30 40 H 4.242505 3.849173 -1.358584 0
M  V30 41 H 0.702345 -2.332905 3.342355 0
M  V30 42 H -1.571772 -1.862899 4.094885 0
M  V30 43 H -4.309758 -2.413163 3.457717 0
M  V30 44 H -5.497438 -3.811871 1.577013 0
M  V30 END ATOM
M  V30 BEGIN BOND
M  V30 1 1 1 2
M  V30 2 2 2 3
M  V30 3 1 3 4
M  V30 4 1 4 5
M  V30 5 1 5 6
M  V30 6 2 6 7
M  V30 7 1 7 8
M  V30 8 2 8 9
M  V30 9 1 9 10
M  V30 10 1 10 11
M  V30 11 1 11 12
M  V30 12 1 12 13
M  V30 13 2 13 14
M  V30 14 1 14 15
M  V30 15 1 15 16
M  V30 16 1 16 17
M  V30 17 1 14 18
M  V30 18 1 18 19
M  V30 19 2 10 20
M  V30 20 1 3 21
M  V30 21 2 21 22
M  V30 22 1 22 23
M  V30 23 1 23 24
M  V30 24 1 24 25
M  V30 25 2 25 26
M  V30 26 1 26 27
M  V30 27 1 27 2
M  V30 28 1 20 6
M  V30 29 2 27 23
M  V30 30 2 19 12
M  V30 31 1 17 15
M  V30 32 1 4 28
M  V30 33 1 4 29
M  V30 34 1 5 30
M  V30 35 1 8 31
M  V30 36 1 9 32
M  V30 37 1 11 33
M  V30 38 1 13 34
M  V30 39 1 15 35
M  V30 40 1 16 36
M  V30 41 1 16 37
M  V30 42 1 17 38
M  V30 43 1 17 39
M  V30 44 1 18 40
M  V30 45 1 21 41
M  V30 46 1 22 42
M  V30 47 1 24 43
M  V30 48 1 25 44
M  V30 END BOND
M  V30 END CTAB
M  END
>  <Dataset>  (627) 
ChEMBL_Kinases

>  <Ligand_Instance>  (627) 
nan

>  <PDB_ID>  (627) 
nan

>  <Standardized_SMILES>  (627) 
Fc1c(CNc2nccc(Nc3cc(C4CC4)[nH]n3)n2)ccc2[nH]cnc12

>  <Name>  (627) 
nan

>  <Pocket>  (627) 
nan

>  <ATP_Site>  (627) 
nan

>  <Peripheral>  (627) 
nan

>  <Num_H_Atoms_ProtBoundConf>  (627) 
nan

>  <Num_Resolved_Atoms>  (627) 
nan

>  <Num_Not_Resolved_Atoms>  (627) 
nan

$$$$
CHEMBL366259
     RDKit          3D

  0  0  0  0  0  0  0  0  0  0999 V3000
M  V30 BEGIN CTAB
M  V30 COUNTS 37 40 0 0 0
M  V30 BEGIN ATOM
M  V30 1 C -0.324178 -4.886908 -0.422094 0
M  V30 2 C 0.759568 -3.960232 -0.041572 0
M  V30 3 C 1.858176 -4.442186 0.651432 0
M  V30 4 C 2.877931 -3.590666 1.010253 0
M  V30 5 C 2.796125 -2.245778 0.671753 0
M  V30 6 C 1.704768 -1.770665 -0.015095 0
M  V30 7 C 0.685198 -2.622220 -0.373663 0
M  V30 8 N -0.426368 -2.068009 -1.070489 0
M  V30 9 C -0.518092 -0.685605 -1.455157 0
M  V30 10 N -0.627263 -0.157427 -2.694561 0
M  V30 11 C -0.688864 1.175917 -2.786246 0
M  V30 12 C -0.648088 2.055101 -1.700206 0
M  V30 13 C -0.536490 1.476947 -0.451102 0
M  V30 14 C -0.478034 2.316198 0.747781 0
M  V30 15 C -0.554104 3.692636 0.816621 0
M  V30 16 N -0.446487 3.996438 2.108307 0
M  V30 17 N -0.308688 2.901854 2.845243 0
M  V30 18 N -0.167263 2.760818 4.173733 0
M  V30 19 C -0.039765 1.501054 4.674816 0
M  V30 20 C -0.044694 0.352018 3.914921 0
M  V30 21 C -0.194241 0.555974 2.542572 0
M  V30 22 C -0.323368 1.826381 2.033306 0
M  V30 23 N -0.477480 0.135505 -0.391061 0
M  V30 24 H -1.308994 -4.388536 -0.403278 0
M  V30 25 H -0.366278 -5.741173 0.287839 0
M  V30 26 H -0.163494 -5.300622 -1.459351 0
M  V30 27 H 1.938174 -5.486066 0.924315 0
M  V30 28 H 3.739592 -3.961415 1.552046 0
M  V30 29 H 3.625499 -1.629016 0.979626 0
M  V30 30 H 1.749940 -0.718341 -0.219508 0
M  V30 31 H -1.268472 -2.596648 -1.365761 0
M  V30 32 H -0.777630 1.582997 -3.792263 0
M  V30 33 H -0.701272 3.132692 -1.830646 0
M  V30 34 H -0.676473 4.303219 -0.070642 0
M  V30 35 H 0.067672 1.483923 5.751883 0
M  V30 36 H 0.062080 -0.622680 4.372800 0
M  V30 37 H -0.200995 -0.331901 1.926418 0
M  V30 END ATOM
M  V30 BEGIN BOND
M  V30 1 1 1 2
M  V30 2 2 2 3
M  V30 3 1 3 4
M  V30 4 2 4 5
M  V30 5 1 5 6
M  V30 6 2 6 7
M  V30 7 1 7 8
M  V30 8 1 8 9
M  V30 9 2 9 10
M  V30 10 1 10 11
M  V30 11 2 11 12
M  V30 12 1 12 13
M  V30 13 1 13 14
M  V30 14 1 14 15
M  V30 15 2 15 16
M  V30 16 1 16 17
M  V30 17 1 17 18
M  V30 18 2 18 19
M  V30 19 1 19 20
M  V30 20 2 20 21
M  V30 21 1 21 22
M  V30 22 2 13 23
M  V30 23 1 7 2
M  V30 24 1 23 9
M  V30 25 2 22 14
M  V30 26 1 22 17
M  V30 27 1 1 24
M  V30 28 1 1 25
M  V30 29 1 1 26
M  V30 30 1 3 27
M  V30 31 1 4 28
M  V30 32 1 5 29
M  V30 33 1 6 30
M  V30 34 1 8 31
M  V30 35 1 11 32
M  V30 36 1 12 33
M  V30 37 1 15 34
M  V30 38 1 19 35
M  V30 39 1 20 36
M  V30 40 1 21 37
M  V30 END BOND
M  V30 END CTAB
M  END
>  <Dataset>  (628) 
ChEMBL_Kinases

>  <Ligand_Instance>  (628) 
nan

>  <PDB_ID>  (628) 
nan

>  <Standardized_SMILES>  (628) 
Cc1ccccc1Nc1nccc(-c2cnn3ncccc23)n1

>  <Name>  (628) 
nan

>  <Pocket>  (628) 
nan

>  <ATP_Site>  (628) 
nan

>  <Peripheral>  (628) 
nan

>  <Num_H_Atoms_ProtBoundConf>  (628) 
nan

>  <Num_Resolved_Atoms>  (628) 
nan

>  <Num_Not_Resolved_Atoms>  (628) 
nan

$$$$
CHEMBL383799
     RDKit          3D

  0  0  0  0  0  0  0  0  0  0999 V3000
M  V30 BEGIN CTAB
M  V30 COUNTS 49 52 0 0 0
M  V30 BEGIN ATOM
M  V30 1 C 0.902987 -1.019603 5.159219 0
M  V30 2 C 1.520166 -1.599972 3.897248 0
M  V30 3 C 2.736293 -0.799271 3.499015 0
M  V30 4 N 3.303271 -1.369928 2.302249 0
M  V30 5 C 2.651758 -1.483929 1.048275 0
M  V30 6 N 3.248463 -2.040809 -0.032364 0
M  V30 7 C 2.625809 -2.140875 -1.209713 0
M  V30 8 C 1.343674 -1.666555 -1.331581 0
M  V30 9 C 0.727608 -1.095226 -0.227870 0
M  V30 10 C -0.627660 -0.629815 -0.478174 0
M  V30 11 C -0.928710 0.710056 -0.355345 0
M  V30 12 C -0.190219 1.917274 -0.006058 0
M  V30 13 C -0.146579 2.876113 -1.025379 0
M  V30 14 C 0.546112 4.062661 -0.758823 0
M  V30 15 C 1.157171 4.267072 0.463559 0
M  V30 16 F 1.840911 5.399762 0.772013 0
M  V30 17 C 1.107000 3.309315 1.465975 0
M  V30 18 C 0.420999 2.124222 1.213671 0
M  V30 19 N -2.256489 0.787987 -0.656917 0
M  V30 20 C -2.713001 -0.446865 -0.942994 0
M  V30 21 N -1.721365 -1.326537 -0.836412 0
M  V30 22 C -2.231639 -2.647377 -1.145781 0 CFG=1
M  V30 23 C -1.631478 -3.645786 -0.181463 0
M  V30 24 O -2.052285 -4.944295 -0.387378 0
M  V30 25 C -3.731913 -2.536587 -0.950407 0
M  V30 26 C -3.987770 -1.097601 -1.339581 0
M  V30 27 N 1.402042 -1.024553 0.919753 0
M  V30 28 H 1.708653 -0.870919 5.906666 0
M  V30 29 H 0.424230 -0.059733 4.933020 0
M  V30 30 H 0.129516 -1.713238 5.542866 0
M  V30 31 H 0.737757 -1.575314 3.123305 0
M  V30 32 H 1.791435 -2.659661 4.081837 0
M  V30 33 H 2.403722 0.261229 3.330704 0
M  V30 34 H 3.460960 -0.839489 4.322875 0
M  V30 35 H 4.296271 -1.743417 2.343922 0
M  V30 36 H 3.129726 -2.591312 -2.054863 0
M  V30 37 H 0.873968 -1.768360 -2.309256 0
M  V30 38 H -0.619372 2.729909 -1.985582 0
M  V30 39 H 0.609038 4.834670 -1.513267 0
M  V30 40 H 1.581629 3.454963 2.430973 0
M  V30 41 H 0.356288 1.349949 1.966924 0
M  V30 42 H -1.959085 -2.863795 -2.197381 0
M  V30 43 H -2.009257 -3.340570 0.838099 0
M  V30 44 H -0.550384 -3.522394 -0.180367 0
M  V30 45 H -1.898722 -5.422329 0.486454 0
M  V30 46 H -4.284796 -3.266907 -1.574474 0
M  V30 47 H -3.919129 -2.682492 0.132208 0
M  V30 48 H -4.860820 -0.664336 -0.810002 0
M  V30 49 H -4.123885 -1.092781 -2.443800 0
M  V30 END ATOM
M  V30 BEGIN BOND
M  V30 1 1 1 2
M  V30 2 1 2 3
M  V30 3 1 3 4
M  V30 4 1 4 5
M  V30 5 2 5 6
M  V30 6 1 6 7
M  V30 7 2 7 8
M  V30 8 1 8 9
M  V30 9 1 9 10
M  V30 10 2 10 11
M  V30 11 1 11 12
M  V30 12 2 12 13
M  V30 13 1 13 14
M  V30 14 2 14 15
M  V30 15 1 15 16
M  V30 16 1 15 17
M  V30 17 2 17 18
M  V30 18 1 11 19
M  V30 19 2 19 20
M  V30 20 1 20 21
M  V30 21 1 21 22
M  V30 22 1 22 23
M  V30 23 1 23 24
M  V30 24 1 22 25
M  V30 25 1 25 26
M  V30 26 2 9 27
M  V30 27 1 27 5
M  V30 28 1 21 10
M  V30 29 1 18 12
M  V30 30 1 26 20
M  V30 31 1 1 28
M  V30 32 1 1 29
M  V30 33 1 1 30
M  V30 34 1 2 31
M  V30 35 1 2 32
M  V30 36 1 3 33
M  V30 37 1 3 34
M  V30 38 1 4 35
M  V30 39 1 7 36
M  V30 40 1 8 37
M  V30 41 1 13 38
M  V30 42 1 14 39
M  V30 43 1 17 40
M  V30 44 1 18 41
M  V30 45 1 22 42 CFG=3
M  V30 46 1 23 43
M  V30 47 1 23 44
M  V30 48 1 24 45
M  V30 49 1 25 46
M  V30 50 1 25 47
M  V30 51 1 26 48
M  V30 52 1 26 49
M  V30 END BOND
M  V30 END CTAB
M  END
>  <Dataset>  (629) 
ChEMBL_Kinases

>  <Ligand_Instance>  (629) 
nan

>  <PDB_ID>  (629) 
nan

>  <Standardized_SMILES>  (629) 
CCCNc1nccc(-c2c(-c3ccc(F)cc3)nc3n2[C@@H](CO)CC3)n1

>  <Name>  (629) 
nan

>  <Pocket>  (629) 
nan

>  <ATP_Site>  (629) 
nan

>  <Peripheral>  (629) 
nan

>  <Num_H_Atoms_ProtBoundConf>  (629) 
nan

>  <Num_Resolved_Atoms>  (629) 
nan

>  <Num_Not_Resolved_Atoms>  (629) 
nan

$$$$
CHEMBL383875
     RDKit          3D

  0  0  0  0  0  0  0  0  0  0999 V3000
M  V30 BEGIN CTAB
M  V30 COUNTS 57 60 0 0 0
M  V30 BEGIN ATOM
M  V30 1 C 2.139657 5.375046 6.115970 0
M  V30 2 O 1.624170 4.405894 5.206241 0
M  V30 3 C 1.560099 3.082217 5.597172 0
M  V30 4 C 1.994925 2.701534 6.867081 0
M  V30 5 C 1.931561 1.391295 7.253912 0
M  V30 6 C 1.431535 0.434403 6.377523 0
M  V30 7 C 1.009304 0.850509 5.125068 0
M  V30 8 C 1.050578 2.156638 4.683427 0
M  V30 9 C 0.613460 2.610512 3.388545 0
M  V30 10 O -0.085854 3.633930 3.492044 0
M  V30 11 C 0.866428 2.063853 2.062413 0
M  V30 12 C 1.636293 0.954135 1.795620 0
M  V30 13 N 1.786221 0.563714 0.516777 0
M  V30 14 C 1.229954 1.189202 -0.531146 0
M  V30 15 N 1.546554 0.574140 -1.771712 0
M  V30 16 C 0.677384 -0.469083 -2.205144 0
M  V30 17 C -0.409819 -0.844697 -1.443852 0
M  V30 18 C -1.238635 -1.859999 -1.880062 0
M  V30 19 C -1.058985 -2.539489 -3.039885 0
M  V30 20 N -1.892317 -3.565427 -3.486123 0
M  V30 21 C -3.095545 -4.028946 -2.823187 0
M  V30 22 C -2.921596 -5.457255 -2.285564 0
M  V30 23 N -1.938990 -6.063634 -3.148305 0
M  V30 24 C -1.571835 -7.387625 -2.812369 0
M  V30 25 C -2.124432 -5.763421 -4.528226 0
M  V30 26 C -1.642807 -4.315158 -4.703344 0
M  V30 27 C 0.023760 -2.172781 -3.808704 0
M  V30 28 C 0.872085 -1.155021 -3.392135 0
M  V30 29 N 0.479984 2.272285 -0.258500 0
M  V30 30 C 0.287774 2.718197 0.997265 0
M  V30 31 N -0.534466 3.877165 1.099490 0
M  V30 32 H 1.532276 5.388085 7.053694 0
M  V30 33 H 2.148296 6.378070 5.668879 0
M  V30 34 H 3.187423 5.121405 6.426141 0
M  V30 35 H 2.388556 3.408088 7.577506 0
M  V30 36 H 2.243091 0.985790 8.220716 0
M  V30 37 H 1.358279 -0.633190 6.638002 0
M  V30 38 H 0.626308 0.098565 4.469110 0
M  V30 39 H 2.091254 0.438676 2.613860 0
M  V30 40 H 2.352926 0.827870 -2.373558 0
M  V30 41 H -0.596371 -0.321316 -0.495199 0
M  V30 42 H -2.055375 -2.079611 -1.219639 0
M  V30 43 H -3.419690 -3.338481 -2.042286 0
M  V30 44 H -3.920201 -4.034709 -3.594078 0
M  V30 45 H -3.912637 -5.932975 -2.326200 0
M  V30 46 H -2.547699 -5.453806 -1.263908 0
M  V30 47 H -0.762535 -7.336358 -2.026322 0
M  V30 48 H -2.395425 -8.058317 -2.499576 0
M  V30 49 H -1.066733 -7.848118 -3.703900 0
M  V30 50 H -1.538359 -6.467775 -5.148018 0
M  V30 51 H -3.156095 -5.769038 -4.894622 0
M  V30 52 H -0.540629 -4.433760 -4.912284 0
M  V30 53 H -2.154994 -3.807204 -5.540188 0
M  V30 54 H 0.312012 -2.597912 -4.744115 0
M  V30 55 H 1.746228 -0.817388 -3.954590 0
M  V30 56 H -0.542964 4.921206 1.140935 0
M  V30 57 H -1.561374 3.616320 1.160439 0
M  V30 END ATOM
M  V30 BEGIN BOND
M  V30 1 1 1 2
M  V30 2 1 2 3
M  V30 3 2 3 4
M  V30 4 1 4 5
M  V30 5 2 5 6
M  V30 6 1 6 7
M  V30 7 2 7 8
M  V30 8 1 8 9
M  V30 9 2 9 10
M  V30 10 1 9 11
M  V30 11 2 11 12
M  V30 12 1 12 13
M  V30 13 2 13 14
M  V30 14 1 14 15
M  V30 15 1 15 16
M  V30 16 2 16 17
M  V30 17 1 17 18
M  V30 18 2 18 19
M  V30 19 1 19 20
M  V30 20 1 20 21
M  V30 21 1 21 22
M  V30 22 1 22 23
M  V30 23 1 23 24
M  V30 24 1 23 25
M  V30 25 1 25 26
M  V30 26 1 19 27
M  V30 27 2 27 28
M  V30 28 1 14 29
M  V30 29 2 29 30
M  V30 30 1 30 31
M  V30 31 1 8 3
M  V30 32 1 30 11
M  V30 33 1 28 16
M  V30 34 1 26 20
M  V30 35 1 1 32
M  V30 36 1 1 33
M  V30 37 1 1 34
M  V30 38 1 4 35
M  V30 39 1 5 36
M  V30 40 1 6 37
M  V30 41 1 7 38
M  V30 42 1 12 39
M  V30 43 1 15 40
M  V30 44 1 17 41
M  V30 45 1 18 42
M  V30 46 1 21 43
M  V30 47 1 21 44
M  V30 48 1 22 45
M  V30 49 1 22 46
M  V30 50 1 24 47
M  V30 51 1 24 48
M  V30 52 1 24 49
M  V30 53 1 25 50
M  V30 54 1 25 51
M  V30 55 1 26 52
M  V30 56 1 26 53
M  V30 57 1 27 54
M  V30 58 1 28 55
M  V30 59 1 31 56
M  V30 60 1 31 57
M  V30 END BOND
M  V30 END CTAB
M  END
>  <Dataset>  (630) 
ChEMBL_Kinases

>  <Ligand_Instance>  (630) 
nan

>  <PDB_ID>  (630) 
nan

>  <Standardized_SMILES>  (630) 
COc1ccccc1C(=O)c1cnc(Nc2ccc(N3CCN(C)CC3)cc2)nc1N

>  <Name>  (630) 
nan

>  <Pocket>  (630) 
nan

>  <ATP_Site>  (630) 
nan

>  <Peripheral>  (630) 
nan

>  <Num_H_Atoms_ProtBoundConf>  (630) 
nan

>  <Num_Resolved_Atoms>  (630) 
nan

>  <Num_Not_Resolved_Atoms>  (630) 
nan

$$$$
CHEMBL383955
     RDKit          3D

  0  0  0  0  0  0  0  0  0  0999 V3000
M  V30 BEGIN CTAB
M  V30 COUNTS 56 60 0 0 0
M  V30 BEGIN ATOM
M  V30 1 O 1.995730 -6.001726 0.450204 0
M  V30 2 C 1.218365 -5.238251 1.061104 0
M  V30 3 N 1.602134 -3.882580 1.160361 0
M  V30 4 C 2.860547 -3.623485 0.517377 0
M  V30 5 C 3.239859 -2.163513 0.643861 0
M  V30 6 C 3.993478 -1.576330 1.704041 0
M  V30 7 C 4.192915 -0.231009 1.562258 0
M  V30 8 C 3.712024 0.471190 0.503534 0
M  V30 9 S 3.723266 2.067816 -0.044179 0
M  V30 10 O 4.329773 2.089302 -1.440645 0
M  V30 11 O 4.621369 2.929176 0.790384 0
M  V30 12 N 2.153285 2.696071 -0.188174 0
M  V30 13 C 1.404818 2.759459 0.998167 0
M  V30 14 C -0.058374 2.932904 0.903026 0
M  V30 15 C -0.695247 2.649848 -0.409724 0
M  V30 16 N -1.945100 1.924082 -0.200826 0
M  V30 17 N -1.991348 0.974314 0.732507 0
M  V30 18 N -3.185574 0.434024 0.778600 0
M  V30 19 C -3.952969 1.046956 -0.154687 0
M  V30 20 C -5.258109 0.939531 -0.588741 0
M  V30 21 C -5.707426 1.752928 -1.591036 0
M  V30 22 C -4.879123 2.698582 -2.195604 0
M  V30 23 C -3.557097 2.835008 -1.783629 0
M  V30 24 C -3.151583 1.995751 -0.773573 0
M  V30 25 C 0.210102 1.706610 -1.176542 0
M  V30 26 C 1.483088 2.459893 -1.412164 0
M  V30 27 S 2.850277 -0.842705 -0.480710 0
M  V30 28 C -0.008997 -5.793645 1.618243 0
M  V30 29 C -0.227606 -7.140437 1.429336 0
M  V30 30 C -1.399528 -7.680365 1.959196 0
M  V30 31 C -2.315890 -6.921201 2.646310 0
M  V30 32 Cl -3.780558 -7.638396 3.298837 0
M  V30 33 C -2.099670 -5.558514 2.840217 0
M  V30 34 C -0.930838 -5.042438 2.306577 0
M  V30 35 H 0.957516 -3.227867 1.671879 0
M  V30 36 H 3.641755 -4.254110 0.983784 0
M  V30 37 H 2.799938 -3.801317 -0.581931 0
M  V30 38 H 4.370253 -2.144904 2.540091 0
M  V30 39 H 4.738021 0.387585 2.260261 0
M  V30 40 H 1.863940 3.538602 1.670753 0
M  V30 41 H 1.580718 1.796148 1.561275 0
M  V30 42 H -0.272147 4.019098 1.130806 0
M  V30 43 H -0.609891 2.397299 1.723404 0
M  V30 44 H -0.851663 3.542960 -1.049957 0
M  V30 45 H -5.842905 0.187390 -0.077155 0
M  V30 46 H -6.731495 1.649820 -1.912764 0
M  V30 47 H -5.277414 3.330643 -2.994825 0
M  V30 48 H -2.886681 3.554925 -2.227319 0
M  V30 49 H -0.295737 1.445760 -2.139068 0
M  V30 50 H 0.360492 0.827005 -0.547550 0
M  V30 51 H 1.206882 3.449465 -1.854457 0
M  V30 52 H 2.177605 1.908996 -2.081401 0
M  V30 53 H 0.450507 -7.780325 0.902856 0
M  V30 54 H -1.627723 -8.724883 1.845469 0
M  V30 55 H -2.807891 -4.946539 3.377078 0
M  V30 56 H -0.766572 -3.990467 2.457708 0
M  V30 END ATOM
M  V30 BEGIN BOND
M  V30 1 2 1 2
M  V30 2 1 2 3
M  V30 3 1 3 4
M  V30 4 1 4 5
M  V30 5 2 5 6
M  V30 6 1 6 7
M  V30 7 2 7 8
M  V30 8 1 8 9
M  V30 9 2 9 10
M  V30 10 2 9 11
M  V30 11 1 9 12
M  V30 12 1 12 13
M  V30 13 1 13 14
M  V30 14 1 14 15
M  V30 15 1 15 16
M  V30 16 1 16 17
M  V30 17 2 17 18
M  V30 18 1 18 19
M  V30 19 2 19 20
M  V30 20 1 20 21
M  V30 21 2 21 22
M  V30 22 1 22 23
M  V30 23 2 23 24
M  V30 24 1 15 25
M  V30 25 1 25 26
M  V30 26 1 8 27
M  V30 27 1 2 28
M  V30 28 2 28 29
M  V30 29 1 29 30
M  V30 30 2 30 31
M  V30 31 1 31 32
M  V30 32 1 31 33
M  V30 33 2 33 34
M  V30 34 1 27 5
M  V30 35 1 34 28
M  V30 36 1 26 12
M  V30 37 1 24 16
M  V30 38 1 24 19
M  V30 39 1 3 35
M  V30 40 1 4 36
M  V30 41 1 4 37
M  V30 42 1 6 38
M  V30 43 1 7 39
M  V30 44 1 13 40
M  V30 45 1 13 41
M  V30 46 1 14 42
M  V30 47 1 14 43
M  V30 48 1 15 44
M  V30 49 1 20 45
M  V30 50 1 21 46
M  V30 51 1 22 47
M  V30 52 1 23 48
M  V30 53 1 25 49
M  V30 54 1 25 50
M  V30 55 1 26 51
M  V30 56 1 26 52
M  V30 57 1 29 53
M  V30 58 1 30 54
M  V30 59 1 33 55
M  V30 60 1 34 56
M  V30 END BOND
M  V30 END CTAB
M  END
>  <Dataset>  (631) 
ChEMBL_Kinases

>  <Ligand_Instance>  (631) 
nan

>  <PDB_ID>  (631) 
nan

>  <Standardized_SMILES>  (631) 
O=C(NCc1ccc(S(=O)(=O)N2CCC(n3nnc4ccccc43)CC2)s1)c1ccc(Cl)cc1

>  <Name>  (631) 
nan

>  <Pocket>  (631) 
nan

>  <ATP_Site>  (631) 
nan

>  <Peripheral>  (631) 
nan

>  <Num_H_Atoms_ProtBoundConf>  (631) 
nan

>  <Num_Resolved_Atoms>  (631) 
nan

>  <Num_Not_Resolved_Atoms>  (631) 
nan

$$$$
CHEMBL3578250
     RDKit          3D

  0  0  0  0  0  0  0  0  0  0999 V3000
M  V30 BEGIN CTAB
M  V30 COUNTS 47 50 0 0 0
M  V30 BEGIN ATOM
M  V30 1 C 0.983291 -4.003102 2.722307 0
M  V30 2 O 2.151498 -4.554999 2.140731 0
M  V30 3 C 3.148718 -3.781456 1.593191 0
M  V30 4 C 4.277737 -4.354895 1.032709 0
M  V30 5 C 5.215878 -3.519598 0.513142 0
M  V30 6 C 5.121267 -2.143560 0.505605 0
M  V30 7 C 4.006644 -1.535774 1.057247 0
M  V30 8 C 3.696420 -0.085239 1.157945 0 CFG=1
M  V30 9 C 4.528915 0.666489 0.144011 0
M  V30 10 N 2.289592 0.033616 0.751329 0
M  V30 11 C 1.355197 0.620337 1.623191 0
M  V30 12 O 1.779453 1.020309 2.725737 0
M  V30 13 C -0.059421 0.780013 1.304934 0
M  V30 14 C -0.879802 1.373251 2.244582 0
M  V30 15 C -2.240611 1.539020 1.966118 0
M  V30 16 C -2.747840 1.110926 0.762416 0
M  V30 17 C -1.952320 0.515443 -0.194158 0
M  V30 18 C -0.601604 0.363617 0.110790 0
M  V30 19 O -2.498186 0.094892 -1.399338 0
M  V30 20 C -3.841300 0.222117 -1.756613 0
M  V30 21 C -4.676524 0.858099 -0.727926 0
M  V30 22 C -6.011646 1.022108 -0.998455 0
M  V30 23 N -6.838599 1.605947 -0.083129 0
M  V30 24 C -6.328488 2.023616 1.098809 0
M  V30 25 C -4.985439 1.856392 1.365915 0
M  V30 26 C -4.139314 1.271949 0.458396 0
M  V30 27 C 3.039700 -2.395390 1.592713 0
M  V30 28 H 0.372853 -4.771940 3.211740 0
M  V30 29 H 1.220100 -3.241855 3.514779 0
M  V30 30 H 0.446139 -3.448604 1.933756 0
M  V30 31 H 4.379494 -5.420166 1.023780 0
M  V30 32 H 6.118384 -3.931127 0.063148 0
M  V30 33 H 5.838623 -1.445008 0.105884 0
M  V30 34 H 3.843913 0.324830 2.153389 0
M  V30 35 H 4.211254 1.746051 0.176614 0
M  V30 36 H 4.335596 0.326252 -0.881356 0
M  V30 37 H 5.600563 0.567047 0.401760 0
M  V30 38 H 1.990406 -0.316342 -0.178972 0
M  V30 39 H -0.459143 1.704180 3.188718 0
M  V30 40 H -2.799758 2.009342 2.754760 0
M  V30 41 H 0.015390 -0.101635 -0.638893 0
M  V30 42 H -3.899885 0.802956 -2.701020 0
M  V30 43 H -4.292550 -0.786753 -1.965256 0
M  V30 44 H -6.493347 0.716243 -1.915744 0
M  V30 45 H -7.040679 2.476125 1.774123 0
M  V30 46 H -4.714035 2.231578 2.338186 0
M  V30 47 H 2.123551 -1.989575 2.049999 0
M  V30 END ATOM
M  V30 BEGIN BOND
M  V30 1 1 1 2
M  V30 2 1 2 3
M  V30 3 2 3 4
M  V30 4 1 4 5
M  V30 5 2 5 6
M  V30 6 1 6 7
M  V30 7 1 7 8
M  V30 8 1 8 9
M  V30 9 1 8 10
M  V30 10 1 10 11
M  V30 11 2 11 12
M  V30 12 1 11 13
M  V30 13 2 13 14
M  V30 14 1 14 15
M  V30 15 2 15 16
M  V30 16 1 16 17
M  V30 17 2 17 18
M  V30 18 1 17 19
M  V30 19 1 19 20
M  V30 20 1 20 21
M  V30 21 2 21 22
M  V30 22 1 22 23
M  V30 23 2 23 24
M  V30 24 1 24 25
M  V30 25 2 25 26
M  V30 26 2 7 27
M  V30 27 1 27 3
M  V30 28 1 18 13
M  V30 29 1 26 21
M  V30 30 1 26 16
M  V30 31 1 1 28
M  V30 32 1 1 29
M  V30 33 1 1 30
M  V30 34 1 4 31
M  V30 35 1 5 32
M  V30 36 1 6 33
M  V30 37 1 8 34 CFG=1
M  V30 38 1 9 35
M  V30 39 1 9 36
M  V30 40 1 9 37
M  V30 41 1 10 38
M  V30 42 1 14 39
M  V30 43 1 15 40
M  V30 44 1 18 41
M  V30 45 1 20 42
M  V30 46 1 20 43
M  V30 47 1 22 44
M  V30 48 1 24 45
M  V30 49 1 25 46
M  V30 50 1 27 47
M  V30 END BOND
M  V30 END CTAB
M  END
>  <Dataset>  (632) 
ChEMBL_Kinases

>  <Ligand_Instance>  (632) 
nan

>  <PDB_ID>  (632) 
nan

>  <Standardized_SMILES>  (632) 
COc1cccc([C@@H](C)NC(=O)c2ccc3c(c2)OCc2cnccc2-3)c1

>  <Name>  (632) 
nan

>  <Pocket>  (632) 
nan

>  <ATP_Site>  (632) 
nan

>  <Peripheral>  (632) 
nan

>  <Num_H_Atoms_ProtBoundConf>  (632) 
nan

>  <Num_Resolved_Atoms>  (632) 
nan

>  <Num_Not_Resolved_Atoms>  (632) 
nan

$$$$
CHEMBL3578252
     RDKit          3D

  0  0  0  0  0  0  0  0  0  0999 V3000
M  V30 BEGIN CTAB
M  V30 COUNTS 53 56 0 0 0
M  V30 BEGIN ATOM
M  V30 1 C 1.463829 -4.174972 -1.313102 0
M  V30 2 C 2.783436 -3.647222 -1.731545 0
M  V30 3 C 2.786210 -2.289183 -2.383990 0
M  V30 4 O 4.171815 -2.046750 -2.678939 0
M  V30 5 C 4.911224 -1.026043 -2.165732 0
M  V30 6 C 6.246485 -1.004948 -2.499844 0
M  V30 7 N 7.029525 -0.015772 -2.020230 0
M  V30 8 C 6.551628 0.958771 -1.221432 0
M  V30 9 C 5.194353 0.941765 -0.878659 0
M  V30 10 C 4.376086 -0.055799 -1.354826 0
M  V30 11 C 2.967542 -0.129673 -1.035645 0
M  V30 12 C 2.414047 0.852245 -0.265259 0
M  V30 13 C 1.064530 0.822254 0.014339 0
M  V30 14 C 0.271760 -0.193569 -0.480012 0
M  V30 15 C -1.164449 -0.307854 -0.237620 0
M  V30 16 O -1.854603 -1.257949 -0.711801 0
M  V30 17 N -1.868375 0.634085 0.539660 0
M  V30 18 C -3.290616 0.474407 0.749012 0 CFG=2
M  V30 19 C -4.122599 1.644570 0.342743 0
M  V30 20 C -3.476849 0.297531 2.234514 0
M  V30 21 C -2.833564 1.091726 3.149933 0
M  V30 22 C -3.015027 0.916702 4.504282 0
M  V30 23 C -3.855004 -0.069860 4.969413 0
M  V30 24 C -4.515770 -0.884299 4.073233 0
M  V30 25 O -5.395059 -1.923435 4.349431 0
M  V30 26 C -5.758833 -2.317055 5.656204 0
M  V30 27 C -4.331139 -0.706090 2.699624 0
M  V30 28 C 0.901365 -1.156111 -1.253799 0
M  V30 29 C 2.254968 -1.197250 -1.579835 0
M  V30 30 H 1.626437 -5.270849 -1.060273 0
M  V30 31 H 1.130938 -3.739145 -0.362563 0
M  V30 32 H 0.695957 -4.217350 -2.112028 0
M  V30 33 H 3.490401 -3.728271 -0.908437 0
M  V30 34 H 3.179545 -4.342347 -2.528886 0
M  V30 35 H 2.246807 -2.338081 -3.333639 0
M  V30 36 H 6.699290 -1.765990 -3.144457 0
M  V30 37 H 7.250876 1.726924 -0.872860 0
M  V30 38 H 4.844660 1.732349 -0.240191 0
M  V30 39 H 2.923558 1.675941 0.164941 0
M  V30 40 H 0.585381 1.576059 0.617966 0
M  V30 41 H -1.401757 1.456836 0.979295 0
M  V30 42 H -3.678797 -0.428464 0.239436 0
M  V30 43 H -4.999958 1.707247 1.015350 0
M  V30 44 H -3.572600 2.616752 0.467512 0
M  V30 45 H -4.386449 1.597966 -0.730728 0
M  V30 46 H -2.167485 1.875350 2.824873 0
M  V30 47 H -2.541330 1.503956 5.258921 0
M  V30 48 H -4.098627 -0.328907 5.995552 0
M  V30 49 H -5.803513 -1.446827 6.346485 0
M  V30 50 H -5.036165 -3.054805 6.074030 0
M  V30 51 H -6.752438 -2.806849 5.620330 0
M  V30 52 H -4.817979 -1.309665 1.923808 0
M  V30 53 H 0.262400 -1.936036 -1.636952 0
M  V30 END ATOM
M  V30 BEGIN BOND
M  V30 1 1 1 2
M  V30 2 1 2 3
M  V30 3 1 3 4
M  V30 4 1 4 5
M  V30 5 2 5 6
M  V30 6 1 6 7
M  V30 7 2 7 8
M  V30 8 1 8 9
M  V30 9 2 9 10
M  V30 10 1 10 11
M  V30 11 2 11 12
M  V30 12 1 12 13
M  V30 13 2 13 14
M  V30 14 1 14 15
M  V30 15 2 15 16
M  V30 16 1 15 17
M  V30 17 1 17 18
M  V30 18 1 18 19
M  V30 19 1 18 20
M  V30 20 2 20 21
M  V30 21 1 21 22
M  V30 22 2 22 23
M  V30 23 1 23 24
M  V30 24 1 24 25
M  V30 25 1 25 26
M  V30 26 2 24 27
M  V30 27 1 14 28
M  V30 28 2 28 29
M  V30 29 1 29 3
M  V30 30 1 10 5
M  V30 31 1 29 11
M  V30 32 1 27 20
M  V30 33 1 1 30
M  V30 34 1 1 31
M  V30 35 1 1 32
M  V30 36 1 2 33
M  V30 37 1 2 34
M  V30 38 1 3 35
M  V30 39 1 6 36
M  V30 40 1 8 37
M  V30 41 1 9 38
M  V30 42 1 12 39
M  V30 43 1 13 40
M  V30 44 1 17 41
M  V30 45 1 18 42 CFG=3
M  V30 46 1 19 43
M  V30 47 1 19 44
M  V30 48 1 19 45
M  V30 49 1 21 46
M  V30 50 1 22 47
M  V30 51 1 23 48
M  V30 52 1 26 49
M  V30 53 1 26 50
M  V30 54 1 26 51
M  V30 55 1 27 52
M  V30 56 1 28 53
M  V30 END BOND
M  V30 END CTAB
M  END
>  <Dataset>  (633) 
ChEMBL_Kinases

>  <Ligand_Instance>  (633) 
nan

>  <PDB_ID>  (633) 
nan

>  <Standardized_SMILES>  (633) 
CCC1Oc2cnccc2-c2ccc(C(=O)N[C@H](C)c3cccc(OC)c3)cc21

>  <Name>  (633) 
nan

>  <Pocket>  (633) 
nan

>  <ATP_Site>  (633) 
nan

>  <Peripheral>  (633) 
nan

>  <Num_H_Atoms_ProtBoundConf>  (633) 
nan

>  <Num_Resolved_Atoms>  (633) 
nan

>  <Num_Not_Resolved_Atoms>  (633) 
nan

$$$$
CHEMBL4086619
     RDKit          3D

  0  0  0  0  0  0  0  0  0  0999 V3000
M  V30 BEGIN CTAB
M  V30 COUNTS 52 55 0 0 0
M  V30 BEGIN ATOM
M  V30 1 C -0.739311 -4.695132 0.752040 0
M  V30 2 N 0.641286 -4.963560 0.414824 0
M  V30 3 C 1.693073 -4.288711 0.917077 0
M  V30 4 C 1.579413 -3.157522 1.902870 0
M  V30 5 N 1.461930 -1.904235 1.165156 0
M  V30 6 C 1.340439 -0.693948 1.900342 0
M  V30 7 C 1.336638 -0.719130 3.279524 0
M  V30 8 C 1.216309 0.474295 3.961145 0
M  V30 9 C 1.103522 1.655273 3.258440 0
M  V30 10 C 1.102300 1.731748 1.882166 0
M  V30 11 C 0.986230 2.945875 1.095778 0
M  V30 12 O 0.998808 2.872848 -0.174639 0
M  V30 13 N 0.855813 4.244607 1.635455 0
M  V30 14 C 0.733067 5.507428 0.971204 0
M  V30 15 C -0.643609 5.662076 0.451204 0
M  V30 16 C -1.095293 5.293220 -0.796515 0
M  V30 17 C -2.377877 5.449763 -1.239143 0
M  V30 18 C -3.314980 6.010494 -0.413641 0
M  V30 19 C -2.926475 6.399665 0.844278 0
M  V30 20 C -1.624400 6.228409 1.262127 0
M  V30 21 C 1.224650 0.514735 1.246881 0
M  V30 22 N 2.771749 -4.853780 0.346023 0
M  V30 23 N 2.368928 -5.824462 -0.461653 0
M  V30 24 C 1.013308 -5.927630 -0.446490 0
M  V30 25 C 0.137337 -6.842930 -1.169657 0
M  V30 26 C 0.186026 -7.038641 -2.536779 0
M  V30 27 C -0.680187 -7.928065 -3.164402 0
M  V30 28 N -1.595842 -8.631291 -2.475324 0
M  V30 29 C -1.666244 -8.461251 -1.144105 0
M  V30 30 C -0.822020 -7.583956 -0.473039 0
M  V30 31 H -0.953024 -5.139715 1.766761 0
M  V30 32 H -1.464864 -4.964626 -0.015265 0
M  V30 33 H -0.835074 -3.593231 0.927474 0
M  V30 34 H 2.407646 -3.153501 2.621451 0
M  V30 35 H 0.626444 -3.270067 2.446242 0
M  V30 36 H 1.465149 -1.874198 0.122559 0
M  V30 37 H 1.423406 -1.629822 3.855243 0
M  V30 38 H 1.207159 0.518241 5.055652 0
M  V30 39 H 1.010594 2.575077 3.816062 0
M  V30 40 H 0.850518 4.252550 2.697734 0
M  V30 41 H 1.027839 6.323000 1.647183 0
M  V30 42 H 1.448624 5.594171 0.100705 0
M  V30 43 H -0.377078 4.851548 -1.465777 0
M  V30 44 H -2.681312 5.141901 -2.231247 0
M  V30 45 H -4.316665 6.126128 -0.777029 0
M  V30 46 H -3.633328 6.846660 1.527865 0
M  V30 47 H -1.363511 6.549785 2.261209 0
M  V30 48 H 1.232829 0.479940 0.160810 0
M  V30 49 H 0.931294 -6.466252 -3.097568 0
M  V30 50 H -0.621246 -8.063556 -4.243004 0
M  V30 51 H -2.407381 -9.031416 -0.589879 0
M  V30 52 H -0.878269 -7.445352 0.605361 0
M  V30 END ATOM
M  V30 BEGIN BOND
M  V30 1 1 1 2
M  V30 2 1 2 3
M  V30 3 1 3 4
M  V30 4 1 4 5
M  V30 5 1 5 6
M  V30 6 2 6 7
M  V30 7 1 7 8
M  V30 8 2 8 9
M  V30 9 1 9 10
M  V30 10 1 10 11
M  V30 11 2 11 12
M  V30 12 1 11 13
M  V30 13 1 13 14
M  V30 14 1 14 15
M  V30 15 2 15 16
M  V30 16 1 16 17
M  V30 17 2 17 18
M  V30 18 1 18 19
M  V30 19 2 19 20
M  V30 20 2 10 21
M  V30 21 2 3 22
M  V30 22 1 22 23
M  V30 23 2 23 24
M  V30 24 1 24 25
M  V30 25 2 25 26
M  V30 26 1 26 27
M  V30 27 2 27 28
M  V30 28 1 28 29
M  V30 29 2 29 30
M  V30 30 1 24 2
M  V30 31 1 30 25
M  V30 32 1 21 6
M  V30 33 1 20 15
M  V30 34 1 1 31
M  V30 35 1 1 32
M  V30 36 1 1 33
M  V30 37 1 4 34
M  V30 38 1 4 35
M  V30 39 1 5 36
M  V30 40 1 7 37
M  V30 41 1 8 38
M  V30 42 1 9 39
M  V30 43 1 13 40
M  V30 44 1 14 41
M  V30 45 1 14 42
M  V30 46 1 16 43
M  V30 47 1 17 44
M  V30 48 1 18 45
M  V30 49 1 19 46
M  V30 50 1 20 47
M  V30 51 1 21 48
M  V30 52 1 26 49
M  V30 53 1 27 50
M  V30 54 1 29 51
M  V30 55 1 30 52
M  V30 END BOND
M  V30 END CTAB
M  END
>  <Dataset>  (634) 
ChEMBL_Kinases

>  <Ligand_Instance>  (634) 
nan

>  <PDB_ID>  (634) 
nan

>  <Standardized_SMILES>  (634) 
Cn1c(CNc2cccc(C(=O)NCc3ccccc3)c2)nnc1-c1ccncc1

>  <Name>  (634) 
nan

>  <Pocket>  (634) 
nan

>  <ATP_Site>  (634) 
nan

>  <Peripheral>  (634) 
nan

>  <Num_H_Atoms_ProtBoundConf>  (634) 
nan

>  <Num_Resolved_Atoms>  (634) 
nan

>  <Num_Not_Resolved_Atoms>  (634) 
nan

$$$$
CHEMBL3580667
     RDKit          3D

  0  0  0  0  0  0  0  0  0  0999 V3000
M  V30 BEGIN CTAB
M  V30 COUNTS 44 49 0 0 0
M  V30 BEGIN ATOM
M  V30 1 N 1.532385 -6.888672 2.612980 0
M  V30 2 C 1.342770 -5.445889 2.707169 0 CFG=2
M  V30 3 C 0.161072 -4.902725 2.012237 0 CFG=1
M  V30 4 C -0.328433 -3.510716 2.367359 0
M  V30 5 N 0.427816 -2.728851 1.403629 0
M  V30 6 C -0.070747 -1.730800 0.506934 0
M  V30 7 N 0.831870 -1.071799 -0.284306 0
M  V30 8 C 0.285963 -0.139476 -1.121752 0
M  V30 9 N 1.033460 0.666903 -2.021169 0
M  V30 10 C 1.366120 1.981379 -1.532976 0
M  V30 11 C 1.016337 2.488725 -0.288301 0
M  V30 12 C 1.511426 3.788570 -0.194623 0
M  V30 13 C 1.354261 4.707216 0.990907 0
M  V30 14 C 1.596087 4.032397 2.359746 0
M  V30 15 C 0.223675 4.439764 1.937899 0
M  V30 16 N 2.136804 4.032162 -1.360426 0
M  V30 17 N 2.058010 2.970405 -2.161191 0
M  V30 18 C -1.080839 0.084801 -1.131219 0
M  V30 19 S -2.058649 1.185029 -2.066860 0
M  V30 20 C -3.690625 0.637426 -1.270529 0
M  V30 21 C -3.289201 -0.361458 -0.345716 0
M  V30 22 C -1.940553 -0.586685 -0.333756 0
M  V30 23 N -1.380118 -1.498781 0.481252 0
M  V30 24 C 1.801746 -3.164568 1.524835 0
M  V30 25 C 1.594394 -4.684595 1.476181 0 CFG=1
M  V30 26 H 0.817703 -7.329181 3.248538 0
M  V30 27 H 1.366089 -7.225114 1.627199 0
M  V30 28 H 1.577174 -5.018970 3.691540 0
M  V30 29 H -0.490660 -5.537729 1.381982 0
M  V30 30 H -1.425073 -3.391542 2.225940 0
M  V30 31 H -0.025394 -3.292799 3.410661 0
M  V30 32 H 1.381247 0.443487 -2.992440 0
M  V30 33 H 0.448588 1.983552 0.509445 0
M  V30 34 H 1.730416 5.729756 0.931324 0
M  V30 35 H 2.119926 4.644339 3.133570 0
M  V30 36 H 1.888560 2.978197 2.341647 0
M  V30 37 H -0.461547 3.566634 1.731889 0
M  V30 38 H -0.270048 5.273634 2.464933 0
M  V30 39 H 2.623167 4.916954 -1.629837 0
M  V30 40 H -4.754840 0.988925 -1.451271 0
M  V30 41 H -4.088139 -0.806754 0.218103 0
M  V30 42 H 2.221627 -2.898786 2.533556 0
M  V30 43 H 2.453702 -2.823860 0.706698 0
M  V30 44 H 1.850356 -5.171321 0.525806 0
M  V30 END ATOM
M  V30 BEGIN BOND
M  V30 1 1 1 2
M  V30 2 1 2 3
M  V30 3 1 3 4
M  V30 4 1 4 5
M  V30 5 1 5 6
M  V30 6 2 6 7
M  V30 7 1 7 8
M  V30 8 1 8 9
M  V30 9 1 9 10
M  V30 10 1 10 11
M  V30 11 2 11 12
M  V30 12 1 12 13
M  V30 13 1 13 14
M  V30 14 1 14 15
M  V30 15 1 12 16
M  V30 16 1 16 17
M  V30 17 2 8 18
M  V30 18 1 18 19
M  V30 19 1 19 20
M  V30 20 2 20 21
M  V30 21 1 21 22
M  V30 22 2 22 23
M  V30 23 1 5 24
M  V30 24 1 24 25
M  V30 25 1 25 2
M  V30 26 1 25 3
M  V30 27 1 23 6
M  V30 28 2 17 10
M  V30 29 1 22 18
M  V30 30 1 15 13
M  V30 31 1 1 26
M  V30 32 1 1 27
M  V30 33 1 2 28 CFG=1
M  V30 34 1 3 29 CFG=3
M  V30 35 1 4 30
M  V30 36 1 4 31
M  V30 37 1 9 32
M  V30 38 1 11 33
M  V30 39 1 13 34
M  V30 40 1 14 35
M  V30 41 1 14 36
M  V30 42 1 15 37
M  V30 43 1 15 38
M  V30 44 1 16 39
M  V30 45 1 20 40
M  V30 46 1 21 41
M  V30 47 1 24 42
M  V30 48 1 24 43
M  V30 49 1 25 44 CFG=3
M  V30 END BOND
M  V30 END CTAB
M  END
>  <Dataset>  (635) 
ChEMBL_Kinases

>  <Ligand_Instance>  (635) 
nan

>  <PDB_ID>  (635) 
nan

>  <Standardized_SMILES>  (635) 
N[C@@H]1[C@H]2CN(c3nc(Nc4cc(C5CC5)[nH]n4)c4sccc4n3)C[C@@H]12

>  <Name>  (635) 
nan

>  <Pocket>  (635) 
nan

>  <ATP_Site>  (635) 
nan

>  <Peripheral>  (635) 
nan

>  <Num_H_Atoms_ProtBoundConf>  (635) 
nan

>  <Num_Resolved_Atoms>  (635) 
nan

>  <Num_Not_Resolved_Atoms>  (635) 
nan

$$$$
CHEMBL383994
     RDKit          3D

  0  0  0  0  0  0  0  0  0  0999 V3000
M  V30 BEGIN CTAB
M  V30 COUNTS 45 46 0 0 0
M  V30 BEGIN ATOM
M  V30 1 C 3.841616 -6.556965 -0.277126 0
M  V30 2 C 3.366881 -5.456901 -0.404387 0
M  V30 3 C 2.782939 -4.149388 -0.541518 0
M  V30 4 C 3.536717 -3.008768 -0.800742 0
M  V30 5 N 4.940717 -3.256106 -0.916765 0
M  V30 6 C 2.989435 -1.751061 -0.935969 0
M  V30 7 C 1.621130 -1.648621 -0.802344 0
M  V30 8 C 0.966179 -0.330513 -0.941674 0
M  V30 9 O 1.670645 0.677651 -1.166213 0
M  V30 10 N -0.425604 -0.212687 -0.824309 0
M  V30 11 C -1.232888 0.987550 -0.931045 0
M  V30 12 C -1.125425 1.800574 0.326785 0
M  V30 13 C -0.173388 2.790499 0.464552 0
M  V30 14 C -0.143298 3.498369 1.673001 0
M  V30 15 C -1.057491 3.175860 2.658689 0
M  V30 16 S -1.090682 4.021411 4.210966 0
M  V30 17 C -2.158630 5.411598 4.187935 0
M  V30 18 O 0.332643 4.383987 4.515926 0
M  V30 19 O -1.546230 3.083743 5.290546 0
M  V30 20 C -2.012238 2.185729 2.525599 0
M  V30 21 C -2.053043 1.472146 1.325162 0
M  V30 22 N 0.877667 -2.730307 -0.553228 0
M  V30 23 C 1.417649 -3.962531 -0.421165 0
M  V30 24 O 0.572435 -5.022102 -0.164351 0
M  V30 25 C -0.829816 -4.847682 -0.037003 0
M  V30 26 C -1.171956 -3.911873 1.086552 0
M  V30 27 H 4.247712 -7.519711 -0.180500 0
M  V30 28 H 5.419495 -3.988577 -1.482764 0
M  V30 29 H 5.634440 -2.675966 -0.403054 0
M  V30 30 H 3.624623 -0.900396 -1.137395 0
M  V30 31 H -0.943884 -1.118923 -0.633744 0
M  V30 32 H -0.881975 1.619501 -1.776997 0
M  V30 33 H -2.280186 0.737920 -1.091028 0
M  V30 34 H 0.524091 3.018725 -0.323108 0
M  V30 35 H 0.570393 4.280848 1.848422 0
M  V30 36 H -2.590026 5.538267 5.196069 0
M  V30 37 H -2.992763 5.184069 3.489205 0
M  V30 38 H -1.674366 6.374937 3.943015 0
M  V30 39 H -2.720434 1.939233 3.296105 0
M  V30 40 H -2.779340 0.686832 1.167371 0
M  V30 41 H -1.324521 -5.814383 0.122611 0
M  V30 42 H -1.175050 -4.363035 -0.989030 0
M  V30 43 H -1.644615 -4.478871 1.892557 0
M  V30 44 H -1.850726 -3.082127 0.782133 0
M  V30 45 H -0.229998 -3.454957 1.452402 0
M  V30 END ATOM
M  V30 BEGIN BOND
M  V30 1 3 1 2
M  V30 2 1 2 3
M  V30 3 2 3 4
M  V30 4 1 4 5
M  V30 5 1 4 6
M  V30 6 2 6 7
M  V30 7 1 7 8
M  V30 8 2 8 9
M  V30 9 1 8 10
M  V30 10 1 10 11
M  V30 11 1 11 12
M  V30 12 2 12 13
M  V30 13 1 13 14
M  V30 14 2 14 15
M  V30 15 1 15 16
M  V30 16 1 16 17
M  V30 17 2 16 18
M  V30 18 2 16 19
M  V30 19 1 15 20
M  V30 20 2 20 21
M  V30 21 1 7 22
M  V30 22 2 22 23
M  V30 23 1 23 24
M  V30 24 1 24 25
M  V30 25 1 25 26
M  V30 26 1 23 3
M  V30 27 1 21 12
M  V30 28 1 1 27
M  V30 29 1 5 28
M  V30 30 1 5 29
M  V30 31 1 6 30
M  V30 32 1 10 31
M  V30 33 1 11 32
M  V30 34 1 11 33
M  V30 35 1 13 34
M  V30 36 1 14 35
M  V30 37 1 17 36
M  V30 38 1 17 37
M  V30 39 1 17 38
M  V30 40 1 20 39
M  V30 41 1 21 40
M  V30 42 1 25 41
M  V30 43 1 25 42
M  V30 44 1 26 43
M  V30 45 1 26 44
M  V30 46 1 26 45
M  V30 END BOND
M  V30 END CTAB
M  END
>  <Dataset>  (636) 
ChEMBL_Kinases

>  <Ligand_Instance>  (636) 
nan

>  <PDB_ID>  (636) 
nan

>  <Standardized_SMILES>  (636) 
C#Cc1c(N)cc(C(=O)NCc2ccc(S(C)(=O)=O)cc2)nc1OCC

>  <Name>  (636) 
nan

>  <Pocket>  (636) 
nan

>  <ATP_Site>  (636) 
nan

>  <Peripheral>  (636) 
nan

>  <Num_H_Atoms_ProtBoundConf>  (636) 
nan

>  <Num_Resolved_Atoms>  (636) 
nan

>  <Num_Not_Resolved_Atoms>  (636) 
nan

$$$$
CHEMBL3580963
     RDKit          3D

  0  0  0  0  0  0  0  0  0  0999 V3000
M  V30 BEGIN CTAB
M  V30 COUNTS 49 52 0 0 0
M  V30 BEGIN ATOM
M  V30 1 N -0.804811 -6.151989 -0.018227 0
M  V30 2 C -0.270529 -5.728216 1.278397 0 CFG=1
M  V30 3 C 1.221787 -5.657368 1.268000 0
M  V30 4 C 1.795324 -4.409933 0.675136 0
M  V30 5 C 1.226185 -3.220648 1.433117 0 CFG=1
M  V30 6 C 1.826839 -1.982870 0.846073 0
M  V30 7 N 1.376738 -0.772058 1.465332 0
M  V30 8 C 1.853021 0.490965 1.017720 0
M  V30 9 N 2.775805 0.595553 0.011957 0
M  V30 10 C 3.215071 1.779852 -0.424789 0
M  V30 11 C 2.757294 2.958122 0.120659 0
M  V30 12 C 1.828251 2.871855 1.135193 0
M  V30 13 N 1.156900 3.928925 1.853338 0
M  V30 14 C -0.241385 4.009790 1.486111 0
M  V30 15 C -0.916509 3.143625 0.616043 0
M  V30 16 C -2.255576 3.555791 0.523921 0
M  V30 17 C -3.229544 2.793624 -0.334961 0
M  V30 18 C -2.645571 2.058957 -1.521895 0
M  V30 19 C -3.131634 1.310682 -0.301383 0
M  V30 20 N -2.333203 4.629799 1.322429 0
M  V30 21 N -1.186672 4.910626 1.886217 0
M  V30 22 N 1.432493 1.648804 1.522892 0
M  V30 23 C -0.261598 -3.221722 1.214110 0
M  V30 24 C -0.924811 -4.457890 1.764954 0
M  V30 25 H -1.707493 -6.659716 0.080376 0
M  V30 26 H -0.860054 -5.356054 -0.691295 0
M  V30 27 H -0.576823 -6.539411 1.972642 0
M  V30 28 H 1.623246 -5.771533 2.306940 0
M  V30 29 H 1.569820 -6.528553 0.641027 0
M  V30 30 H 2.879909 -4.455784 0.737333 0
M  V30 31 H 1.427055 -4.310544 -0.369005 0
M  V30 32 H 1.447261 -3.305039 2.526106 0
M  V30 33 H 2.949578 -2.019777 0.916890 0
M  V30 34 H 1.622377 -1.942947 -0.245190 0
M  V30 35 H 0.698907 -0.757623 2.245981 0
M  V30 36 H 3.942006 1.912452 -1.215999 0
M  V30 37 H 3.017180 3.992736 -0.123328 0
M  V30 38 H 1.450995 4.652104 2.577275 0
M  V30 39 H -0.506766 2.280515 0.077933 0
M  V30 40 H -4.239162 3.192547 -0.467936 0
M  V30 41 H -1.544490 2.096434 -1.671593 0
M  V30 42 H -3.215069 1.985736 -2.464846 0
M  V30 43 H -2.330497 0.865446 0.339802 0
M  V30 44 H -4.041143 0.714342 -0.379519 0
M  V30 45 H -3.259283 5.100654 1.400505 0
M  V30 46 H -0.456452 -3.108581 0.150365 0
M  V30 47 H -0.692062 -2.352574 1.777582 0
M  V30 48 H -0.896241 -4.423802 2.861429 0
M  V30 49 H -1.973763 -4.452757 1.421776 0
M  V30 END ATOM
M  V30 BEGIN BOND
M  V30 1 1 1 2
M  V30 2 1 2 3
M  V30 3 1 3 4
M  V30 4 1 4 5
M  V30 5 1 5 6
M  V30 6 1 6 7
M  V30 7 1 7 8
M  V30 8 2 8 9
M  V30 9 1 9 10
M  V30 10 2 10 11
M  V30 11 1 11 12
M  V30 12 1 12 13
M  V30 13 1 13 14
M  V30 14 1 14 15
M  V30 15 2 15 16
M  V30 16 1 16 17
M  V30 17 1 17 18
M  V30 18 1 18 19
M  V30 19 1 16 20
M  V30 20 1 20 21
M  V30 21 2 12 22
M  V30 22 1 5 23
M  V30 23 1 23 24
M  V30 24 1 24 2
M  V30 25 1 22 8
M  V30 26 2 21 14
M  V30 27 1 19 17
M  V30 28 1 1 25
M  V30 29 1 1 26
M  V30 30 1 2 27 CFG=1
M  V30 31 1 3 28
M  V30 32 1 3 29
M  V30 33 1 4 30
M  V30 34 1 4 31
M  V30 35 1 5 32 CFG=1
M  V30 36 1 6 33
M  V30 37 1 6 34
M  V30 38 1 7 35
M  V30 39 1 10 36
M  V30 40 1 11 37
M  V30 41 1 13 38
M  V30 42 1 15 39
M  V30 43 1 17 40
M  V30 44 1 18 41
M  V30 45 1 18 42
M  V30 46 1 19 43
M  V30 47 1 19 44
M  V30 48 1 20 45
M  V30 49 1 23 46
M  V30 50 1 23 47
M  V30 51 1 24 48
M  V30 52 1 24 49
M  V30 END BOND
M  V30 END CTAB
M  END
>  <Dataset>  (637) 
ChEMBL_Kinases

>  <Ligand_Instance>  (637) 
nan

>  <PDB_ID>  (637) 
nan

>  <Standardized_SMILES>  (637) 
N[C@H]1CC[C@@H](CNc2nccc(Nc3cc(C4CC4)[nH]n3)n2)CC1

>  <Name>  (637) 
nan

>  <Pocket>  (637) 
nan

>  <ATP_Site>  (637) 
nan

>  <Peripheral>  (637) 
nan

>  <Num_H_Atoms_ProtBoundConf>  (637) 
nan

>  <Num_Resolved_Atoms>  (637) 
nan

>  <Num_Not_Resolved_Atoms>  (637) 
nan

$$$$
CHEMBL3580949
     RDKit          3D

  0  0  0  0  0  0  0  0  0  0999 V3000
M  V30 BEGIN CTAB
M  V30 COUNTS 46 50 0 0 0
M  V30 BEGIN ATOM
M  V30 1 N -1.753014 -3.876885 3.920518 0
M  V30 2 C -1.743075 -3.302249 2.582064 0
M  V30 3 C -1.779731 -4.421985 1.552551 0
M  V30 4 C -2.326253 -3.855497 0.253513 0
M  V30 5 N -1.937304 -2.459679 0.241866 0
M  V30 6 C -0.858867 -1.840145 -0.475980 0
M  V30 7 N -0.792645 -0.482454 -0.512134 0
M  V30 8 C 0.251639 0.012159 -1.191299 0
M  V30 9 N 0.511484 1.386644 -1.381202 0
M  V30 10 C 1.126731 2.387067 -0.594658 0
M  V30 11 C 1.653082 2.352700 0.674687 0
M  V30 12 C 2.101243 3.647690 0.874094 0
M  V30 13 C 2.756776 4.191514 2.093006 0
M  V30 14 C 3.486131 3.316517 3.037334 0
M  V30 15 C 2.151647 3.793847 3.443519 0
M  V30 16 N 1.851541 4.409477 -0.226333 0
M  V30 17 N 1.259648 3.625096 -1.104967 0
M  V30 18 C 1.176842 -0.888798 -1.798669 0
M  V30 19 S 2.633954 -0.559292 -2.748186 0
M  V30 20 C 3.040474 -2.395700 -3.023226 0
M  V30 21 C 2.011786 -3.010202 -2.355027 0
M  V30 22 C 1.064780 -2.255276 -1.732717 0
M  V30 23 N -0.002862 -2.710673 -1.039080 0
M  V30 24 C -2.773716 -1.641711 1.092686 0
M  V30 25 C -2.931612 -2.370812 2.416493 0
M  V30 26 H -0.877588 -4.410494 4.072624 0
M  V30 27 H -2.618981 -4.465857 3.973081 0
M  V30 28 H -0.820005 -2.679989 2.499535 0
M  V30 29 H -2.333705 -5.302453 1.912512 0
M  V30 30 H -0.733880 -4.741412 1.348864 0
M  V30 31 H -1.829067 -4.355224 -0.628205 0
M  V30 32 H -3.429850 -3.977468 0.194698 0
M  V30 33 H 0.111410 1.504619 -2.313412 0
M  V30 34 H 1.689113 1.508653 1.323507 0
M  V30 35 H 3.098554 5.251741 2.071340 0
M  V30 36 H 3.582407 2.218945 2.872123 0
M  V30 37 H 4.367225 3.739804 3.566468 0
M  V30 38 H 2.097513 4.530291 4.246457 0
M  V30 39 H 1.246237 3.127900 3.416619 0
M  V30 40 H 2.051014 5.404905 -0.418558 0
M  V30 41 H 3.861465 -2.747877 -3.564509 0
M  V30 42 H 2.040493 -4.092553 -2.381651 0
M  V30 43 H -2.269503 -0.669125 1.342305 0
M  V30 44 H -3.727643 -1.366357 0.640269 0
M  V30 45 H -2.905544 -1.658730 3.263840 0
M  V30 46 H -3.890046 -2.917140 2.451138 0
M  V30 END ATOM
M  V30 BEGIN BOND
M  V30 1 1 1 2
M  V30 2 1 2 3
M  V30 3 1 3 4
M  V30 4 1 4 5
M  V30 5 1 5 6
M  V30 6 2 6 7
M  V30 7 1 7 8
M  V30 8 1 8 9
M  V30 9 1 9 10
M  V30 10 1 10 11
M  V30 11 2 11 12
M  V30 12 1 12 13
M  V30 13 1 13 14
M  V30 14 1 14 15
M  V30 15 1 12 16
M  V30 16 1 16 17
M  V30 17 2 8 18
M  V30 18 1 18 19
M  V30 19 1 19 20
M  V30 20 2 20 21
M  V30 21 1 21 22
M  V30 22 2 22 23
M  V30 23 1 5 24
M  V30 24 1 24 25
M  V30 25 1 25 2
M  V30 26 1 23 6
M  V30 27 2 17 10
M  V30 28 1 22 18
M  V30 29 1 15 13
M  V30 30 1 1 26
M  V30 31 1 1 27
M  V30 32 1 2 28
M  V30 33 1 3 29
M  V30 34 1 3 30
M  V30 35 1 4 31
M  V30 36 1 4 32
M  V30 37 1 9 33
M  V30 38 1 11 34
M  V30 39 1 13 35
M  V30 40 1 14 36
M  V30 41 1 14 37
M  V30 42 1 15 38
M  V30 43 1 15 39
M  V30 44 1 16 40
M  V30 45 1 20 41
M  V30 46 1 21 42
M  V30 47 1 24 43
M  V30 48 1 24 44
M  V30 49 1 25 45
M  V30 50 1 25 46
M  V30 END BOND
M  V30 END CTAB
M  END
>  <Dataset>  (638) 
ChEMBL_Kinases

>  <Ligand_Instance>  (638) 
nan

>  <PDB_ID>  (638) 
nan

>  <Standardized_SMILES>  (638) 
NC1CCN(c2nc(Nc3cc(C4CC4)[nH]n3)c3sccc3n2)CC1

>  <Name>  (638) 
nan

>  <Pocket>  (638) 
nan

>  <ATP_Site>  (638) 
nan

>  <Peripheral>  (638) 
nan

>  <Num_H_Atoms_ProtBoundConf>  (638) 
nan

>  <Num_Resolved_Atoms>  (638) 
nan

>  <Num_Not_Resolved_Atoms>  (638) 
nan

$$$$
CHEMBL384089
     RDKit          3D

  0  0  0  0  0  0  0  0  0  0999 V3000
M  V30 BEGIN CTAB
M  V30 COUNTS 43 47 0 0 0
M  V30 BEGIN ATOM
M  V30 1 C 3.879882 -2.939717 1.816582 0
M  V30 2 O 2.826996 -2.278682 1.160493 0
M  V30 3 C 2.550602 -2.381853 -0.196831 0
M  V30 4 C 3.316971 -3.170200 -1.034989 0
M  V30 5 C 3.059878 -3.291364 -2.405447 0
M  V30 6 N 3.902790 -4.131259 -3.210798 0
M  V30 7 C 1.981831 -2.579326 -2.926434 0
M  V30 8 C 1.200161 -1.783619 -2.107430 0
M  V30 9 C 1.487820 -1.691446 -0.759894 0
M  V30 10 C 0.637118 -0.840386 0.067641 0
M  V30 11 C 0.977233 0.486990 0.224538 0
M  V30 12 C 0.179072 1.295251 1.003811 0
M  V30 13 N 0.282552 2.599749 1.314969 0
M  V30 14 C -0.775932 2.898355 2.122243 0
M  V30 15 C -1.072743 4.139286 2.687066 0
M  V30 16 C -2.194816 4.295023 3.495802 0
M  V30 17 C -2.996578 3.173203 3.713019 0
M  V30 18 O -4.115979 3.327573 4.519538 0
M  V30 19 C -2.635354 1.985987 3.120095 0
M  V30 20 C -1.552097 1.779660 2.322963 0
M  V30 21 C -0.942364 0.793549 1.619830 0
M  V30 22 C -1.277016 -0.510283 1.466106 0
M  V30 23 C -0.500787 -1.339830 0.695523 0
M  V30 24 C -1.010092 -2.724621 0.636913 0
M  V30 25 O -0.515241 -3.683826 0.019791 0
M  V30 26 N -2.177320 -2.664243 1.448479 0
M  V30 27 C -2.342335 -1.347756 1.945755 0
M  V30 28 O -3.328403 -1.165075 2.669873 0
M  V30 29 H 4.782264 -3.089509 1.184057 0
M  V30 30 H 4.122773 -2.317299 2.721935 0
M  V30 31 H 3.543054 -3.919679 2.205188 0
M  V30 32 H 4.151494 -3.726825 -0.654972 0
M  V30 33 H 4.914208 -4.222210 -2.982766 0
M  V30 34 H 3.404226 -4.612633 -4.008692 0
M  V30 35 H 1.786796 -2.678172 -3.995783 0
M  V30 36 H 0.359347 -1.236698 -2.549859 0
M  V30 37 H 1.878554 0.869264 -0.276701 0
M  V30 38 H 1.056598 3.222176 0.970538 0
M  V30 39 H -0.435343 4.984167 2.500639 0
M  V30 40 H -2.366269 5.270288 3.897660 0
M  V30 41 H -4.021281 3.186271 5.531794 0
M  V30 42 H -3.303610 1.193609 3.342863 0
M  V30 43 H -2.743692 -3.553271 1.573684 0
M  V30 END ATOM
M  V30 BEGIN BOND
M  V30 1 1 1 2
M  V30 2 1 2 3
M  V30 3 2 3 4
M  V30 4 1 4 5
M  V30 5 1 5 6
M  V30 6 2 5 7
M  V30 7 1 7 8
M  V30 8 2 8 9
M  V30 9 1 9 10
M  V30 10 2 10 11
M  V30 11 1 11 12
M  V30 12 1 12 13
M  V30 13 1 13 14
M  V30 14 2 14 15
M  V30 15 1 15 16
M  V30 16 2 16 17
M  V30 17 1 17 18
M  V30 18 1 17 19
M  V30 19 2 19 20
M  V30 20 1 20 21
M  V30 21 1 21 22
M  V30 22 2 22 23
M  V30 23 1 23 24
M  V30 24 2 24 25
M  V30 25 1 24 26
M  V30 26 1 26 27
M  V30 27 2 27 28
M  V30 28 1 9 3
M  V30 29 1 23 10
M  V30 30 2 21 12
M  V30 31 1 27 22
M  V30 32 1 20 14
M  V30 33 1 1 29
M  V30 34 1 1 30
M  V30 35 1 1 31
M  V30 36 1 4 32
M  V30 37 1 6 33
M  V30 38 1 6 34
M  V30 39 1 7 35
M  V30 40 1 8 36
M  V30 41 1 11 37
M  V30 42 1 13 38
M  V30 43 1 15 39
M  V30 44 1 16 40
M  V30 45 1 18 41
M  V30 46 1 19 42
M  V30 47 1 26 43
M  V30 END BOND
M  V30 END CTAB
M  END
>  <Dataset>  (639) 
ChEMBL_Kinases

>  <Ligand_Instance>  (639) 
nan

>  <PDB_ID>  (639) 
nan

>  <Standardized_SMILES>  (639) 
COc1cc(N)ccc1-c1cc2[nH]c3ccc(O)cc3c2c2c1C(=O)NC2=O

>  <Name>  (639) 
nan

>  <Pocket>  (639) 
nan

>  <ATP_Site>  (639) 
nan

>  <Peripheral>  (639) 
nan

>  <Num_H_Atoms_ProtBoundConf>  (639) 
nan

>  <Num_Resolved_Atoms>  (639) 
nan

>  <Num_Not_Resolved_Atoms>  (639) 
nan

$$$$
CHEMBL3580956
     RDKit          3D

  0  0  0  0  0  0  0  0  0  0999 V3000
M  V30 BEGIN CTAB
M  V30 COUNTS 46 50 0 0 0
M  V30 BEGIN ATOM
M  V30 1 N -2.053743 -2.233203 3.746717 0
M  V30 2 C -2.849390 -2.991365 2.800690 0
M  V30 3 C -1.945160 -3.838831 1.970357 0
M  V30 4 C -2.264235 -3.595535 0.503257 0
M  V30 5 N -1.923595 -2.203142 0.273875 0
M  V30 6 C -0.773594 -1.886367 -0.490186 0
M  V30 7 N -0.431562 -0.592210 -0.718877 0
M  V30 8 C 0.661402 -0.277696 -1.440904 0
M  V30 9 N 1.181445 0.987828 -1.802324 0
M  V30 10 C 1.675103 1.927163 -0.857790 0
M  V30 11 C 1.617939 1.803841 0.515917 0
M  V30 12 C 2.222866 2.932695 1.043320 0
M  V30 13 C 2.301675 3.102232 2.531875 0
M  V30 14 C 3.731735 2.931399 3.043541 0
M  V30 15 C 2.968850 4.242163 3.159683 0
M  V30 16 N 2.627992 3.704167 0.022052 0
M  V30 17 N 2.294520 3.091489 -1.099636 0
M  V30 18 C 1.450756 -1.308755 -1.959893 0
M  V30 19 O 2.524614 -1.440055 -2.669074 0
M  V30 20 C 2.865340 -2.667027 -2.892225 0
M  V30 21 C 1.937679 -3.499079 -2.277518 0
M  V30 22 C 1.059088 -2.610662 -1.698414 0
M  V30 23 N -0.032414 -2.908579 -0.977366 0
M  V30 24 C -2.874595 -1.315620 0.906928 0
M  V30 25 C -3.646918 -2.038047 1.963373 0
M  V30 26 H -2.068653 -1.210546 3.521813 0
M  V30 27 H -2.320552 -2.437924 4.735556 0
M  V30 28 H -3.530241 -3.667945 3.362741 0
M  V30 29 H -0.901751 -3.497921 2.115598 0
M  V30 30 H -2.059383 -4.931040 2.117109 0
M  V30 31 H -1.650734 -4.249789 -0.154499 0
M  V30 32 H -3.334976 -3.721626 0.273751 0
M  V30 33 H 1.201025 1.242412 -2.831688 0
M  V30 34 H 1.160005 0.942744 0.991938 0
M  V30 35 H 1.588630 2.454687 3.112942 0
M  V30 36 H 3.878657 2.365634 4.007574 0
M  V30 37 H 4.575090 2.982769 2.325914 0
M  V30 38 H 3.269763 5.102361 2.520624 0
M  V30 39 H 2.605471 4.521949 4.174571 0
M  V30 40 H 3.098178 4.583575 0.306727 0
M  V30 41 H 3.735658 -2.985741 -3.467810 0
M  V30 42 H 1.963248 -4.590278 -2.293586 0
M  V30 43 H -2.425031 -0.364378 1.229070 0
M  V30 44 H -3.625134 -1.044890 0.111156 0
M  V30 45 H -4.112099 -1.266713 2.628382 0
M  V30 46 H -4.484671 -2.590614 1.502640 0
M  V30 END ATOM
M  V30 BEGIN BOND
M  V30 1 1 1 2
M  V30 2 1 2 3
M  V30 3 1 3 4
M  V30 4 1 4 5
M  V30 5 1 5 6
M  V30 6 2 6 7
M  V30 7 1 7 8
M  V30 8 1 8 9
M  V30 9 1 9 10
M  V30 10 1 10 11
M  V30 11 2 11 12
M  V30 12 1 12 13
M  V30 13 1 13 14
M  V30 14 1 14 15
M  V30 15 1 12 16
M  V30 16 1 16 17
M  V30 17 2 8 18
M  V30 18 1 18 19
M  V30 19 1 19 20
M  V30 20 2 20 21
M  V30 21 1 21 22
M  V30 22 2 22 23
M  V30 23 1 5 24
M  V30 24 1 24 25
M  V30 25 1 25 2
M  V30 26 1 23 6
M  V30 27 2 17 10
M  V30 28 1 22 18
M  V30 29 1 15 13
M  V30 30 1 1 26
M  V30 31 1 1 27
M  V30 32 1 2 28
M  V30 33 1 3 29
M  V30 34 1 3 30
M  V30 35 1 4 31
M  V30 36 1 4 32
M  V30 37 1 9 33
M  V30 38 1 11 34
M  V30 39 1 13 35
M  V30 40 1 14 36
M  V30 41 1 14 37
M  V30 42 1 15 38
M  V30 43 1 15 39
M  V30 44 1 16 40
M  V30 45 1 20 41
M  V30 46 1 21 42
M  V30 47 1 24 43
M  V30 48 1 24 44
M  V30 49 1 25 45
M  V30 50 1 25 46
M  V30 END BOND
M  V30 END CTAB
M  END
>  <Dataset>  (640) 
ChEMBL_Kinases

>  <Ligand_Instance>  (640) 
nan

>  <PDB_ID>  (640) 
nan

>  <Standardized_SMILES>  (640) 
NC1CCN(c2nc(Nc3cc(C4CC4)[nH]n3)c3occc3n2)CC1

>  <Name>  (640) 
nan

>  <Pocket>  (640) 
nan

>  <ATP_Site>  (640) 
nan

>  <Peripheral>  (640) 
nan

>  <Num_H_Atoms_ProtBoundConf>  (640) 
nan

>  <Num_Resolved_Atoms>  (640) 
nan

>  <Num_Not_Resolved_Atoms>  (640) 
nan

$$$$
CHEMBL3580957
     RDKit          3D

  0  0  0  0  0  0  0  0  0  0999 V3000
M  V30 BEGIN CTAB
M  V30 COUNTS 43 46 0 0 0
M  V30 BEGIN ATOM
M  V30 1 N 0.483410 -4.576607 3.230453 0
M  V30 2 C -0.022623 -3.448094 2.475132 0
M  V30 3 C -0.177242 -3.745734 1.017216 0
M  V30 4 C 1.159879 -3.688220 0.320684 0
M  V30 5 N 1.719353 -2.371212 0.472488 0
M  V30 6 C 1.941025 -1.312086 -0.483134 0
M  V30 7 N 2.942133 -0.565400 -0.964974 0
M  V30 8 C 2.760418 0.417588 -1.854804 0
M  V30 9 C 1.512498 0.732996 -2.342853 0
M  V30 10 C 0.461836 -0.023214 -1.857572 0
M  V30 11 N -0.902699 0.260344 -2.250996 0
M  V30 12 C -1.363127 0.851099 -1.029797 0
M  V30 13 C -0.758305 1.804130 -0.225869 0
M  V30 14 C -1.529764 2.120694 0.919208 0
M  V30 15 C -0.914233 3.148583 1.811472 0
M  V30 16 C 0.550263 3.260599 1.889417 0
M  V30 17 C -0.176523 2.691079 3.073672 0
M  V30 18 N -2.595274 1.320229 0.748890 0
M  V30 19 N -2.503034 0.604874 -0.344388 0
M  V30 20 N 0.701684 -1.003089 -0.963704 0
M  V30 21 C 2.045980 -2.150520 1.853140 0
M  V30 22 C 0.815389 -2.219650 2.737760 0
M  V30 23 H 0.612655 -5.426810 2.639302 0
M  V30 24 H 1.332029 -4.325335 3.795723 0
M  V30 25 H -1.042076 -3.226848 2.886008 0
M  V30 26 H -0.800893 -2.958122 0.568815 0
M  V30 27 H -0.595869 -4.770650 0.932381 0
M  V30 28 H 1.871673 -4.423181 0.739248 0
M  V30 29 H 0.993515 -3.951492 -0.748066 0
M  V30 30 H 3.694495 0.913230 -2.135425 0
M  V30 31 H 1.412487 1.531668 -3.065928 0
M  V30 32 H -1.496355 0.154560 -3.079770 0
M  V30 33 H 0.226160 2.207571 -0.561884 0
M  V30 34 H -1.518571 4.071102 1.892690 0
M  V30 35 H 1.028326 4.244439 2.051389 0
M  V30 36 H 1.231665 2.510399 1.409171 0
M  V30 37 H -0.101824 1.622067 3.304740 0
M  V30 38 H -0.365013 3.367698 3.940652 0
M  V30 39 H -3.295757 1.423570 1.529223 0
M  V30 40 H 2.433291 -1.092981 1.953496 0
M  V30 41 H 2.858932 -2.810430 2.187070 0
M  V30 42 H 0.183779 -1.300623 2.637476 0
M  V30 43 H 1.161276 -2.247604 3.781036 0
M  V30 END ATOM
M  V30 BEGIN BOND
M  V30 1 1 1 2
M  V30 2 1 2 3
M  V30 3 1 3 4
M  V30 4 1 4 5
M  V30 5 1 5 6
M  V30 6 2 6 7
M  V30 7 1 7 8
M  V30 8 2 8 9
M  V30 9 1 9 10
M  V30 10 1 10 11
M  V30 11 1 11 12
M  V30 12 1 12 13
M  V30 13 2 13 14
M  V30 14 1 14 15
M  V30 15 1 15 16
M  V30 16 1 16 17
M  V30 17 1 14 18
M  V30 18 1 18 19
M  V30 19 2 10 20
M  V30 20 1 5 21
M  V30 21 1 21 22
M  V30 22 1 22 2
M  V30 23 1 20 6
M  V30 24 2 19 12
M  V30 25 1 17 15
M  V30 26 1 1 23
M  V30 27 1 1 24
M  V30 28 1 2 25
M  V30 29 1 3 26
M  V30 30 1 3 27
M  V30 31 1 4 28
M  V30 32 1 4 29
M  V30 33 1 8 30
M  V30 34 1 9 31
M  V30 35 1 11 32
M  V30 36 1 13 33
M  V30 37 1 15 34
M  V30 38 1 16 35
M  V30 39 1 16 36
M  V30 40 1 17 37
M  V30 41 1 17 38
M  V30 42 1 18 39
M  V30 43 1 21 40
M  V30 44 1 21 41
M  V30 45 1 22 42
M  V30 46 1 22 43
M  V30 END BOND
M  V30 END CTAB
M  END
>  <Dataset>  (641) 
ChEMBL_Kinases

>  <Ligand_Instance>  (641) 
nan

>  <PDB_ID>  (641) 
nan

>  <Standardized_SMILES>  (641) 
NC1CCN(c2nccc(Nc3cc(C4CC4)[nH]n3)n2)CC1

>  <Name>  (641) 
nan

>  <Pocket>  (641) 
nan

>  <ATP_Site>  (641) 
nan

>  <Peripheral>  (641) 
nan

>  <Num_H_Atoms_ProtBoundConf>  (641) 
nan

>  <Num_Resolved_Atoms>  (641) 
nan

>  <Num_Not_Resolved_Atoms>  (641) 
nan

$$$$
CHEMBL3580958
     RDKit          3D

  0  0  0  0  0  0  0  0  0  0999 V3000
M  V30 BEGIN CTAB
M  V30 COUNTS 44 47 0 0 0
M  V30 BEGIN ATOM
M  V30 1 N -0.208661 -4.492393 3.656500 0
M  V30 2 C -0.760304 -3.646710 2.582199 0
M  V30 3 C -0.817699 -4.421752 1.335536 0
M  V30 4 C -0.144895 -3.901934 0.120312 0
M  V30 5 N -0.204430 -2.438968 0.170231 0
M  V30 6 C -0.881068 -1.403245 -0.578877 0
M  V30 7 C -2.249677 -1.230088 -0.771699 0
M  V30 8 C -2.660589 -0.165363 -1.563362 0
M  V30 9 C -1.719150 0.675302 -2.123061 0
M  V30 10 C -0.358444 0.478980 -1.912763 0
M  V30 11 N 0.509493 1.429582 -2.548768 0
M  V30 12 C 1.330375 1.895842 -1.470411 0
M  V30 13 C 1.122227 2.677994 -0.363017 0
M  V30 14 C 2.353151 2.763339 0.299847 0
M  V30 15 C 2.272404 3.590770 1.538549 0
M  V30 16 C 3.119347 3.129536 2.694165 0
M  V30 17 C 1.600643 3.015639 2.738084 0
M  V30 18 N 3.255464 2.039788 -0.418719 0
M  V30 19 N 2.632552 1.518787 -1.483769 0
M  V30 20 N 0.009485 -0.564579 -1.139594 0
M  V30 21 C 0.620345 -1.980274 1.303177 0
M  V30 22 C -0.093221 -2.331816 2.580659 0
M  V30 23 H -0.154831 -3.895700 4.516029 0
M  V30 24 H 0.699351 -4.871306 3.368521 0
M  V30 25 H -1.819209 -3.467749 2.911503 0
M  V30 26 H -0.371656 -5.454348 1.500215 0
M  V30 27 H -1.876531 -4.678685 1.030539 0
M  V30 28 H -0.639548 -4.285535 -0.790279 0
M  V30 29 H 0.953406 -4.175663 0.110353 0
M  V30 30 H -2.871035 -1.969869 -0.253624 0
M  V30 31 H -3.735494 -0.059710 -1.694534 0
M  V30 32 H -2.163202 1.483387 -2.718740 0
M  V30 33 H 0.562886 1.725912 -3.543828 0
M  V30 34 H 0.096796 3.020650 -0.282345 0
M  V30 35 H 2.058167 4.655640 1.368235 0
M  V30 36 H 3.688760 2.172299 2.596512 0
M  V30 37 H 3.562280 3.901101 3.362909 0
M  V30 38 H 1.190086 1.990892 2.735274 0
M  V30 39 H 1.036043 3.688696 3.402234 0
M  V30 40 H 4.207352 2.051135 0.006582 0
M  V30 41 H 1.613288 -2.465736 1.237864 0
M  V30 42 H 0.782745 -0.913530 1.181087 0
M  V30 43 H 0.644060 -2.285779 3.400585 0
M  V30 44 H -0.793176 -1.475360 2.787277 0
M  V30 END ATOM
M  V30 BEGIN BOND
M  V30 1 1 1 2
M  V30 2 1 2 3
M  V30 3 1 3 4
M  V30 4 1 4 5
M  V30 5 1 5 6
M  V30 6 2 6 7
M  V30 7 1 7 8
M  V30 8 2 8 9
M  V30 9 1 9 10
M  V30 10 1 10 11
M  V30 11 1 11 12
M  V30 12 1 12 13
M  V30 13 2 13 14
M  V30 14 1 14 15
M  V30 15 1 15 16
M  V30 16 1 16 17
M  V30 17 1 14 18
M  V30 18 1 18 19
M  V30 19 2 10 20
M  V30 20 1 5 21
M  V30 21 1 21 22
M  V30 22 1 22 2
M  V30 23 1 20 6
M  V30 24 2 19 12
M  V30 25 1 17 15
M  V30 26 1 1 23
M  V30 27 1 1 24
M  V30 28 1 2 25
M  V30 29 1 3 26
M  V30 30 1 3 27
M  V30 31 1 4 28
M  V30 32 1 4 29
M  V30 33 1 7 30
M  V30 34 1 8 31
M  V30 35 1 9 32
M  V30 36 1 11 33
M  V30 37 1 13 34
M  V30 38 1 15 35
M  V30 39 1 16 36
M  V30 40 1 16 37
M  V30 41 1 17 38
M  V30 42 1 17 39
M  V30 43 1 18 40
M  V30 44 1 21 41
M  V30 45 1 21 42
M  V30 46 1 22 43
M  V30 47 1 22 44
M  V30 END BOND
M  V30 END CTAB
M  END
>  <Dataset>  (642) 
ChEMBL_Kinases

>  <Ligand_Instance>  (642) 
nan

>  <PDB_ID>  (642) 
nan

>  <Standardized_SMILES>  (642) 
NC1CCN(c2cccc(Nc3cc(C4CC4)[nH]n3)n2)CC1

>  <Name>  (642) 
nan

>  <Pocket>  (642) 
nan

>  <ATP_Site>  (642) 
nan

>  <Peripheral>  (642) 
nan

>  <Num_H_Atoms_ProtBoundConf>  (642) 
nan

>  <Num_Resolved_Atoms>  (642) 
nan

>  <Num_Not_Resolved_Atoms>  (642) 
nan

$$$$
CHEMBL3580959
     RDKit          3D

  0  0  0  0  0  0  0  0  0  0999 V3000
M  V30 BEGIN CTAB
M  V30 COUNTS 44 47 0 0 0
M  V30 BEGIN ATOM
M  V30 1 N 0.555274 -4.080784 4.156417 0
M  V30 2 C -0.584587 -3.502398 3.466204 0
M  V30 3 C -0.839750 -4.239356 2.185472 0
M  V30 4 C 0.300135 -3.908607 1.230741 0
M  V30 5 N 0.151355 -2.489709 0.938855 0
M  V30 6 C -0.252656 -2.037568 -0.341813 0
M  V30 7 C -0.363649 -0.727017 -0.706390 0
M  V30 8 C -0.770526 -0.285299 -1.966769 0
M  V30 9 N -0.872508 1.116424 -2.285567 0
M  V30 10 C -0.364292 1.951598 -1.233438 0
M  V30 11 C 0.919582 2.485070 -1.380873 0
M  V30 12 C 1.082739 3.200552 -0.192773 0
M  V30 13 C 2.327660 3.980530 0.133362 0
M  V30 14 C 2.487108 4.654186 1.413784 0
M  V30 15 C 3.157315 3.323035 1.260205 0
M  V30 16 N -0.016145 3.098697 0.592425 0
M  V30 17 N -0.891014 2.333013 -0.056272 0
M  V30 18 C -1.065039 -1.301732 -2.859331 0
M  V30 19 C -0.959621 -2.616436 -2.513999 0
M  V30 20 N -0.557829 -2.964768 -1.268182 0
M  V30 21 C 0.457529 -1.683698 2.102505 0
M  V30 22 C -0.467096 -2.033479 3.255549 0
M  V30 23 H 0.624056 -5.109876 3.997891 0
M  V30 24 H 1.447065 -3.577332 3.981398 0
M  V30 25 H -1.462871 -3.685311 4.143771 0
M  V30 26 H -1.779594 -3.853310 1.713287 0
M  V30 27 H -0.958210 -5.316702 2.353132 0
M  V30 28 H 0.252932 -4.514535 0.310996 0
M  V30 29 H 1.253758 -4.075302 1.777888 0
M  V30 30 H -0.104840 0.000249 0.071956 0
M  V30 31 H -1.286074 1.330869 -3.206267 0
M  V30 32 H 1.633743 2.407587 -2.161404 0
M  V30 33 H 2.925946 4.251798 -0.751927 0
M  V30 34 H 1.619637 4.716224 2.111972 0
M  V30 35 H 3.161285 5.524379 1.477474 0
M  V30 36 H 2.686669 2.487264 1.807499 0
M  V30 37 H 4.232732 3.217710 1.081719 0
M  V30 38 H -0.159073 3.533820 1.527970 0
M  V30 39 H -1.383836 -1.021073 -3.842992 0
M  V30 40 H -1.178439 -3.438169 -3.170796 0
M  V30 41 H 1.476523 -2.016825 2.460186 0
M  V30 42 H 0.468749 -0.612893 1.929914 0
M  V30 43 H -0.023300 -1.582271 4.180199 0
M  V30 44 H -1.482958 -1.609374 3.153612 0
M  V30 END ATOM
M  V30 BEGIN BOND
M  V30 1 1 1 2
M  V30 2 1 2 3
M  V30 3 1 3 4
M  V30 4 1 4 5
M  V30 5 1 5 6
M  V30 6 2 6 7
M  V30 7 1 7 8
M  V30 8 1 8 9
M  V30 9 1 9 10
M  V30 10 1 10 11
M  V30 11 2 11 12
M  V30 12 1 12 13
M  V30 13 1 13 14
M  V30 14 1 14 15
M  V30 15 1 12 16
M  V30 16 1 16 17
M  V30 17 2 8 18
M  V30 18 1 18 19
M  V30 19 2 19 20
M  V30 20 1 5 21
M  V30 21 1 21 22
M  V30 22 1 22 2
M  V30 23 1 20 6
M  V30 24 2 17 10
M  V30 25 1 15 13
M  V30 26 1 1 23
M  V30 27 1 1 24
M  V30 28 1 2 25
M  V30 29 1 3 26
M  V30 30 1 3 27
M  V30 31 1 4 28
M  V30 32 1 4 29
M  V30 33 1 7 30
M  V30 34 1 9 31
M  V30 35 1 11 32
M  V30 36 1 13 33
M  V30 37 1 14 34
M  V30 38 1 14 35
M  V30 39 1 15 36
M  V30 40 1 15 37
M  V30 41 1 16 38
M  V30 42 1 18 39
M  V30 43 1 19 40
M  V30 44 1 21 41
M  V30 45 1 21 42
M  V30 46 1 22 43
M  V30 47 1 22 44
M  V30 END BOND
M  V30 END CTAB
M  END
>  <Dataset>  (643) 
ChEMBL_Kinases

>  <Ligand_Instance>  (643) 
nan

>  <PDB_ID>  (643) 
nan

>  <Standardized_SMILES>  (643) 
NC1CCN(c2cc(Nc3cc(C4CC4)[nH]n3)ccn2)CC1

>  <Name>  (643) 
nan

>  <Pocket>  (643) 
nan

>  <ATP_Site>  (643) 
nan

>  <Peripheral>  (643) 
nan

>  <Num_H_Atoms_ProtBoundConf>  (643) 
nan

>  <Num_Resolved_Atoms>  (643) 
nan

>  <Num_Not_Resolved_Atoms>  (643) 
nan

$$$$
CHEMBL3580960
     RDKit          3D

  0  0  0  0  0  0  0  0  0  0999 V3000
M  V30 BEGIN CTAB
M  V30 COUNTS 46 49 0 0 0
M  V30 BEGIN ATOM
M  V30 1 C 2.258798 -3.840611 2.994281 0
M  V30 2 C 2.447238 -3.934359 1.636728 0
M  V30 3 C 2.198925 -2.872658 0.813597 0
M  V30 4 N 2.389751 -2.971767 -0.591543 0
M  V30 5 C 2.110743 -1.907287 -1.495776 0
M  V30 6 C 1.633981 -0.641138 -1.235967 0
M  V30 7 C 1.506435 0.070519 -2.429863 0
M  V30 8 C 1.022280 1.466162 -2.556181 0
M  V30 9 C 1.550127 2.328328 -3.641580 0
M  V30 10 C 0.132948 1.772466 -3.726145 0
M  V30 11 N 1.911422 -0.793355 -3.370082 0
M  V30 12 N 2.263739 -1.945414 -2.829917 0
M  V30 13 N 1.767650 -1.764818 1.438162 0
M  V30 14 C 1.577593 -1.654004 2.765074 0
M  V30 15 N 1.128273 -0.352605 3.108464 0
M  V30 16 C -0.035068 0.480583 3.144547 0
M  V30 17 C -1.197146 -0.059803 3.907367 0
M  V30 18 C -1.708325 -1.372081 3.357305 0
M  V30 19 C -2.050644 -1.213734 1.876324 0
M  V30 20 N -3.199922 -0.339656 1.803592 0
M  V30 21 C -2.865176 0.953303 2.317062 0
M  V30 22 C -2.345887 0.929116 3.729485 0
M  V30 23 N 1.819675 -2.702767 3.603858 0
M  V30 24 H 2.456042 -4.680670 3.633463 0
M  V30 25 H 2.799404 -4.881368 1.251152 0
M  V30 26 H 2.751984 -3.868590 -0.971281 0
M  V30 27 H 1.384805 -0.218266 -0.293787 0
M  V30 28 H 0.720945 1.982737 -1.610176 0
M  V30 29 H 2.318590 1.944515 -4.349719 0
M  V30 30 H 1.610471 3.436945 -3.437798 0
M  V30 31 H -0.052910 0.946351 -4.441241 0
M  V30 32 H -0.691139 2.523130 -3.637134 0
M  V30 33 H 1.946750 -0.590443 -4.398872 0
M  V30 34 H 2.080347 0.003587 3.428512 0
M  V30 35 H 0.258102 1.430364 3.677386 0
M  V30 36 H -0.339756 0.831553 2.128803 0
M  V30 37 H -0.984038 -0.175180 4.966895 0
M  V30 38 H -1.013727 -2.205236 3.445807 0
M  V30 39 H -2.650725 -1.597547 3.867933 0
M  V30 40 H -1.181813 -0.863120 1.305082 0
M  V30 41 H -2.296091 -2.235990 1.504345 0
M  V30 42 H -3.470392 -0.185708 0.789841 0
M  V30 43 H -3.831499 1.533003 2.361549 0
M  V30 44 H -2.195960 1.502637 1.642398 0
M  V30 45 H -1.914107 1.941829 3.947419 0
M  V30 46 H -3.134394 0.744577 4.458531 0
M  V30 END ATOM
M  V30 BEGIN BOND
M  V30 1 2 1 2
M  V30 2 1 2 3
M  V30 3 1 3 4
M  V30 4 1 4 5
M  V30 5 1 5 6
M  V30 6 2 6 7
M  V30 7 1 7 8
M  V30 8 1 8 9
M  V30 9 1 9 10
M  V30 10 1 7 11
M  V30 11 1 11 12
M  V30 12 2 3 13
M  V30 13 1 13 14
M  V30 14 1 14 15
M  V30 15 1 15 16
M  V30 16 1 16 17
M  V30 17 1 17 18
M  V30 18 1 18 19
M  V30 19 1 19 20
M  V30 20 1 20 21
M  V30 21 1 21 22
M  V30 22 2 14 23
M  V30 23 1 23 1
M  V30 24 2 12 5
M  V30 25 1 22 17
M  V30 26 1 10 8
M  V30 27 1 1 24
M  V30 28 1 2 25
M  V30 29 1 4 26
M  V30 30 1 6 27
M  V30 31 1 8 28
M  V30 32 1 9 29
M  V30 33 1 9 30
M  V30 34 1 10 31
M  V30 35 1 10 32
M  V30 36 1 11 33
M  V30 37 1 15 34
M  V30 38 1 16 35
M  V30 39 1 16 36
M  V30 40 1 17 37
M  V30 41 1 18 38
M  V30 42 1 18 39
M  V30 43 1 19 40
M  V30 44 1 19 41
M  V30 45 1 20 42
M  V30 46 1 21 43
M  V30 47 1 21 44
M  V30 48 1 22 45
M  V30 49 1 22 46
M  V30 END BOND
M  V30 END CTAB
M  END
>  <Dataset>  (644) 
ChEMBL_Kinases

>  <Ligand_Instance>  (644) 
nan

>  <PDB_ID>  (644) 
nan

>  <Standardized_SMILES>  (644) 
c1cc(Nc2cc(C3CC3)[nH]n2)nc(NCC2CCNCC2)n1

>  <Name>  (644) 
nan

>  <Pocket>  (644) 
nan

>  <ATP_Site>  (644) 
nan

>  <Peripheral>  (644) 
nan

>  <Num_H_Atoms_ProtBoundConf>  (644) 
nan

>  <Num_Resolved_Atoms>  (644) 
nan

>  <Num_Not_Resolved_Atoms>  (644) 
nan

$$$$
CHEMBL3580961
     RDKit          3D

  0  0  0  0  0  0  0  0  0  0999 V3000
M  V30 BEGIN CTAB
M  V30 COUNTS 46 49 0 0 0
M  V30 BEGIN ATOM
M  V30 1 N 0.875179 -2.281710 2.315823 0
M  V30 2 C -0.394330 -1.813191 1.744538 0 CFG=1
M  V30 3 C -1.407165 -2.926851 1.792892 0
M  V30 4 C -2.669573 -2.486462 1.154127 0
M  V30 5 C -3.243520 -1.191201 1.631312 0 CFG=2
M  V30 6 N -3.732794 -0.377185 0.515220 0
M  V30 7 C -2.981329 0.376858 -0.426470 0
M  V30 8 N -3.487739 1.035795 -1.478336 0
M  V30 9 C -2.750659 1.765543 -2.319569 0
M  V30 10 C -1.370580 1.862780 -2.112476 0
M  V30 11 C -0.827677 1.181293 -1.018552 0
M  V30 12 N 0.567274 1.379891 -0.923150 0
M  V30 13 C 1.796646 0.691583 -0.999540 0
M  V30 14 C 2.427395 0.408541 0.218453 0
M  V30 15 C 3.618457 -0.275134 -0.028894 0
M  V30 16 C 4.672305 -0.791171 0.891922 0
M  V30 17 C 4.327403 -0.955274 2.350454 0
M  V30 18 C 5.271057 0.132327 1.896101 0
M  V30 19 N 3.654185 -0.375504 -1.376015 0
M  V30 20 N 2.610444 0.176343 -1.964868 0
M  V30 21 N -1.666864 0.479638 -0.244137 0
M  V30 22 C -2.356596 -0.416571 2.547921 0
M  V30 23 C -0.916117 -0.702921 2.567851 0
M  V30 24 H 1.672368 -1.970819 1.681858 0
M  V30 25 H 0.858969 -3.341932 2.230761 0
M  V30 26 H -0.173124 -1.611488 0.692273 0
M  V30 27 H -1.533605 -3.333323 2.823644 0
M  V30 28 H -0.983906 -3.772255 1.200063 0
M  V30 29 H -3.395693 -3.347953 1.305832 0
M  V30 30 H -2.531070 -2.423975 0.055525 0
M  V30 31 H -4.150281 -1.445018 2.218595 0
M  V30 32 H -4.781839 -0.297385 0.324918 0
M  V30 33 H -3.344341 2.218469 -3.102523 0
M  V30 34 H -0.846437 2.480381 -2.851642 0
M  V30 35 H 0.779676 2.397656 -0.719193 0
M  V30 36 H 2.162759 0.617394 1.249238 0
M  V30 37 H 5.425708 -1.473153 0.422853 0
M  V30 38 H 3.334900 -0.663635 2.740012 0
M  V30 39 H 4.769982 -1.852743 2.851181 0
M  V30 40 H 4.928231 1.188799 1.903517 0
M  V30 41 H 6.309878 -0.007137 2.206720 0
M  V30 42 H 4.443154 -0.850859 -1.888223 0
M  V30 43 H -2.740464 -0.404648 3.611967 0
M  V30 44 H -2.480576 0.671276 2.259911 0
M  V30 45 H -0.567049 -0.925177 3.624496 0
M  V30 46 H -0.284347 0.203636 2.311513 0
M  V30 END ATOM
M  V30 BEGIN BOND
M  V30 1 1 1 2
M  V30 2 1 2 3
M  V30 3 1 3 4
M  V30 4 1 4 5
M  V30 5 1 5 6
M  V30 6 1 6 7
M  V30 7 2 7 8
M  V30 8 1 8 9
M  V30 9 2 9 10
M  V30 10 1 10 11
M  V30 11 1 11 12
M  V30 12 1 12 13
M  V30 13 1 13 14
M  V30 14 2 14 15
M  V30 15 1 15 16
M  V30 16 1 16 17
M  V30 17 1 17 18
M  V30 18 1 15 19
M  V30 19 1 19 20
M  V30 20 2 11 21
M  V30 21 1 5 22
M  V30 22 1 22 23
M  V30 23 1 23 2
M  V30 24 1 21 7
M  V30 25 2 20 13
M  V30 26 1 18 16
M  V30 27 1 1 24
M  V30 28 1 1 25
M  V30 29 1 2 26 CFG=3
M  V30 30 1 3 27
M  V30 31 1 3 28
M  V30 32 1 4 29
M  V30 33 1 4 30
M  V30 34 1 5 31 CFG=1
M  V30 35 1 6 32
M  V30 36 1 9 33
M  V30 37 1 10 34
M  V30 38 1 12 35
M  V30 39 1 14 36
M  V30 40 1 16 37
M  V30 41 1 17 38
M  V30 42 1 17 39
M  V30 43 1 18 40
M  V30 44 1 18 41
M  V30 45 1 19 42
M  V30 46 1 22 43
M  V30 47 1 22 44
M  V30 48 1 23 45
M  V30 49 1 23 46
M  V30 END BOND
M  V30 END CTAB
M  END
>  <Dataset>  (645) 
ChEMBL_Kinases

>  <Ligand_Instance>  (645) 
nan

>  <PDB_ID>  (645) 
nan

>  <Standardized_SMILES>  (645) 
N[C@H]1CC[C@H](Nc2nccc(Nc3cc(C4CC4)[nH]n3)n2)CC1

>  <Name>  (645) 
nan

>  <Pocket>  (645) 
nan

>  <ATP_Site>  (645) 
nan

>  <Peripheral>  (645) 
nan

>  <Num_H_Atoms_ProtBoundConf>  (645) 
nan

>  <Num_Resolved_Atoms>  (645) 
nan

>  <Num_Not_Resolved_Atoms>  (645) 
nan

$$$$
CHEMBL3580962
     RDKit          3D

  0  0  0  0  0  0  0  0  0  0999 V3000
M  V30 BEGIN CTAB
M  V30 COUNTS 49 52 0 0 0
M  V30 BEGIN ATOM
M  V30 1 N 0.384123 -6.295817 2.629555 0
M  V30 2 C 0.342180 -4.994488 1.948817 0 CFG=1
M  V30 3 C 1.669841 -4.330337 1.898915 0
M  V30 4 C 2.066431 -3.720166 0.598049 0
M  V30 5 C 0.973576 -3.092477 -0.195228 0 CFG=2
M  V30 6 C 0.917805 -1.592275 -0.016709 0
M  V30 7 N 2.120379 -0.931439 -0.429440 0
M  V30 8 C 2.383845 0.420951 -0.154932 0
M  V30 9 N 3.520605 0.951975 -0.681168 0
M  V30 10 C 3.847014 2.237837 -0.416715 0
M  V30 11 C 2.954084 2.928083 0.403092 0
M  V30 12 C 1.775609 2.403700 0.957536 0
M  V30 13 N 0.965813 3.220955 1.785554 0
M  V30 14 C -0.436456 3.376494 1.657455 0
M  V30 15 C -1.301771 2.800798 0.760408 0
M  V30 16 C -2.586526 3.288983 1.015257 0
M  V30 17 C -3.754578 2.861187 0.210536 0
M  V30 18 C -3.578071 1.716545 -0.741961 0
M  V30 19 C -4.387125 1.540075 0.501481 0
M  V30 20 N -2.449681 4.128022 2.043468 0
M  V30 21 N -1.178761 4.188502 2.434227 0
M  V30 22 N 1.516724 1.093170 0.639882 0
M  V30 23 C -0.364802 -3.716523 0.006276 0
M  V30 24 C -0.227726 -5.140452 0.560201 0
M  V30 25 H -0.503498 -6.408150 3.207586 0
M  V30 26 H 0.294263 -7.058708 1.899769 0
M  V30 27 H -0.397025 -4.343629 2.506109 0
M  V30 28 H 2.430908 -5.132003 2.148083 0
M  V30 29 H 1.761039 -3.617860 2.764638 0
M  V30 30 H 2.537357 -4.539611 -0.019828 0
M  V30 31 H 2.860998 -2.961912 0.789989 0
M  V30 32 H 1.240118 -3.256847 -1.281118 0
M  V30 33 H 0.661098 -1.381450 1.035896 0
M  V30 34 H 0.013400 -1.237027 -0.593623 0
M  V30 35 H 2.798029 -1.539618 -0.958713 0
M  V30 36 H 4.696249 2.821415 -0.739355 0
M  V30 37 H 3.141501 3.958383 0.662721 0
M  V30 38 H 1.519214 3.714277 2.513503 0
M  V30 39 H -0.981138 2.105194 0.013255 0
M  V30 40 H -4.451077 3.675133 -0.120757 0
M  V30 41 H -2.584163 1.209927 -0.827159 0
M  V30 42 H -4.131230 1.666305 -1.704992 0
M  V30 43 H -3.997477 0.977703 1.381438 0
M  V30 44 H -5.488193 1.501624 0.392439 0
M  V30 45 H -3.282069 4.642800 2.446770 0
M  V30 46 H -0.967728 -3.810368 -0.927185 0
M  V30 47 H -0.971520 -3.150573 0.758558 0
M  V30 48 H 0.459792 -5.711577 -0.071441 0
M  V30 49 H -1.238481 -5.574184 0.554464 0
M  V30 END ATOM
M  V30 BEGIN BOND
M  V30 1 1 1 2
M  V30 2 1 2 3
M  V30 3 1 3 4
M  V30 4 1 4 5
M  V30 5 1 5 6
M  V30 6 1 6 7
M  V30 7 1 7 8
M  V30 8 2 8 9
M  V30 9 1 9 10
M  V30 10 2 10 11
M  V30 11 1 11 12
M  V30 12 1 12 13
M  V30 13 1 13 14
M  V30 14 1 14 15
M  V30 15 2 15 16
M  V30 16 1 16 17
M  V30 17 1 17 18
M  V30 18 1 18 19
M  V30 19 1 16 20
M  V30 20 1 20 21
M  V30 21 2 12 22
M  V30 22 1 5 23
M  V30 23 1 23 24
M  V30 24 1 24 2
M  V30 25 1 22 8
M  V30 26 2 21 14
M  V30 27 1 19 17
M  V30 28 1 1 25
M  V30 29 1 1 26
M  V30 30 1 2 27 CFG=1
M  V30 31 1 3 28
M  V30 32 1 3 29
M  V30 33 1 4 30
M  V30 34 1 4 31
M  V30 35 1 5 32 CFG=3
M  V30 36 1 6 33
M  V30 37 1 6 34
M  V30 38 1 7 35
M  V30 39 1 10 36
M  V30 40 1 11 37
M  V30 41 1 13 38
M  V30 42 1 15 39
M  V30 43 1 17 40
M  V30 44 1 18 41
M  V30 45 1 18 42
M  V30 46 1 19 43
M  V30 47 1 19 44
M  V30 48 1 20 45
M  V30 49 1 23 46
M  V30 50 1 23 47
M  V30 51 1 24 48
M  V30 52 1 24 49
M  V30 END BOND
M  V30 END CTAB
M  END
>  <Dataset>  (646) 
ChEMBL_Kinases

>  <Ligand_Instance>  (646) 
nan

>  <PDB_ID>  (646) 
nan

>  <Standardized_SMILES>  (646) 
N[C@H]1CC[C@H](CNc2nccc(Nc3cc(C4CC4)[nH]n3)n2)CC1

>  <Name>  (646) 
nan

>  <Pocket>  (646) 
nan

>  <ATP_Site>  (646) 
nan

>  <Peripheral>  (646) 
nan

>  <Num_H_Atoms_ProtBoundConf>  (646) 
nan

>  <Num_Resolved_Atoms>  (646) 
nan

>  <Num_Not_Resolved_Atoms>  (646) 
nan

$$$$
CHEMBL3580948
     RDKit          3D

  0  0  0  0  0  0  0  0  0  0999 V3000
M  V30 BEGIN CTAB
M  V30 COUNTS 50 54 0 0 0
M  V30 BEGIN ATOM
M  V30 1 C -0.040941 -3.776361 2.347705 0
M  V30 2 C -0.824822 -4.601946 1.346201 0
M  V30 3 C -2.153636 -4.013999 0.996178 0
M  V30 4 C -2.179914 -3.655317 -0.493888 0
M  V30 5 N -0.934202 -2.953939 -0.735593 0
M  V30 6 C -0.863155 -1.541926 -0.888509 0
M  V30 7 N 0.313366 -0.909107 -1.115428 0
M  V30 8 C 0.370139 0.435641 -1.259352 0
M  V30 9 N 1.613813 1.084745 -1.497404 0
M  V30 10 C 2.377546 1.515228 -0.376422 0
M  V30 11 C 2.065271 1.383505 0.960724 0
M  V30 12 C 3.068051 1.932081 1.760405 0
M  V30 13 C 3.162146 2.017795 3.231619 0
M  V30 14 C 1.840599 2.316620 3.967334 0
M  V30 15 C 2.508579 1.016787 4.104937 0
M  V30 16 N 3.971723 2.386149 0.846631 0
M  V30 17 N 3.568725 2.143339 -0.381148 0
M  V30 18 C -0.791742 1.173247 -1.173124 0
M  V30 19 C -0.814501 2.546213 -1.308939 0
M  V30 20 C -1.951561 3.294591 -1.227282 0
M  V30 21 C -3.125093 2.596777 -0.994203 0
M  V30 22 C -3.144714 1.215352 -0.851669 0
M  V30 23 C -1.969768 0.482274 -0.940120 0
M  V30 24 N -2.016496 -0.855745 -0.798265 0
M  V30 25 C 0.224944 -3.820719 -0.806250 0
M  V30 26 C 0.020004 -4.969970 0.143143 0
M  V30 27 H 0.037550 -4.273872 3.343510 0
M  V30 28 H 0.985607 -3.663870 1.938461 0
M  V30 29 H -0.474798 -2.771972 2.462285 0
M  V30 30 H -1.047394 -5.580691 1.860767 0
M  V30 31 H -3.015877 -4.720795 1.139140 0
M  V30 32 H -2.406462 -3.124382 1.617854 0
M  V30 33 H -2.276618 -4.575385 -1.071080 0
M  V30 34 H -3.042145 -2.954467 -0.658208 0
M  V30 35 H 2.000519 1.264454 -2.451216 0
M  V30 36 H 1.156592 0.914286 1.367052 0
M  V30 37 H 4.067229 2.505631 3.606827 0
M  V30 38 H 0.920029 2.340367 3.337770 0
M  V30 39 H 1.899255 3.113408 4.728933 0
M  V30 40 H 2.985174 0.826960 5.088591 0
M  V30 41 H 2.000050 0.130493 3.707041 0
M  V30 42 H 4.877488 2.870347 1.109339 0
M  V30 43 H 0.157898 2.983006 -1.487742 0
M  V30 44 H -1.900391 4.365497 -1.342755 0
M  V30 45 H -4.065448 3.161479 -0.921201 0
M  V30 46 H -4.120164 0.771096 -0.671686 0
M  V30 47 H 0.234701 -4.245536 -1.843769 0
M  V30 48 H 1.175162 -3.299869 -0.690445 0
M  V30 49 H -0.521665 -5.784456 -0.371992 0
M  V30 50 H 0.980866 -5.334483 0.514509 0
M  V30 END ATOM
M  V30 BEGIN BOND
M  V30 1 1 1 2
M  V30 2 1 2 3
M  V30 3 1 3 4
M  V30 4 1 4 5
M  V30 5 1 5 6
M  V30 6 2 6 7
M  V30 7 1 7 8
M  V30 8 1 8 9
M  V30 9 1 9 10
M  V30 10 1 10 11
M  V30 11 2 11 12
M  V30 12 1 12 13
M  V30 13 1 13 14
M  V30 14 1 14 15
M  V30 15 1 12 16
M  V30 16 1 16 17
M  V30 17 2 8 18
M  V30 18 1 18 19
M  V30 19 2 19 20
M  V30 20 1 20 21
M  V30 21 2 21 22
M  V30 22 1 22 23
M  V30 23 2 23 24
M  V30 24 1 5 25
M  V30 25 1 25 26
M  V30 26 1 26 2
M  V30 27 1 24 6
M  V30 28 2 17 10
M  V30 29 1 23 18
M  V30 30 1 15 13
M  V30 31 1 1 27
M  V30 32 1 1 28
M  V30 33 1 1 29
M  V30 34 1 2 30
M  V30 35 1 3 31
M  V30 36 1 3 32
M  V30 37 1 4 33
M  V30 38 1 4 34
M  V30 39 1 9 35
M  V30 40 1 11 36
M  V30 41 1 13 37
M  V30 42 1 14 38
M  V30 43 1 14 39
M  V30 44 1 15 40
M  V30 45 1 15 41
M  V30 46 1 16 42
M  V30 47 1 19 43
M  V30 48 1 20 44
M  V30 49 1 21 45
M  V30 50 1 22 46
M  V30 51 1 25 47
M  V30 52 1 25 48
M  V30 53 1 26 49
M  V30 54 1 26 50
M  V30 END BOND
M  V30 END CTAB
M  END
>  <Dataset>  (647) 
ChEMBL_Kinases

>  <Ligand_Instance>  (647) 
nan

>  <PDB_ID>  (647) 
nan

>  <Standardized_SMILES>  (647) 
CC1CCN(c2nc(Nc3cc(C4CC4)[nH]n3)c3ccccc3n2)CC1

>  <Name>  (647) 
nan

>  <Pocket>  (647) 
nan

>  <ATP_Site>  (647) 
nan

>  <Peripheral>  (647) 
nan

>  <Num_H_Atoms_ProtBoundConf>  (647) 
nan

>  <Num_Resolved_Atoms>  (647) 
nan

>  <Num_Not_Resolved_Atoms>  (647) 
nan

$$$$
CHEMBL3660028
     RDKit          3D

  0  0  0  0  0  0  0  0  0  0999 V3000
M  V30 BEGIN CTAB
M  V30 COUNTS 45 48 0 0 0
M  V30 BEGIN ATOM
M  V30 1 C 4.468398 -1.920270 0.101003 0
M  V30 2 C 2.973986 -2.059224 -0.257833 0
M  V30 3 C 2.811000 -3.475291 -0.678357 0
M  V30 4 C 2.774499 -1.136812 -1.451870 0
M  V30 5 C 2.238401 -1.611235 0.942711 0
M  V30 6 O 0.903410 -1.587002 0.999300 0
M  V30 7 C -0.186951 -2.339887 0.936365 0
M  V30 8 C -0.424731 -3.687799 0.763872 0
M  V30 9 C -1.639768 -4.311599 0.723392 0
M  V30 10 C -2.731276 -3.494777 0.872321 0
M  V30 11 C -2.622977 -2.131924 1.051816 0
M  V30 12 C -3.797478 -1.429293 1.188564 0
M  V30 13 C -3.712705 -0.064664 1.369170 0
M  V30 14 C -2.464934 0.522790 1.403409 0
M  V30 15 C -2.312283 1.960171 1.591186 0
M  V30 16 N -3.333423 2.822352 1.743895 0
M  V30 17 N -2.854683 4.043671 1.891004 0
M  V30 18 C -1.497884 3.967341 1.831956 0
M  V30 19 C -0.605903 5.015442 1.940880 0
M  V30 20 C 0.728584 4.689446 1.849007 0
M  V30 21 C 1.049943 3.362747 1.658951 0
M  V30 22 C 0.105615 2.370531 1.559436 0
M  V30 23 N -1.194362 2.667459 1.646151 0
M  V30 24 N -1.367731 -0.237480 1.261684 0
M  V30 25 C -1.345411 -1.561165 1.082749 0
M  V30 26 H 5.026501 -2.435372 -0.703773 0
M  V30 27 H 4.726749 -0.859758 0.208232 0
M  V30 28 H 4.562611 -2.409918 1.091728 0
M  V30 29 H 2.809613 -4.114246 0.229466 0
M  V30 30 H 3.663288 -3.851785 -1.281894 0
M  V30 31 H 1.912181 -3.613574 -1.311531 0
M  V30 32 H 2.082610 -1.630820 -2.189163 0
M  V30 33 H 3.727573 -0.851318 -1.941456 0
M  V30 34 H 2.304801 -0.174820 -1.135470 0
M  V30 35 H 2.660849 -2.223542 1.809046 0
M  V30 36 H 2.649915 -0.575389 1.177763 0
M  V30 37 H 0.458251 -4.276737 0.661603 0
M  V30 38 H -1.668308 -5.390210 0.579302 0
M  V30 39 H -3.707115 -3.961714 0.844386 0
M  V30 40 H -4.753556 -1.926767 1.155949 0
M  V30 41 H -4.602668 0.539984 1.482520 0
M  V30 42 H -0.944666 6.026832 2.089151 0
M  V30 43 H 1.434198 5.505447 1.933402 0
M  V30 44 H 2.124305 3.136482 1.589841 0
M  V30 45 H 0.400365 1.340692 1.410280 0
M  V30 END ATOM
M  V30 BEGIN BOND
M  V30 1 1 1 2
M  V30 2 1 2 3
M  V30 3 1 2 4
M  V30 4 1 2 5
M  V30 5 1 5 6
M  V30 6 1 6 7
M  V30 7 2 7 8
M  V30 8 1 8 9
M  V30 9 2 9 10
M  V30 10 1 10 11
M  V30 11 2 11 12
M  V30 12 1 12 13
M  V30 13 2 13 14
M  V30 14 1 14 15
M  V30 15 2 15 16
M  V30 16 1 16 17
M  V30 17 2 17 18
M  V30 18 1 18 19
M  V30 19 2 19 20
M  V30 20 1 20 21
M  V30 21 2 21 22
M  V30 22 1 22 23
M  V30 23 1 14 24
M  V30 24 2 24 25
M  V30 25 1 25 7
M  V30 26 1 25 11
M  V30 27 1 23 15
M  V30 28 1 23 18
M  V30 29 1 1 26
M  V30 30 1 1 27
M  V30 31 1 1 28
M  V30 32 1 3 29
M  V30 33 1 3 30
M  V30 34 1 3 31
M  V30 35 1 4 32
M  V30 36 1 4 33
M  V30 37 1 4 34
M  V30 38 1 5 35
M  V30 39 1 5 36
M  V30 40 1 8 37
M  V30 41 1 9 38
M  V30 42 1 10 39
M  V30 43 1 12 40
M  V30 44 1 13 41
M  V30 45 1 19 42
M  V30 46 1 20 43
M  V30 47 1 21 44
M  V30 48 1 22 45
M  V30 END BOND
M  V30 END CTAB
M  END
>  <Dataset>  (648) 
ChEMBL_Kinases

>  <Ligand_Instance>  (648) 
nan

>  <PDB_ID>  (648) 
nan

>  <Standardized_SMILES>  (648) 
CC(C)(C)COc1cccc2ccc(-c3nnc4ccccn34)nc12

>  <Name>  (648) 
nan

>  <Pocket>  (648) 
nan

>  <ATP_Site>  (648) 
nan

>  <Peripheral>  (648) 
nan

>  <Num_H_Atoms_ProtBoundConf>  (648) 
nan

>  <Num_Resolved_Atoms>  (648) 
nan

>  <Num_Not_Resolved_Atoms>  (648) 
nan

$$$$
CHEMBL360573
     RDKit          3D

  0  0  0  0  0  0  0  0  0  0999 V3000
M  V30 BEGIN CTAB
M  V30 COUNTS 58 61 0 0 0
M  V30 BEGIN ATOM
M  V30 1 C 3.450902 4.534772 -3.332652 0
M  V30 2 N 4.001723 3.246766 -3.594605 0
M  V30 3 C 4.776430 2.660611 -2.554133 0
M  V30 4 S 2.930271 2.198280 -4.403113 0
M  V30 5 O 2.660255 2.786358 -5.763234 0
M  V30 6 O 3.674322 0.889674 -4.617274 0
M  V30 7 C 1.477573 1.839968 -3.541050 0
M  V30 8 C 0.310972 2.577957 -3.706710 0
M  V30 9 C -0.842139 2.283780 -3.018453 0
M  V30 10 C -0.888562 1.234137 -2.127065 0
M  V30 11 N -2.034247 0.827360 -1.368515 0
M  V30 12 C -1.904726 -0.218428 -0.415248 0
M  V30 13 C -1.745315 0.198859 0.873856 0
M  V30 14 C -1.605454 -0.798819 1.846468 0
M  V30 15 N -1.438517 -0.631281 3.264470 0
M  V30 16 C -1.285199 -1.623229 4.304278 0 CFG=1
M  V30 17 C -2.398500 -2.606017 4.398742 0
M  V30 18 C -2.055169 -4.029274 4.149817 0
M  V30 19 C -0.789295 -4.542883 4.729367 0 CFG=2
M  V30 20 N -1.091414 -5.504706 5.793623 0
M  V30 21 C 0.132124 -3.471379 5.190177 0
M  V30 22 C 0.074075 -2.328491 4.169068 0
M  V30 23 N -1.634058 -2.086983 1.475408 0
M  V30 24 C -1.795272 -2.403459 0.181450 0
M  V30 25 C -1.864433 -3.620049 -0.509540 0
M  V30 26 C -1.764840 -4.940238 0.090409 0
M  V30 27 N -1.688341 -6.000152 0.573474 0
M  V30 28 C -2.041449 -3.408494 -1.865271 0
M  V30 29 N -2.079683 -2.056977 -1.993672 0
M  V30 30 N -1.937347 -1.501004 -0.819047 0
M  V30 31 C 0.296247 0.535428 -2.000189 0
M  V30 32 C 1.482384 0.767369 -2.649300 0
M  V30 33 H 4.243671 5.255686 -3.051446 0
M  V30 34 H 2.924736 4.855572 -4.260533 0
M  V30 35 H 2.637435 4.457830 -2.570017 0
M  V30 36 H 5.841958 2.624852 -2.888684 0
M  V30 37 H 4.468565 1.640867 -2.249475 0
M  V30 38 H 4.694042 3.344427 -1.663087 0
M  V30 39 H 0.299030 3.426067 -4.409813 0
M  V30 40 H -1.777194 2.849522 -3.130734 0
M  V30 41 H -2.945244 1.332161 -1.551639 0
M  V30 42 H -1.708640 1.182487 1.267092 0
M  V30 43 H -1.443206 0.415940 3.466098 0
M  V30 44 H -1.272589 -1.022855 5.265383 0
M  V30 45 H -3.176405 -2.283266 3.666459 0
M  V30 46 H -2.901146 -2.516275 5.392294 0
M  V30 47 H -2.063342 -4.310320 3.074039 0
M  V30 48 H -2.918746 -4.633210 4.575419 0
M  V30 49 H -0.200176 -5.164456 3.984390 0
M  V30 50 H -1.804870 -5.016360 6.411302 0
M  V30 51 H -0.212564 -5.690123 6.338465 0
M  V30 52 H 1.174822 -3.839143 5.139312 0
M  V30 53 H -0.119690 -3.106424 6.210193 0
M  V30 54 H 0.205437 -2.758072 3.171025 0
M  V30 55 H 0.899054 -1.625140 4.384370 0
M  V30 56 H -2.135015 -4.107881 -2.678394 0
M  V30 57 H 0.301065 -0.306233 -1.299979 0
M  V30 58 H 2.350301 0.147040 -2.466310 0
M  V30 END ATOM
M  V30 BEGIN BOND
M  V30 1 1 1 2
M  V30 2 1 2 3
M  V30 3 1 2 4
M  V30 4 2 4 5
M  V30 5 2 4 6
M  V30 6 1 4 7
M  V30 7 2 7 8
M  V30 8 1 8 9
M  V30 9 2 9 10
M  V30 10 1 10 11
M  V30 11 1 11 12
M  V30 12 2 12 13
M  V30 13 1 13 14
M  V30 14 1 14 15
M  V30 15 1 15 16
M  V30 16 1 16 17
M  V30 17 1 17 18
M  V30 18 1 18 19
M  V30 19 1 19 20
M  V30 20 1 19 21
M  V30 21 1 21 22
M  V30 22 2 14 23
M  V30 23 1 23 24
M  V30 24 2 24 25
M  V30 25 1 25 26
M  V30 26 3 26 27
M  V30 27 1 25 28
M  V30 28 2 28 29
M  V30 29 1 29 30
M  V30 30 1 10 31
M  V30 31 2 31 32
M  V30 32 1 32 7
M  V30 33 1 30 12
M  V30 34 1 22 16
M  V30 35 1 30 24
M  V30 36 1 1 33
M  V30 37 1 1 34
M  V30 38 1 1 35
M  V30 39 1 3 36
M  V30 40 1 3 37
M  V30 41 1 3 38
M  V30 42 1 8 39
M  V30 43 1 9 40
M  V30 44 1 11 41
M  V30 45 1 13 42
M  V30 46 1 15 43
M  V30 47 1 16 44 CFG=1
M  V30 48 1 17 45
M  V30 49 1 17 46
M  V30 50 1 18 47
M  V30 51 1 18 48
M  V30 52 1 19 49 CFG=3
M  V30 53 1 20 50
M  V30 54 1 20 51
M  V30 55 1 21 52
M  V30 56 1 21 53
M  V30 57 1 22 54
M  V30 58 1 22 55
M  V30 59 1 28 56
M  V30 60 1 31 57
M  V30 61 1 32 58
M  V30 END BOND
M  V30 END CTAB
M  END
>  <Dataset>  (649) 
ChEMBL_Kinases

>  <Ligand_Instance>  (649) 
nan

>  <PDB_ID>  (649) 
nan

>  <Standardized_SMILES>  (649) 
CN(C)S(=O)(=O)c1ccc(Nc2cc(N[C@H]3CC[C@H](N)CC3)nc3c(C#N)cnn23)cc1

>  <Name>  (649) 
nan

>  <Pocket>  (649) 
nan

>  <ATP_Site>  (649) 
nan

>  <Peripheral>  (649) 
nan

>  <Num_H_Atoms_ProtBoundConf>  (649) 
nan

>  <Num_Resolved_Atoms>  (649) 
nan

>  <Num_Not_Resolved_Atoms>  (649) 
nan

$$$$
CHEMBL3660027
     RDKit          3D

  0  0  0  0  0  0  0  0  0  0999 V3000
M  V30 BEGIN CTAB
M  V30 COUNTS 44 48 0 0 0
M  V30 BEGIN ATOM
M  V30 1 O -1.435151 -0.664867 2.474600 0
M  V30 2 C -2.776636 -0.789432 2.137042 0
M  V30 3 C -2.986974 -1.158936 0.682918 0
M  V30 4 C -2.441555 -0.184909 -0.304626 0
M  V30 5 O -1.045392 -0.031292 -0.149954 0
M  V30 6 C -0.288387 0.818852 -0.945339 0
M  V30 7 C -0.949846 1.537816 -1.926427 0
M  V30 8 C -0.249740 2.407249 -2.757410 0
M  V30 9 C 1.129687 2.553880 -2.598671 0
M  V30 10 C 1.805765 1.838771 -1.618540 0
M  V30 11 C 3.168592 1.969493 -1.445481 0
M  V30 12 C 3.847051 1.247037 -0.456353 0
M  V30 13 C 3.063165 0.397581 0.331868 0
M  V30 14 C 3.768521 -0.365292 1.373661 0
M  V30 15 N 5.079699 -0.357989 1.676045 0
M  V30 16 N 5.328147 -1.187766 2.686242 0
M  V30 17 C 4.164080 -1.749412 3.054262 0
M  V30 18 C 3.927756 -2.672338 4.056350 0
M  V30 19 C 2.634749 -3.105850 4.246899 0
M  V30 20 C 1.631387 -2.608951 3.439416 0
M  V30 21 C 1.967843 -1.679121 2.453145 0
M  V30 22 N 3.220878 -1.236569 2.242759 0
M  V30 23 N 1.727124 0.277229 0.153270 0
M  V30 24 C 1.076867 0.986389 -0.813931 0
M  V30 25 C -3.035167 -2.614537 0.420180 0
M  V30 26 C -4.323158 -1.816556 0.434777 0
M  V30 27 H -1.262861 0.071730 3.082222 0
M  V30 28 H -3.284343 -1.506531 2.811867 0
M  V30 29 H -3.219326 0.230678 2.310399 0
M  V30 30 H -2.996028 0.774685 -0.155698 0
M  V30 31 H -2.643472 -0.605691 -1.320502 0
M  V30 32 H -2.020492 1.466979 -2.098913 0
M  V30 33 H -0.745104 2.980617 -3.532210 0
M  V30 34 H 1.707415 3.227192 -3.233792 0
M  V30 35 H 3.705324 2.641818 -2.089162 0
M  V30 36 H 4.912466 1.348199 -0.319876 0
M  V30 37 H 4.676905 -3.077542 4.698470 0
M  V30 38 H 2.365306 -3.822595 5.004753 0
M  V30 39 H 0.611637 -2.942814 3.580488 0
M  V30 40 H 1.161216 -1.307672 1.836114 0
M  V30 41 H -2.924964 -3.334840 1.273368 0
M  V30 42 H -2.774694 -3.051335 -0.548655 0
M  V30 43 H -4.834950 -1.629596 -0.534917 0
M  V30 44 H -5.045457 -1.944580 1.266930 0
M  V30 END ATOM
M  V30 BEGIN BOND
M  V30 1 1 1 2
M  V30 2 1 2 3
M  V30 3 1 3 4
M  V30 4 1 4 5
M  V30 5 1 5 6
M  V30 6 2 6 7
M  V30 7 1 7 8
M  V30 8 2 8 9
M  V30 9 1 9 10
M  V30 10 2 10 11
M  V30 11 1 11 12
M  V30 12 2 12 13
M  V30 13 1 13 14
M  V30 14 2 14 15
M  V30 15 1 15 16
M  V30 16 2 16 17
M  V30 17 1 17 18
M  V30 18 2 18 19
M  V30 19 1 19 20
M  V30 20 2 20 21
M  V30 21 1 21 22
M  V30 22 1 13 23
M  V30 23 2 23 24
M  V30 24 1 3 25
M  V30 25 1 25 26
M  V30 26 1 26 3
M  V30 27 1 24 6
M  V30 28 1 24 10
M  V30 29 1 22 14
M  V30 30 1 22 17
M  V30 31 1 1 27
M  V30 32 1 2 28
M  V30 33 1 2 29
M  V30 34 1 4 30
M  V30 35 1 4 31
M  V30 36 1 7 32
M  V30 37 1 8 33
M  V30 38 1 9 34
M  V30 39 1 11 35
M  V30 40 1 12 36
M  V30 41 1 18 37
M  V30 42 1 19 38
M  V30 43 1 20 39
M  V30 44 1 21 40
M  V30 45 1 25 41
M  V30 46 1 25 42
M  V30 47 1 26 43
M  V30 48 1 26 44
M  V30 END BOND
M  V30 END CTAB
M  END
>  <Dataset>  (650) 
ChEMBL_Kinases

>  <Ligand_Instance>  (650) 
nan

>  <PDB_ID>  (650) 
nan

>  <Standardized_SMILES>  (650) 
OCC1(COc2cccc3ccc(-c4nnc5ccccn45)nc23)CC1

>  <Name>  (650) 
nan

>  <Pocket>  (650) 
nan

>  <ATP_Site>  (650) 
nan

>  <Peripheral>  (650) 
nan

>  <Num_H_Atoms_ProtBoundConf>  (650) 
nan

>  <Num_Resolved_Atoms>  (650) 
nan

>  <Num_Not_Resolved_Atoms>  (650) 
nan

$$$$
CHEMBL3884535
     RDKit          3D

  0  0  0  0  0  0  0  0  0  0999 V3000
M  V30 BEGIN CTAB
M  V30 COUNTS 63 67 0 0 0
M  V30 BEGIN ATOM
M  V30 1 C 1.475346 4.279292 2.795708 0
M  V30 2 C 1.214192 3.623667 1.454593 0
M  V30 3 C 0.766192 4.593583 0.399187 0
M  V30 4 C 2.409029 2.862543 1.045646 0
M  V30 5 O 3.433413 3.549144 0.825919 0
M  V30 6 N 2.203397 1.474767 0.968922 0
M  V30 7 C 3.138066 0.441163 0.574222 0
M  V30 8 C 4.320583 0.263344 1.423753 0
M  V30 9 C 5.565493 0.965487 0.980653 0
M  V30 10 C 5.775799 0.933824 -0.503944 0
M  V30 11 C 4.566063 1.278887 -1.295024 0
M  V30 12 C 3.423736 0.424121 -0.902654 0
M  V30 13 C 0.818563 1.353526 1.374188 0
M  V30 14 N 0.062466 0.234481 1.501953 0
M  V30 15 C -1.221557 0.243443 1.899580 0
M  V30 16 N -1.867541 -1.021079 1.979642 0
M  V30 17 C -2.546034 -1.520744 0.834374 0
M  V30 18 C -2.541613 -0.750735 -0.296732 0
M  V30 19 C -3.207598 -1.253885 -1.401820 0
M  V30 20 C -3.840927 -2.477927 -1.345678 0
M  V30 21 C -3.857959 -3.261906 -0.228904 0
M  V30 22 N -4.516835 -4.516726 -0.192541 0
M  V30 23 C -5.266483 -5.072139 -1.299780 0
M  V30 24 C -4.477877 -6.304285 -1.746347 0
M  V30 25 N -4.575901 -7.272082 -0.668697 0
M  V30 26 C -3.947208 -6.748928 0.521786 0
M  V30 27 C -4.535211 -5.418194 0.940318 0
M  V30 28 C -3.190192 -2.740060 0.853381 0
M  V30 29 N -1.819311 1.428494 2.196400 0
M  V30 30 C -1.098180 2.578109 2.082103 0
M  V30 31 C 0.216306 2.542324 1.672324 0
M  V30 32 H 2.431934 3.904174 3.231282 0
M  V30 33 H 0.688473 3.985053 3.541658 0
M  V30 34 H 1.453048 5.377732 2.701852 0
M  V30 35 H 1.649797 4.768998 -0.273966 0
M  V30 36 H -0.057199 4.146306 -0.221129 0
M  V30 37 H 0.476609 5.589653 0.787009 0
M  V30 38 H 2.511979 -0.515563 0.707635 0
M  V30 39 H 4.572200 -0.814650 1.510537 0
M  V30 40 H 4.112685 0.603200 2.465839 0
M  V30 41 H 6.439556 0.446693 1.437625 0
M  V30 42 H 5.658854 2.015688 1.324026 0
M  V30 43 H 6.133617 -0.074725 -0.807825 0
M  V30 44 H 6.595932 1.642290 -0.754703 0
M  V30 45 H 4.354402 2.362697 -1.399291 0
M  V30 46 H 4.813324 0.972186 -2.371392 0
M  V30 47 H 3.722662 -0.639581 -1.161172 0
M  V30 48 H 2.500249 0.612153 -1.496767 0
M  V30 49 H -1.857001 -1.598290 2.865243 0
M  V30 50 H -2.047648 0.199583 -0.334111 0
M  V30 51 H -3.189256 -0.626141 -2.282962 0
M  V30 52 H -4.310088 -2.744771 -2.257136 0
M  V30 53 H -5.459088 -4.388268 -2.123931 0
M  V30 54 H -6.244305 -5.489516 -0.915431 0
M  V30 55 H -4.868313 -6.715157 -2.686626 0
M  V30 56 H -3.402341 -6.078955 -1.882562 0
M  V30 57 H -3.947202 -8.075651 -0.973025 0
M  V30 58 H -4.156426 -7.465537 1.347479 0
M  V30 59 H -2.844087 -6.658628 0.439442 0
M  V30 60 H -3.984394 -5.085619 1.814618 0
M  V30 61 H -5.606881 -5.571691 1.240258 0
M  V30 62 H -3.131937 -3.264544 1.795117 0
M  V30 63 H -1.542840 3.536799 2.310166 0
M  V30 END ATOM
M  V30 BEGIN BOND
M  V30 1 1 1 2
M  V30 2 1 2 3
M  V30 3 1 2 4
M  V30 4 2 4 5
M  V30 5 1 4 6
M  V30 6 1 6 7
M  V30 7 1 7 8
M  V30 8 1 8 9
M  V30 9 1 9 10
M  V30 10 1 10 11
M  V30 11 1 11 12
M  V30 12 1 6 13
M  V30 13 2 13 14
M  V30 14 1 14 15
M  V30 15 1 15 16
M  V30 16 1 16 17
M  V30 17 2 17 18
M  V30 18 1 18 19
M  V30 19 2 19 20
M  V30 20 1 20 21
M  V30 21 1 21 22
M  V30 22 1 22 23
M  V30 23 1 23 24
M  V30 24 1 24 25
M  V30 25 1 25 26
M  V30 26 1 26 27
M  V30 27 2 21 28
M  V30 28 2 15 29
M  V30 29 1 29 30
M  V30 30 2 30 31
M  V30 31 1 31 2
M  V30 32 1 12 7
M  V30 33 1 31 13
M  V30 34 1 28 17
M  V30 35 1 27 22
M  V30 36 1 1 32
M  V30 37 1 1 33
M  V30 38 1 1 34
M  V30 39 1 3 35
M  V30 40 1 3 36
M  V30 41 1 3 37
M  V30 42 1 7 38
M  V30 43 1 8 39
M  V30 44 1 8 40
M  V30 45 1 9 41
M  V30 46 1 9 42
M  V30 47 1 10 43
M  V30 48 1 10 44
M  V30 49 1 11 45
M  V30 50 1 11 46
M  V30 51 1 12 47
M  V30 52 1 12 48
M  V30 53 1 16 49
M  V30 54 1 18 50
M  V30 55 1 19 51
M  V30 56 1 20 52
M  V30 57 1 23 53
M  V30 58 1 23 54
M  V30 59 1 24 55
M  V30 60 1 24 56
M  V30 61 1 25 57
M  V30 62 1 26 58
M  V30 63 1 26 59
M  V30 64 1 27 60
M  V30 65 1 27 61
M  V30 66 1 28 62
M  V30 67 1 30 63
M  V30 END BOND
M  V30 END CTAB
M  END
>  <Dataset>  (651) 
ChEMBL_Kinases

>  <Ligand_Instance>  (651) 
nan

>  <PDB_ID>  (651) 
nan

>  <Standardized_SMILES>  (651) 
CC1(C)C(=O)N(C2CCCCC2)c2nc(Nc3cccc(N4CCNCC4)c3)ncc21

>  <Name>  (651) 
nan

>  <Pocket>  (651) 
nan

>  <ATP_Site>  (651) 
nan

>  <Peripheral>  (651) 
nan

>  <Num_H_Atoms_ProtBoundConf>  (651) 
nan

>  <Num_Resolved_Atoms>  (651) 
nan

>  <Num_Not_Resolved_Atoms>  (651) 
nan

$$$$
CHEMBL4078768
     RDKit          3D

  0  0  0  0  0  0  0  0  0  0999 V3000
M  V30 BEGIN CTAB
M  V30 COUNTS 51 54 0 0 0
M  V30 BEGIN ATOM
M  V30 1 O 1.004386 -1.458673 0.775207 0
M  V30 2 C 1.131640 -1.252033 2.017908 0
M  V30 3 N 1.600541 -2.303989 2.833657 0
M  V30 4 C 1.967549 -3.640751 2.403664 0
M  V30 5 C 3.295712 -3.650902 1.741012 0
M  V30 6 C 3.559275 -3.496605 0.404650 0
M  V30 7 C 4.827346 -3.515643 -0.133792 0
M  V30 8 C 5.918848 -3.698603 0.691679 0
M  V30 9 C 5.687211 -3.856014 2.034609 0
M  V30 10 C 4.393410 -3.833381 2.559063 0
M  V30 11 C 0.789140 0.061400 2.553529 0
M  V30 12 C 0.887802 0.408413 3.884402 0
M  V30 13 C 0.545615 1.668679 4.322501 0
M  V30 14 C 0.094238 2.618574 3.440478 0
M  V30 15 C -0.031126 2.337629 2.078835 0
M  V30 16 N -0.487270 3.304381 1.147479 0
M  V30 17 C -0.724442 3.250749 -0.280587 0
M  V30 18 C -1.827670 2.336712 -0.666765 0
M  V30 19 C -3.144570 2.822366 -0.673913 0
M  V30 20 C -4.039455 1.849164 -1.063891 0
M  V30 21 N -3.298170 0.754471 -1.302638 0
M  V30 22 C -3.663715 -0.556548 -1.729732 0
M  V30 23 C -4.787755 -1.231540 -1.307711 0
M  V30 24 C -5.018923 -2.510708 -1.808225 0
M  V30 25 N -4.208344 -3.129825 -2.681844 0
M  V30 26 C -3.095409 -2.518101 -3.128712 0
M  V30 27 C -2.858570 -1.252167 -2.639157 0
M  V30 28 C -2.006919 1.033465 -1.072702 0
M  V30 29 C 0.330047 1.057711 1.716860 0
M  V30 30 H 1.706933 -2.142536 3.848758 0
M  V30 31 H 1.247316 -3.971712 1.621682 0
M  V30 32 H 1.923514 -4.374742 3.204343 0
M  V30 33 H 2.699688 -3.355259 -0.236589 0
M  V30 34 H 4.932468 -3.384871 -1.203075 0
M  V30 35 H 6.891014 -3.708822 0.243808 0
M  V30 36 H 6.595396 -3.995123 2.618667 0
M  V30 37 H 4.322099 -3.967177 3.634577 0
M  V30 38 H 1.238847 -0.318715 4.595710 0
M  V30 39 H 0.609436 1.976308 5.352721 0
M  V30 40 H -0.177309 3.622049 3.795432 0
M  V30 41 H -0.688203 4.231248 1.589928 0
M  V30 42 H 0.230288 2.937621 -0.818741 0
M  V30 43 H -0.941485 4.267185 -0.663509 0
M  V30 44 H -3.513474 3.811994 -0.423673 0
M  V30 45 H -5.106154 1.888016 -1.174345 0
M  V30 46 H -5.442601 -0.746878 -0.610194 0
M  V30 47 H -5.902741 -3.063679 -1.487572 0
M  V30 48 H -2.368243 -2.921467 -3.833492 0
M  V30 49 H -1.972870 -0.716153 -2.969747 0
M  V30 50 H -1.134165 0.403362 -1.164752 0
M  V30 51 H 0.257529 0.804414 0.688858 0
M  V30 END ATOM
M  V30 BEGIN BOND
M  V30 1 2 1 2
M  V30 2 1 2 3
M  V30 3 1 3 4
M  V30 4 1 4 5
M  V30 5 2 5 6
M  V30 6 1 6 7
M  V30 7 2 7 8
M  V30 8 1 8 9
M  V30 9 2 9 10
M  V30 10 1 2 11
M  V30 11 2 11 12
M  V30 12 1 12 13
M  V30 13 2 13 14
M  V30 14 1 14 15
M  V30 15 1 15 16
M  V30 16 1 16 17
M  V30 17 1 17 18
M  V30 18 1 18 19
M  V30 19 2 19 20
M  V30 20 1 20 21
M  V30 21 1 21 22
M  V30 22 2 22 23
M  V30 23 1 23 24
M  V30 24 2 24 25
M  V30 25 1 25 26
M  V30 26 2 26 27
M  V30 27 1 21 28
M  V30 28 2 15 29
M  V30 29 1 10 5
M  V30 30 1 29 11
M  V30 31 2 28 18
M  V30 32 1 27 22
M  V30 33 1 3 30
M  V30 34 1 4 31
M  V30 35 1 4 32
M  V30 36 1 6 33
M  V30 37 1 7 34
M  V30 38 1 8 35
M  V30 39 1 9 36
M  V30 40 1 10 37
M  V30 41 1 12 38
M  V30 42 1 13 39
M  V30 43 1 14 40
M  V30 44 1 16 41
M  V30 45 1 17 42
M  V30 46 1 17 43
M  V30 47 1 19 44
M  V30 48 1 20 45
M  V30 49 1 23 46
M  V30 50 1 24 47
M  V30 51 1 26 48
M  V30 52 1 27 49
M  V30 53 1 28 50
M  V30 54 1 29 51
M  V30 END BOND
M  V30 END CTAB
M  END
>  <Dataset>  (652) 
ChEMBL_Kinases

>  <Ligand_Instance>  (652) 
nan

>  <PDB_ID>  (652) 
nan

>  <Standardized_SMILES>  (652) 
O=C(NCc1ccccc1)c1cccc(NCc2ccn(-c3ccncc3)c2)c1

>  <Name>  (652) 
nan

>  <Pocket>  (652) 
nan

>  <ATP_Site>  (652) 
nan

>  <Peripheral>  (652) 
nan

>  <Num_H_Atoms_ProtBoundConf>  (652) 
nan

>  <Num_Resolved_Atoms>  (652) 
nan

>  <Num_Not_Resolved_Atoms>  (652) 
nan

$$$$
CHEMBL4078759
     RDKit          3D

  0  0  0  0  0  0  0  0  0  0999 V3000
M  V30 BEGIN CTAB
M  V30 COUNTS 51 55 0 0 0
M  V30 BEGIN ATOM
M  V30 1 C -1.671430 2.029771 2.319108 0
M  V30 2 C -0.257143 1.965659 1.938450 0
M  V30 3 C 0.326153 3.163351 1.624186 0
M  V30 4 C 1.658191 3.178013 1.283966 0
M  V30 5 C 2.382259 2.006679 1.261961 0
M  V30 6 C 3.708141 2.107342 0.900966 0
M  V30 7 C 4.468074 0.958300 0.854156 0
M  V30 8 C 3.893270 -0.243921 1.164215 0
M  V30 9 C 4.717430 -1.504616 1.110120 0
M  V30 10 N 4.623892 -2.086097 -0.211898 0
M  V30 11 C 2.573488 -0.279432 1.515331 0
M  V30 12 C 1.744817 0.830749 1.586245 0
M  V30 13 C 0.393429 0.754001 1.940441 0
M  V30 14 C -0.169457 -0.556255 2.217047 0
M  V30 15 C -1.075703 -1.401673 1.757117 0
M  V30 16 C -1.989797 -1.335702 0.632947 0
M  V30 17 C -2.945123 -0.500661 0.107870 0
M  V30 18 N -3.471070 -0.924812 -1.044177 0
M  V30 19 C -4.488088 -0.244469 -1.807123 0
M  V30 20 C -2.860085 -2.082811 -1.317230 0
M  V30 21 C -3.078823 -2.882507 -2.415518 0
M  V30 22 C -2.356591 -4.047610 -2.552306 0
M  V30 23 C -1.435822 -4.372513 -1.579881 0
M  V30 24 C -1.257561 -3.534658 -0.500347 0
M  V30 25 C -1.950801 -2.366841 -0.318290 0
M  V30 26 C -1.103545 -2.588455 2.645691 0
M  V30 27 O -1.834256 -3.616617 2.547901 0
M  V30 28 N -0.146558 -2.427324 3.699391 0
M  V30 29 C 0.447285 -1.140710 3.431677 0
M  V30 30 O 1.341708 -0.798494 4.268872 0
M  V30 31 H -2.222257 2.405133 1.429846 0
M  V30 32 H -1.828398 2.789117 3.123989 0
M  V30 33 H -1.992726 1.065310 2.704256 0
M  V30 34 H -0.206265 4.089030 1.631736 0
M  V30 35 H 2.137249 4.123917 1.031449 0
M  V30 36 H 4.165054 3.054329 0.655761 0
M  V30 37 H 5.509917 1.010127 0.574172 0
M  V30 38 H 5.777616 -1.282348 1.382102 0
M  V30 39 H 4.357908 -2.242032 1.834525 0
M  V30 40 H 5.522389 -1.890726 -0.699998 0
M  V30 41 H 3.830591 -1.628760 -0.704512 0
M  V30 42 H 2.189449 -1.261075 1.734425 0
M  V30 43 H -3.220969 0.403094 0.617329 0
M  V30 44 H -4.880903 0.620109 -1.266327 0
M  V30 45 H -4.092030 0.154531 -2.786184 0
M  V30 46 H -5.338063 -0.945458 -1.993388 0
M  V30 47 H -3.795564 -2.640735 -3.182958 0
M  V30 48 H -2.482086 -4.723158 -3.396270 0
M  V30 49 H -0.863747 -5.291325 -1.685262 0
M  V30 50 H -0.524786 -3.850222 0.200576 0
M  V30 51 H 0.019043 -3.143253 4.458503 0
M  V30 END ATOM
M  V30 BEGIN BOND
M  V30 1 1 1 2
M  V30 2 2 2 3
M  V30 3 1 3 4
M  V30 4 2 4 5
M  V30 5 1 5 6
M  V30 6 2 6 7
M  V30 7 1 7 8
M  V30 8 1 8 9
M  V30 9 1 9 10
M  V30 10 2 8 11
M  V30 11 1 11 12
M  V30 12 2 12 13
M  V30 13 1 13 14
M  V30 14 2 14 15
M  V30 15 1 15 16
M  V30 16 2 16 17
M  V30 17 1 17 18
M  V30 18 1 18 19
M  V30 19 1 18 20
M  V30 20 2 20 21
M  V30 21 1 21 22
M  V30 22 2 22 23
M  V30 23 1 23 24
M  V30 24 2 24 25
M  V30 25 1 15 26
M  V30 26 2 26 27
M  V30 27 1 26 28
M  V30 28 1 28 29
M  V30 29 2 29 30
M  V30 30 1 13 2
M  V30 31 1 29 14
M  V30 32 1 12 5
M  V30 33 1 25 16
M  V30 34 1 25 20
M  V30 35 1 1 31
M  V30 36 1 1 32
M  V30 37 1 1 33
M  V30 38 1 3 34
M  V30 39 1 4 35
M  V30 40 1 6 36
M  V30 41 1 7 37
M  V30 42 1 9 38
M  V30 43 1 9 39
M  V30 44 1 10 40
M  V30 45 1 10 41
M  V30 46 1 11 42
M  V30 47 1 17 43
M  V30 48 1 19 44
M  V30 49 1 19 45
M  V30 50 1 19 46
M  V30 51 1 21 47
M  V30 52 1 22 48
M  V30 53 1 23 49
M  V30 54 1 24 50
M  V30 55 1 28 51
M  V30 END BOND
M  V30 END CTAB
M  END
>  <Dataset>  (653) 
ChEMBL_Kinases

>  <Ligand_Instance>  (653) 
nan

>  <PDB_ID>  (653) 
nan

>  <Standardized_SMILES>  (653) 
Cc1ccc2ccc(CN)cc2c1C1=C(c2cn(C)c3ccccc23)C(=O)NC1=O

>  <Name>  (653) 
nan

>  <Pocket>  (653) 
nan

>  <ATP_Site>  (653) 
nan

>  <Peripheral>  (653) 
nan

>  <Num_H_Atoms_ProtBoundConf>  (653) 
nan

>  <Num_Resolved_Atoms>  (653) 
nan

>  <Num_Not_Resolved_Atoms>  (653) 
nan

$$$$
CHEMBL4078755
     RDKit          3D

  0  0  0  0  0  0  0  0  0  0999 V3000
M  V30 BEGIN CTAB
M  V30 COUNTS 46 49 0 0 0
M  V30 BEGIN ATOM
M  V30 1 C 1.073823 -2.903943 2.735876 0
M  V30 2 C 2.407492 -3.356147 3.240100 0
M  V30 3 S 3.349682 -1.928307 3.731103 0
M  V30 4 O 4.733743 -2.318064 4.156048 0
M  V30 5 O 2.663480 -1.187540 4.836591 0
M  V30 6 C 3.502147 -0.930393 2.295302 0
M  V30 7 C 4.541564 -1.189237 1.428398 0
M  V30 8 C 4.634314 -0.406315 0.307830 0
M  V30 9 C 3.754902 0.609588 0.010838 0
M  V30 10 O 3.754752 1.454700 -1.079431 0
M  V30 11 C 4.674796 1.445770 -2.129509 0
M  V30 12 C 2.713768 0.852651 0.901033 0
M  V30 13 N 1.711985 1.869011 0.783091 0
M  V30 14 C 0.850687 1.686851 -0.372790 0
M  V30 15 N 0.622798 1.797761 -1.694966 0
M  V30 16 C -0.628062 1.314026 -1.951838 0
M  V30 17 C -1.146739 0.909742 -0.752757 0
M  V30 18 C -2.502703 0.308057 -0.537231 0
M  V30 19 C -3.063752 -0.006617 0.619210 0
M  V30 20 C -4.323165 -0.529518 0.638412 0
M  V30 21 C -5.115972 -0.928823 1.702674 0
M  V30 22 C -6.365164 -1.427629 1.490668 0
M  V30 23 C -6.966249 -1.590419 0.262745 0
M  V30 24 C -6.213247 -1.206453 -0.825157 0
M  V30 25 C -4.941649 -0.700232 -0.588902 0
M  V30 26 S -3.655286 -0.083938 -1.753863 0
M  V30 27 O -0.248808 1.146492 0.136982 0
M  V30 28 C 2.591021 0.083918 2.038024 0
M  V30 29 H 0.633337 -2.173609 3.410455 0
M  V30 30 H 0.373952 -3.746160 2.534678 0
M  V30 31 H 1.206353 -2.416424 1.729766 0
M  V30 32 H 2.288306 -4.043105 4.084617 0
M  V30 33 H 2.956307 -3.828974 2.387649 0
M  V30 34 H 5.257681 -1.973417 1.615744 0
M  V30 35 H 5.426704 -0.556113 -0.409553 0
M  V30 36 H 5.567404 0.886417 -1.825141 0
M  V30 37 H 4.305952 1.016092 -3.075969 0
M  V30 38 H 4.904605 2.521460 -2.348438 0
M  V30 39 H 1.571665 2.687577 1.439417 0
M  V30 40 H -1.058248 1.286763 -2.923680 0
M  V30 41 H -2.499874 0.162240 1.554534 0
M  V30 42 H -4.784899 -0.864960 2.749638 0
M  V30 43 H -6.983327 -1.740393 2.350375 0
M  V30 44 H -7.947692 -1.980725 0.058045 0
M  V30 45 H -6.550048 -1.275420 -1.851326 0
M  V30 46 H 1.809962 0.207291 2.778611 0
M  V30 END ATOM
M  V30 BEGIN BOND
M  V30 1 1 1 2
M  V30 2 1 2 3
M  V30 3 2 3 4
M  V30 4 2 3 5
M  V30 5 1 3 6
M  V30 6 2 6 7
M  V30 7 1 7 8
M  V30 8 2 8 9
M  V30 9 1 9 10
M  V30 10 1 10 11
M  V30 11 1 9 12
M  V30 12 1 12 13
M  V30 13 1 13 14
M  V30 14 2 14 15
M  V30 15 1 15 16
M  V30 16 2 16 17
M  V30 17 1 17 18
M  V30 18 2 18 19
M  V30 19 1 19 20
M  V30 20 2 20 21
M  V30 21 1 21 22
M  V30 22 2 22 23
M  V30 23 1 23 24
M  V30 24 2 24 25
M  V30 25 1 25 26
M  V30 26 1 17 27
M  V30 27 2 12 28
M  V30 28 1 28 6
M  V30 29 1 27 14
M  V30 30 1 26 18
M  V30 31 1 25 20
M  V30 32 1 1 29
M  V30 33 1 1 30
M  V30 34 1 1 31
M  V30 35 1 2 32
M  V30 36 1 2 33
M  V30 37 1 7 34
M  V30 38 1 8 35
M  V30 39 1 11 36
M  V30 40 1 11 37
M  V30 41 1 11 38
M  V30 42 1 13 39
M  V30 43 1 16 40
M  V30 44 1 19 41
M  V30 45 1 21 42
M  V30 46 1 22 43
M  V30 47 1 23 44
M  V30 48 1 24 45
M  V30 49 1 28 46
M  V30 END BOND
M  V30 END CTAB
M  END
>  <Dataset>  (654) 
ChEMBL_Kinases

>  <Ligand_Instance>  (654) 
nan

>  <PDB_ID>  (654) 
nan

>  <Standardized_SMILES>  (654) 
CCS(=O)(=O)c1ccc(OC)c(Nc2ncc(-c3cc4ccccc4s3)o2)c1

>  <Name>  (654) 
nan

>  <Pocket>  (654) 
nan

>  <ATP_Site>  (654) 
nan

>  <Peripheral>  (654) 
nan

>  <Num_H_Atoms_ProtBoundConf>  (654) 
nan

>  <Num_Resolved_Atoms>  (654) 
nan

>  <Num_Not_Resolved_Atoms>  (654) 
nan

$$$$
CHEMBL3660025
     RDKit          3D

  0  0  0  0  0  0  0  0  0  0999 V3000
M  V30 BEGIN CTAB
M  V30 COUNTS 47 50 0 0 0
M  V30 BEGIN ATOM
M  V30 1 C 0.549252 -3.775396 1.235430 0
M  V30 2 C 0.940262 -3.748970 -0.210934 0
M  V30 3 C -0.181424 -3.346052 -1.132068 0
M  V30 4 C 2.178815 -2.904357 -0.431780 0
M  V30 5 O 1.862541 -1.597282 0.008116 0
M  V30 6 C 2.837061 -0.626024 -0.088383 0
M  V30 7 C 4.117076 -0.852432 -0.593441 0
M  V30 8 C 5.046381 0.152181 -0.665708 0
M  V30 9 C 4.734600 1.438091 -0.232719 0
M  V30 10 C 3.472637 1.726129 0.281540 0
M  V30 11 C 3.108661 2.982279 0.725288 0
M  V30 12 C 1.829742 3.158939 1.217418 0
M  V30 13 C 0.954705 2.120921 1.262276 0
M  V30 14 C -0.408406 2.301589 1.784882 0
M  V30 15 N -0.959068 3.433520 2.262654 0
M  V30 16 N -2.207706 3.210736 2.643597 0
M  V30 17 C -2.464710 1.899737 2.403432 0
M  V30 18 C -3.634442 1.165533 2.627978 0
M  V30 19 C -3.659357 -0.175260 2.299080 0
M  V30 20 C -4.845991 -1.039057 2.496909 0
M  V30 21 N -5.717500 -1.059495 1.359437 0
M  V30 22 C -2.523727 -0.743125 1.758598 0
M  V30 23 C -1.408807 0.044182 1.566606 0
M  V30 24 N -1.347692 1.344871 1.872737 0
M  V30 25 N 1.370502 0.922611 0.814959 0
M  V30 26 C 2.597287 0.682427 0.325079 0
M  V30 27 H 1.009357 -4.638487 1.770200 0
M  V30 28 H 0.896831 -2.875120 1.804376 0
M  V30 29 H -0.567201 -3.825566 1.279982 0
M  V30 30 H 1.239848 -4.796385 -0.497106 0
M  V30 31 H -0.347727 -4.069959 -1.969619 0
M  V30 32 H -0.031145 -2.328099 -1.583703 0
M  V30 33 H -1.122255 -3.301923 -0.513130 0
M  V30 34 H 3.053765 -3.304091 0.108412 0
M  V30 35 H 2.416480 -2.810236 -1.508076 0
M  V30 36 H 4.325979 -1.873341 -0.923676 0
M  V30 37 H 6.043552 -0.063814 -1.069142 0
M  V30 38 H 5.455411 2.256045 -0.279027 0
M  V30 39 H 3.874525 3.723824 0.643981 0
M  V30 40 H 1.589321 4.144028 1.549658 0
M  V30 41 H -4.504103 1.621661 3.047227 0
M  V30 42 H -5.456914 -0.670678 3.364452 0
M  V30 43 H -4.582334 -2.087464 2.748906 0
M  V30 44 H -6.622463 -0.589727 1.467417 0
M  V30 45 H -5.247673 -0.950498 0.448032 0
M  V30 46 H -2.521305 -1.779991 1.496656 0
M  V30 47 H -0.552555 -0.440746 1.144792 0
M  V30 END ATOM
M  V30 BEGIN BOND
M  V30 1 1 1 2
M  V30 2 1 2 3
M  V30 3 1 2 4
M  V30 4 1 4 5
M  V30 5 1 5 6
M  V30 6 2 6 7
M  V30 7 1 7 8
M  V30 8 2 8 9
M  V30 9 1 9 10
M  V30 10 2 10 11
M  V30 11 1 11 12
M  V30 12 2 12 13
M  V30 13 1 13 14
M  V30 14 2 14 15
M  V30 15 1 15 16
M  V30 16 2 16 17
M  V30 17 1 17 18
M  V30 18 2 18 19
M  V30 19 1 19 20
M  V30 20 1 20 21
M  V30 21 1 19 22
M  V30 22 2 22 23
M  V30 23 1 23 24
M  V30 24 1 13 25
M  V30 25 2 25 26
M  V30 26 1 26 6
M  V30 27 1 26 10
M  V30 28 1 24 14
M  V30 29 1 24 17
M  V30 30 1 1 27
M  V30 31 1 1 28
M  V30 32 1 1 29
M  V30 33 1 2 30
M  V30 34 1 3 31
M  V30 35 1 3 32
M  V30 36 1 3 33
M  V30 37 1 4 34
M  V30 38 1 4 35
M  V30 39 1 7 36
M  V30 40 1 8 37
M  V30 41 1 9 38
M  V30 42 1 11 39
M  V30 43 1 12 40
M  V30 44 1 18 41
M  V30 45 1 20 42
M  V30 46 1 20 43
M  V30 47 1 21 44
M  V30 48 1 21 45
M  V30 49 1 22 46
M  V30 50 1 23 47
M  V30 END BOND
M  V30 END CTAB
M  END
>  <Dataset>  (655) 
ChEMBL_Kinases

>  <Ligand_Instance>  (655) 
nan

>  <PDB_ID>  (655) 
nan

>  <Standardized_SMILES>  (655) 
CC(C)COc1cccc2ccc(-c3nnc4cc(CN)ccn34)nc12

>  <Name>  (655) 
nan

>  <Pocket>  (655) 
nan

>  <ATP_Site>  (655) 
nan

>  <Peripheral>  (655) 
nan

>  <Num_H_Atoms_ProtBoundConf>  (655) 
nan

>  <Num_Resolved_Atoms>  (655) 
nan

>  <Num_Not_Resolved_Atoms>  (655) 
nan

$$$$
CHEMBL4078609
     RDKit          3D

  0  0  0  0  0  0  0  0  0  0999 V3000
M  V30 BEGIN CTAB
M  V30 COUNTS 37 39 0 0 0
M  V30 BEGIN ATOM
M  V30 1 N -0.119159 -4.685009 2.445519 0
M  V30 2 C 1.271123 -4.538428 2.252816 0
M  V30 3 O 1.988618 -5.512579 2.602569 0
M  V30 4 C 1.854466 -3.316072 1.675233 0
M  V30 5 C 3.211167 -3.244401 1.517691 0
M  V30 6 C 3.681017 -2.060518 0.967172 0
M  V30 7 Cl 5.423556 -1.864380 0.720277 0
M  V30 8 C 2.851732 -1.020248 0.599600 0
M  V30 9 C 3.006221 0.224755 0.052485 0
M  V30 10 Cl 4.597354 0.868522 -0.371796 0
M  V30 11 C 1.732220 0.797907 -0.073548 0
M  V30 12 C 1.647991 2.132877 -0.638623 0
M  V30 13 F 2.142168 2.231136 -1.929428 0
M  V30 14 F 2.581632 2.958814 0.032913 0
M  V30 15 F 0.496640 2.835192 -0.422939 0
M  V30 16 N 0.792702 -0.052183 0.377907 0
M  V30 17 C -0.624864 0.168427 0.413270 0
M  V30 18 C -1.312159 0.211598 -0.930404 0
M  V30 19 C -2.775283 -0.091198 -0.665724 0
M  V30 20 C -3.272073 0.823649 0.407890 0
M  V30 21 N -2.311129 1.814962 0.844920 0
M  V30 22 C -1.154495 1.130283 1.414690 0
M  V30 23 C 1.516016 -1.147480 0.778955 0
M  V30 24 N 1.049373 -2.310241 1.320134 0
M  V30 25 H -0.616304 -4.394774 1.595796 0
M  V30 26 H -0.498206 -5.040424 3.343787 0
M  V30 27 H 3.882003 -4.045569 1.797775 0
M  V30 28 H -1.041849 -0.831517 0.777641 0
M  V30 29 H -0.857066 -0.607778 -1.544202 0
M  V30 30 H -1.309612 1.153876 -1.457765 0
M  V30 31 H -3.308346 0.053274 -1.630609 0
M  V30 32 H -2.904249 -1.140626 -0.331427 0
M  V30 33 H -4.144558 1.394381 -0.023100 0
M  V30 34 H -3.710971 0.278263 1.273502 0
M  V30 35 H -2.116440 2.409360 0.042945 0
M  V30 36 H -1.621606 0.646919 2.330508 0
M  V30 37 H -0.429983 1.812805 1.876545 0
M  V30 END ATOM
M  V30 BEGIN BOND
M  V30 1 1 1 2
M  V30 2 2 2 3
M  V30 3 1 2 4
M  V30 4 2 4 5
M  V30 5 1 5 6
M  V30 6 1 6 7
M  V30 7 2 6 8
M  V30 8 1 8 9
M  V30 9 1 9 10
M  V30 10 2 9 11
M  V30 11 1 11 12
M  V30 12 1 12 13
M  V30 13 1 12 14
M  V30 14 1 12 15
M  V30 15 1 11 16
M  V30 16 1 16 17
M  V30 17 1 17 18
M  V30 18 1 18 19
M  V30 19 1 19 20
M  V30 20 1 20 21
M  V30 21 1 21 22
M  V30 22 1 16 23
M  V30 23 2 23 24
M  V30 24 1 24 4
M  V30 25 1 23 8
M  V30 26 1 22 17
M  V30 27 1 1 25
M  V30 28 1 1 26
M  V30 29 1 5 27
M  V30 30 1 17 28
M  V30 31 1 18 29
M  V30 32 1 18 30
M  V30 33 1 19 31
M  V30 34 1 19 32
M  V30 35 1 20 33
M  V30 36 1 20 34
M  V30 37 1 21 35
M  V30 38 1 22 36
M  V30 39 1 22 37
M  V30 END BOND
M  V30 END CTAB
M  END
>  <Dataset>  (656) 
ChEMBL_Kinases

>  <Ligand_Instance>  (656) 
nan

>  <PDB_ID>  (656) 
nan

>  <Standardized_SMILES>  (656) 
NC(=O)c1cc(Cl)c2c(Cl)c(C(F)(F)F)n(C3CCCNC3)c2n1

>  <Name>  (656) 
nan

>  <Pocket>  (656) 
nan

>  <ATP_Site>  (656) 
nan

>  <Peripheral>  (656) 
nan

>  <Num_H_Atoms_ProtBoundConf>  (656) 
nan

>  <Num_Resolved_Atoms>  (656) 
nan

>  <Num_Not_Resolved_Atoms>  (656) 
nan

$$$$
CHEMBL4082714
     RDKit          3D

  0  0  0  0  0  0  0  0  0  0999 V3000
M  V30 BEGIN CTAB
M  V30 COUNTS 36 38 0 0 0
M  V30 BEGIN ATOM
M  V30 1 C -0.409268 -3.327003 4.871623 0
M  V30 2 O -0.365335 -4.098861 3.700217 0
M  V30 3 C 0.183120 -3.627981 2.517036 0
M  V30 4 C 0.168287 -4.469766 1.446618 0
M  V30 5 C 0.689308 -4.078779 0.247242 0
M  V30 6 C 1.251251 -2.833906 0.048266 0
M  V30 7 N 1.796353 -2.448435 -1.199047 0
M  V30 8 C 2.393254 -1.220179 -1.624166 0
M  V30 9 C 1.383148 -0.128462 -1.620658 0
M  V30 10 N 0.929787 0.813715 -0.780630 0
M  V30 11 C -0.041044 1.561565 -1.322019 0
M  V30 12 C -0.671157 2.645978 -0.569372 0
M  V30 13 C 0.024336 3.845317 -0.410776 0
M  V30 14 C -0.535417 4.904628 0.297458 0
M  V30 15 N -1.774415 4.769617 0.841304 0
M  V30 16 C -2.418866 3.600113 0.670325 0
M  V30 17 C -1.931336 2.493271 -0.022581 0
M  V30 18 N -0.207462 1.067190 -2.562273 0
M  V30 19 N 0.635312 0.060785 -2.750647 0
M  V30 20 C 1.239320 -2.025262 1.163909 0
M  V30 21 C 0.727445 -2.367032 2.398068 0
M  V30 22 H -0.441150 -3.965758 5.789218 0
M  V30 23 H -1.302942 -2.674047 4.947605 0
M  V30 24 H 0.556007 -2.774953 4.962949 0
M  V30 25 H -0.254843 -5.461478 1.524154 0
M  V30 26 H 0.665051 -4.776972 -0.601126 0
M  V30 27 H 1.761897 -3.191680 -1.960633 0
M  V30 28 H 2.866852 -1.265777 -2.600096 0
M  V30 29 H 3.197939 -0.886224 -0.890585 0
M  V30 30 H 1.020985 3.992337 -0.832388 0
M  V30 31 H -0.044899 5.855799 0.452785 0
M  V30 32 H -3.418914 3.450414 1.092474 0
M  V30 33 H -2.482901 1.592129 -0.127715 0
M  V30 34 H 0.624333 -0.425859 -3.669290 0
M  V30 35 H 1.656962 -1.038152 1.123897 0
M  V30 36 H 0.742668 -1.693163 3.243839 0
M  V30 END ATOM
M  V30 BEGIN BOND
M  V30 1 1 1 2
M  V30 2 1 2 3
M  V30 3 2 3 4
M  V30 4 1 4 5
M  V30 5 2 5 6
M  V30 6 1 6 7
M  V30 7 1 7 8
M  V30 8 1 8 9
M  V30 9 2 9 10
M  V30 10 1 10 11
M  V30 11 1 11 12
M  V30 12 2 12 13
M  V30 13 1 13 14
M  V30 14 2 14 15
M  V30 15 1 15 16
M  V30 16 2 16 17
M  V30 17 2 11 18
M  V30 18 1 18 19
M  V30 19 1 6 20
M  V30 20 2 20 21
M  V30 21 1 21 3
M  V30 22 1 19 9
M  V30 23 1 17 12
M  V30 24 1 1 22
M  V30 25 1 1 23
M  V30 26 1 1 24
M  V30 27 1 4 25
M  V30 28 1 5 26
M  V30 29 1 7 27
M  V30 30 1 8 28
M  V30 31 1 8 29
M  V30 32 1 13 30
M  V30 33 1 14 31
M  V30 34 1 16 32
M  V30 35 1 17 33
M  V30 36 1 19 34
M  V30 37 1 20 35
M  V30 38 1 21 36
M  V30 END BOND
M  V30 END CTAB
M  END
>  <Dataset>  (657) 
ChEMBL_Kinases

>  <Ligand_Instance>  (657) 
nan

>  <PDB_ID>  (657) 
nan

>  <Standardized_SMILES>  (657) 
COc1ccc(NCc2nc(-c3ccncc3)n[nH]2)cc1

>  <Name>  (657) 
nan

>  <Pocket>  (657) 
nan

>  <ATP_Site>  (657) 
nan

>  <Peripheral>  (657) 
nan

>  <Num_H_Atoms_ProtBoundConf>  (657) 
nan

>  <Num_Resolved_Atoms>  (657) 
nan

>  <Num_Not_Resolved_Atoms>  (657) 
nan

$$$$
CHEMBL4078182
     RDKit          3D

  0  0  0  0  0  0  0  0  0  0999 V3000
M  V30 BEGIN CTAB
M  V30 COUNTS 44 47 0 0 0
M  V30 BEGIN ATOM
M  V30 1 S 3.969080 -0.537128 2.005207 0
M  V30 2 C 3.371151 -0.449798 0.494180 0
M  V30 3 N 3.940624 -1.065749 -0.631047 0
M  V30 4 C 3.040566 -0.686074 -1.685671 0
M  V30 5 C 2.036382 -1.669611 -1.743666 0
M  V30 6 C 1.009859 -1.563107 -2.687679 0
M  V30 7 C 1.027836 -0.480054 -3.532174 0
M  V30 8 C 2.023844 0.490824 -3.471358 0
M  V30 9 Cl 2.109773 1.886248 -4.521022 0
M  V30 10 C 3.027980 0.378354 -2.540966 0
M  V30 11 N 2.182424 0.321732 0.365501 0
M  V30 12 C 1.442988 1.020546 1.370531 0
M  V30 13 C 1.901382 2.045814 2.179499 0
M  V30 14 C 1.083097 2.647373 3.110237 0
M  V30 15 C -0.224544 2.237528 3.256766 0
M  V30 16 N -1.062945 2.812529 4.162139 0
M  V30 17 C -2.345175 2.356799 4.253284 0
M  V30 18 N -2.857707 1.362432 3.502354 0
M  V30 19 C -2.074566 0.757818 2.588401 0
M  V30 20 N -2.430179 -0.326597 1.708205 0
M  V30 21 C -1.957654 -1.677250 1.710496 0
M  V30 22 C -1.130386 -2.179577 2.699960 0
M  V30 23 C -0.647278 -3.475919 2.676284 0
M  V30 24 C -1.037938 -4.248373 1.606920 0
M  V30 25 C -1.861559 -3.764233 0.617260 0
M  V30 26 Br -2.358169 -4.904614 -0.853232 0
M  V30 27 C -2.341279 -2.457462 0.650810 0
M  V30 28 C -0.774012 1.226723 2.500799 0
M  V30 29 C 0.100800 0.673996 1.594258 0
M  V30 30 H 4.813289 -1.621054 -0.516425 0
M  V30 31 H 1.911481 -2.575525 -1.131270 0
M  V30 32 H 0.200468 -2.274668 -2.799024 0
M  V30 33 H 0.247319 -0.354693 -4.282643 0
M  V30 34 H 3.873483 1.030647 -2.352361 0
M  V30 35 H 1.638617 0.509674 -0.535310 0
M  V30 36 H 2.952039 2.321975 2.017613 0
M  V30 37 H 1.486393 3.446260 3.718044 0
M  V30 38 H -2.975021 2.844371 4.987194 0
M  V30 39 H -3.126905 0.009723 1.025266 0
M  V30 40 H -0.896395 -1.479822 3.483440 0
M  V30 41 H -0.004906 -3.749551 3.504774 0
M  V30 42 H -0.642568 -5.273689 1.595823 0
M  V30 43 H -2.994468 -2.109807 -0.156165 0
M  V30 44 H -0.249336 -0.127829 0.932355 0
M  V30 END ATOM
M  V30 BEGIN BOND
M  V30 1 2 1 2
M  V30 2 1 2 3
M  V30 3 1 3 4
M  V30 4 2 4 5
M  V30 5 1 5 6
M  V30 6 2 6 7
M  V30 7 1 7 8
M  V30 8 1 8 9
M  V30 9 2 8 10
M  V30 10 1 2 11
M  V30 11 1 11 12
M  V30 12 2 12 13
M  V30 13 1 13 14
M  V30 14 2 14 15
M  V30 15 1 15 16
M  V30 16 2 16 17
M  V30 17 1 17 18
M  V30 18 2 18 19
M  V30 19 1 19 20
M  V30 20 1 20 21
M  V30 21 2 21 22
M  V30 22 1 22 23
M  V30 23 2 23 24
M  V30 24 1 24 25
M  V30 25 1 25 26
M  V30 26 2 25 27
M  V30 27 1 19 28
M  V30 28 2 28 29
M  V30 29 1 10 4
M  V30 30 1 29 12
M  V30 31 1 28 15
M  V30 32 1 27 21
M  V30 33 1 3 30
M  V30 34 1 5 31
M  V30 35 1 6 32
M  V30 36 1 7 33
M  V30 37 1 10 34
M  V30 38 1 11 35
M  V30 39 1 13 36
M  V30 40 1 14 37
M  V30 41 1 17 38
M  V30 42 1 20 39
M  V30 43 1 22 40
M  V30 44 1 23 41
M  V30 45 1 24 42
M  V30 46 1 27 43
M  V30 47 1 29 44
M  V30 END BOND
M  V30 END CTAB
M  END
>  <Dataset>  (658) 
ChEMBL_Kinases

>  <Ligand_Instance>  (658) 
nan

>  <PDB_ID>  (658) 
nan

>  <Standardized_SMILES>  (658) 
S=C(Nc1cccc(Cl)c1)Nc1ccc2ncnc(Nc3cccc(Br)c3)c2c1

>  <Name>  (658) 
nan

>  <Pocket>  (658) 
nan

>  <ATP_Site>  (658) 
nan

>  <Peripheral>  (658) 
nan

>  <Num_H_Atoms_ProtBoundConf>  (658) 
nan

>  <Num_Resolved_Atoms>  (658) 
nan

>  <Num_Not_Resolved_Atoms>  (658) 
nan

$$$$
CHEMBL3660023
     RDKit          3D

  0  0  0  0  0  0  0  0  0  0999 V3000
M  V30 BEGIN CTAB
M  V30 COUNTS 47 50 0 0 0
M  V30 BEGIN ATOM
M  V30 1 C 1.644851 -3.786133 2.970524 0
M  V30 2 C 1.748951 -2.807821 1.799672 0
M  V30 3 C 0.818427 -3.374201 0.718952 0
M  V30 4 C 3.112417 -2.795250 1.220976 0
M  V30 5 N 4.143809 -2.413858 2.162671 0
M  V30 6 C 1.165093 -1.527739 2.266679 0
M  V30 7 O 1.123095 -0.512746 1.408255 0
M  V30 8 C 1.778991 0.340261 0.653669 0
M  V30 9 C 3.093538 0.620548 0.367395 0
M  V30 10 C 3.598848 1.581346 -0.472062 0
M  V30 11 C 2.636374 2.345403 -1.090765 0
M  V30 12 C 1.283486 2.176123 -0.897583 0
M  V30 13 C 0.463161 3.030547 -1.598403 0
M  V30 14 C -0.893424 2.876370 -1.417980 0
M  V30 15 C -1.338444 1.896794 -0.564821 0
M  V30 16 C -2.762956 1.691020 -0.337861 0
M  V30 17 N -3.745984 2.405159 -0.912975 0
M  V30 18 N -4.927387 1.977274 -0.504941 0
M  V30 19 C -4.701471 0.975569 0.343077 0
M  V30 20 C -5.573350 0.170915 1.062018 0
M  V30 21 C -5.119400 -0.824691 1.896648 0
M  V30 22 C -3.753931 -0.972015 1.973627 0
M  V30 23 C -2.911943 -0.166897 1.255360 0
M  V30 24 N -3.360582 0.793625 0.450524 0
M  V30 25 N -0.481799 1.118149 0.069930 0
M  V30 26 C 0.863483 1.167095 -0.020148 0
M  V30 27 H 1.902307 -4.817482 2.666726 0
M  V30 28 H 2.314455 -3.375018 3.757636 0
M  V30 29 H 0.610525 -3.690910 3.353605 0
M  V30 30 H -0.221821 -3.180884 0.980541 0
M  V30 31 H 1.124217 -2.938649 -0.272494 0
M  V30 32 H 1.015669 -4.471188 0.711297 0
M  V30 33 H 3.347145 -3.874804 0.964792 0
M  V30 34 H 3.114600 -2.229016 0.279318 0
M  V30 35 H 3.787717 -2.119714 3.076975 0
M  V30 36 H 4.962954 -3.028380 2.141856 0
M  V30 37 H 0.134284 -1.819276 2.686864 0
M  V30 38 H 1.713730 -1.294085 3.246332 0
M  V30 39 H 3.780497 -0.016285 0.897745 0
M  V30 40 H 4.669668 1.667563 -0.584116 0
M  V30 41 H 3.008415 3.112994 -1.760325 0
M  V30 42 H 0.854446 3.778227 -2.251453 0
M  V30 43 H -1.627877 3.491511 -1.917364 0
M  V30 44 H -6.645561 0.358480 0.940152 0
M  V30 45 H -5.886570 -1.387218 2.404918 0
M  V30 46 H -3.407257 -1.771230 2.644247 0
M  V30 47 H -1.865309 -0.323754 1.351906 0
M  V30 END ATOM
M  V30 BEGIN BOND
M  V30 1 1 1 2
M  V30 2 1 2 3
M  V30 3 1 2 4
M  V30 4 1 4 5
M  V30 5 1 2 6
M  V30 6 1 6 7
M  V30 7 1 7 8
M  V30 8 2 8 9
M  V30 9 1 9 10
M  V30 10 2 10 11
M  V30 11 1 11 12
M  V30 12 2 12 13
M  V30 13 1 13 14
M  V30 14 2 14 15
M  V30 15 1 15 16
M  V30 16 2 16 17
M  V30 17 1 17 18
M  V30 18 2 18 19
M  V30 19 1 19 20
M  V30 20 2 20 21
M  V30 21 1 21 22
M  V30 22 2 22 23
M  V30 23 1 23 24
M  V30 24 1 15 25
M  V30 25 2 25 26
M  V30 26 1 26 8
M  V30 27 1 26 12
M  V30 28 1 24 16
M  V30 29 1 24 19
M  V30 30 1 1 27
M  V30 31 1 1 28
M  V30 32 1 1 29
M  V30 33 1 3 30
M  V30 34 1 3 31
M  V30 35 1 3 32
M  V30 36 1 4 33
M  V30 37 1 4 34
M  V30 38 1 5 35
M  V30 39 1 5 36
M  V30 40 1 6 37
M  V30 41 1 6 38
M  V30 42 1 9 39
M  V30 43 1 10 40
M  V30 44 1 11 41
M  V30 45 1 13 42
M  V30 46 1 14 43
M  V30 47 1 20 44
M  V30 48 1 21 45
M  V30 49 1 22 46
M  V30 50 1 23 47
M  V30 END BOND
M  V30 END CTAB
M  END
>  <Dataset>  (659) 
ChEMBL_Kinases

>  <Ligand_Instance>  (659) 
nan

>  <PDB_ID>  (659) 
nan

>  <Standardized_SMILES>  (659) 
CC(C)(CN)COc1cccc2ccc(-c3nnc4ccccn34)nc12

>  <Name>  (659) 
nan

>  <Pocket>  (659) 
nan

>  <ATP_Site>  (659) 
nan

>  <Peripheral>  (659) 
nan

>  <Num_H_Atoms_ProtBoundConf>  (659) 
nan

>  <Num_Resolved_Atoms>  (659) 
nan

>  <Num_Not_Resolved_Atoms>  (659) 
nan

$$$$
CHEMBL3660022
     RDKit          3D

  0  0  0  0  0  0  0  0  0  0999 V3000
M  V30 BEGIN CTAB
M  V30 COUNTS 48 52 0 0 0
M  V30 BEGIN ATOM
M  V30 1 N -3.226912 -3.318956 2.588044 0
M  V30 2 C -1.952691 -2.788113 2.142532 0
M  V30 3 C -1.926772 -2.786726 0.644580 0
M  V30 4 C -0.518326 -2.952091 0.127014 0
M  V30 5 C 0.501217 -2.282708 1.058657 0
M  V30 6 O 1.732801 -2.360165 0.474632 0
M  V30 7 C 2.599493 -1.461798 -0.049921 0
M  V30 8 C 3.785983 -2.100657 -0.420746 0
M  V30 9 C 4.857747 -1.407978 -0.988460 0
M  V30 10 C 4.734199 -0.060619 -1.184820 0
M  V30 11 C 3.552537 0.538244 -0.809976 0
M  V30 12 C 3.403572 1.883298 -1.007923 0
M  V30 13 C 2.212524 2.455748 -0.637644 0
M  V30 14 C 1.115754 1.792887 -0.068898 0
M  V30 15 C -0.040693 2.633535 0.186171 0
M  V30 16 N -0.088425 3.965876 0.030100 0
M  V30 17 N -1.278237 4.424820 0.324135 0
M  V30 18 C -2.077845 3.412673 0.689798 0
M  V30 19 C -3.394530 3.348449 1.079891 0
M  V30 20 C -3.971406 2.155606 1.392490 0
M  V30 21 C -3.161471 1.038188 1.292917 0
M  V30 22 C -1.855918 1.187373 0.896028 0
M  V30 23 N -1.266558 2.350055 0.584626 0
M  V30 24 N 1.307676 0.463547 0.110636 0
M  V30 25 C 2.480012 -0.112770 -0.250282 0
M  V30 26 C 0.500705 -3.185976 2.302463 0
M  V30 27 C -0.862940 -3.742742 2.598792 0
M  V30 28 H -3.141075 -3.500319 3.614720 0
M  V30 29 H -3.930045 -2.547282 2.500498 0
M  V30 30 H -1.823620 -1.790352 2.570258 0
M  V30 31 H -2.496048 -3.667868 0.279435 0
M  V30 32 H -2.421690 -1.874072 0.265792 0
M  V30 33 H -0.226458 -4.021524 0.086333 0
M  V30 34 H -0.482664 -2.576560 -0.893554 0
M  V30 35 H 0.206587 -1.266621 1.305914 0
M  V30 36 H 3.998288 -3.146405 -0.316530 0
M  V30 37 H 5.786461 -1.874845 -1.284642 0
M  V30 38 H 5.523936 0.542954 -1.619409 0
M  V30 39 H 4.217376 2.438331 -1.442775 0
M  V30 40 H 2.202880 3.542223 -0.841825 0
M  V30 41 H -3.934245 4.266904 1.124899 0
M  V30 42 H -5.000309 2.156202 1.691400 0
M  V30 43 H -3.604760 0.078173 1.537951 0
M  V30 44 H -1.307770 0.282632 0.833139 0
M  V30 45 H 1.151566 -4.044683 2.046920 0
M  V30 46 H 0.938205 -2.653439 3.167154 0
M  V30 47 H -1.061531 -4.704580 2.070234 0
M  V30 48 H -1.012556 -3.895078 3.693978 0
M  V30 END ATOM
M  V30 BEGIN BOND
M  V30 1 1 1 2
M  V30 2 1 2 3
M  V30 3 1 3 4
M  V30 4 1 4 5
M  V30 5 1 5 6
M  V30 6 1 6 7
M  V30 7 2 7 8
M  V30 8 1 8 9
M  V30 9 2 9 10
M  V30 10 1 10 11
M  V30 11 2 11 12
M  V30 12 1 12 13
M  V30 13 2 13 14
M  V30 14 1 14 15
M  V30 15 2 15 16
M  V30 16 1 16 17
M  V30 17 2 17 18
M  V30 18 1 18 19
M  V30 19 2 19 20
M  V30 20 1 20 21
M  V30 21 2 21 22
M  V30 22 1 22 23
M  V30 23 1 14 24
M  V30 24 2 24 25
M  V30 25 1 5 26
M  V30 26 1 26 27
M  V30 27 1 27 2
M  V30 28 1 25 7
M  V30 29 1 25 11
M  V30 30 1 23 15
M  V30 31 1 23 18
M  V30 32 1 1 28
M  V30 33 1 1 29
M  V30 34 1 2 30
M  V30 35 1 3 31
M  V30 36 1 3 32
M  V30 37 1 4 33
M  V30 38 1 4 34
M  V30 39 1 5 35
M  V30 40 1 8 36
M  V30 41 1 9 37
M  V30 42 1 10 38
M  V30 43 1 12 39
M  V30 44 1 13 40
M  V30 45 1 19 41
M  V30 46 1 20 42
M  V30 47 1 21 43
M  V30 48 1 22 44
M  V30 49 1 26 45
M  V30 50 1 26 46
M  V30 51 1 27 47
M  V30 52 1 27 48
M  V30 END BOND
M  V30 END CTAB
M  END
>  <Dataset>  (660) 
ChEMBL_Kinases

>  <Ligand_Instance>  (660) 
nan

>  <PDB_ID>  (660) 
nan

>  <Standardized_SMILES>  (660) 
NC1CCC(Oc2cccc3ccc(-c4nnc5ccccn45)nc23)CC1

>  <Name>  (660) 
nan

>  <Pocket>  (660) 
nan

>  <ATP_Site>  (660) 
nan

>  <Peripheral>  (660) 
nan

>  <Num_H_Atoms_ProtBoundConf>  (660) 
nan

>  <Num_Resolved_Atoms>  (660) 
nan

>  <Num_Not_Resolved_Atoms>  (660) 
nan

$$$$
CHEMBL3609371
     RDKit          3D

  0  0  0  0  0  0  0  0  0  0999 V3000
M  V30 BEGIN CTAB
M  V30 COUNTS 61 64 0 0 0
M  V30 BEGIN ATOM
M  V30 1 C 4.611818 -1.194716 5.052288 0
M  V30 2 C 4.717995 -1.774416 3.627630 0
M  V30 3 N 3.758660 -1.182852 2.757362 0
M  V30 4 C 3.703742 0.266730 2.742065 0
M  V30 5 C 4.946015 0.800258 3.056581 0
M  V30 6 C 5.060438 2.174822 3.081261 0
M  V30 7 C 3.950912 2.963457 2.796442 0
M  V30 8 F 4.061616 4.313958 2.820017 0
M  V30 9 C 2.710251 2.403236 2.482856 0
M  V30 10 C 2.565815 1.031263 2.450708 0
M  V30 11 N 1.240884 0.620490 2.130411 0
M  V30 12 C 0.821388 -0.555244 1.727042 0
M  V30 13 N -0.586878 -0.689291 1.475573 0
M  V30 14 C -1.266793 0.506189 0.939088 0 CFG=1
M  V30 15 C -0.709775 0.955088 -0.370833 0
M  V30 16 C -1.953522 1.245644 -1.210038 0
M  V30 17 N -2.871493 0.231719 -0.729790 0
M  V30 18 C -3.784066 -0.664152 -1.384676 0
M  V30 19 O -4.522613 -1.501703 -0.778047 0
M  V30 20 N -3.946213 -0.694912 -2.798230 0
M  V30 21 C -4.911542 -1.665130 -3.263067 0
M  V30 22 C -4.535671 -3.089532 -2.864706 0
M  V30 23 C -6.317249 -1.381283 -2.808864 0
M  V30 24 C -4.899063 -1.636942 -4.778234 0
M  V30 25 C -2.729709 0.238007 0.714485 0
M  V30 26 C 1.658318 -1.728751 1.514003 0
M  V30 27 C 0.989262 -2.640783 0.736843 0
M  V30 28 C 1.665421 -3.830905 0.438472 0
M  V30 29 Cl 0.870538 -5.059827 -0.558076 0
M  V30 30 C 2.953093 -4.119728 0.884129 0
M  V30 31 C 3.615867 -3.200409 1.660984 0
M  V30 32 C 2.922006 -2.034752 1.939750 0
M  V30 33 H 3.963935 -0.269828 5.037725 0
M  V30 34 H 4.124982 -1.840680 5.780267 0
M  V30 35 H 5.625730 -1.000680 5.458326 0
M  V30 36 H 5.728318 -1.924630 3.286746 0
M  V30 37 H 4.351586 -2.828785 3.850544 0
M  V30 38 H 5.752016 0.083490 3.267799 0
M  V30 39 H 6.029055 2.588331 3.326354 0
M  V30 40 H 1.846560 3.036863 2.261134 0
M  V30 41 H -0.929273 -1.665038 1.733171 0
M  V30 42 H -1.195605 1.363075 1.629728 0
M  V30 43 H -0.162338 1.930104 -0.304230 0
M  V30 44 H -0.064272 0.219512 -0.875354 0
M  V30 45 H -1.752358 1.189944 -2.287334 0
M  V30 46 H -2.371612 2.246182 -0.957039 0
M  V30 47 H -3.385666 -0.045369 -3.398603 0
M  V30 48 H -4.773376 -3.797578 -3.695577 0
M  V30 49 H -5.100459 -3.445830 -1.989366 0
M  V30 50 H -3.438236 -3.107717 -2.710460 0
M  V30 51 H -6.585411 -1.859632 -1.846322 0
M  V30 52 H -7.000316 -1.837682 -3.564522 0
M  V30 53 H -6.510574 -0.287256 -2.834668 0
M  V30 54 H -5.213483 -2.621994 -5.187551 0
M  V30 55 H -5.549102 -0.814648 -5.174693 0
M  V30 56 H -3.866765 -1.481196 -5.119981 0
M  V30 57 H -3.017818 -0.730434 1.160399 0
M  V30 58 H -3.376875 1.055069 1.115778 0
M  V30 59 H -0.000676 -2.536168 0.318586 0
M  V30 60 H 3.433912 -5.051460 0.628199 0
M  V30 61 H 4.620854 -3.332113 2.042944 0
M  V30 END ATOM
M  V30 BEGIN BOND
M  V30 1 1 1 2
M  V30 2 1 2 3
M  V30 3 1 3 4
M  V30 4 2 4 5
M  V30 5 1 5 6
M  V30 6 2 6 7
M  V30 7 1 7 8
M  V30 8 1 7 9
M  V30 9 2 9 10
M  V30 10 1 10 11
M  V30 11 2 11 12
M  V30 12 1 12 13
M  V30 13 1 13 14
M  V30 14 1 14 15
M  V30 15 1 15 16
M  V30 16 1 16 17
M  V30 17 1 17 18
M  V30 18 2 18 19
M  V30 19 1 18 20
M  V30 20 1 20 21
M  V30 21 1 21 22
M  V30 22 1 21 23
M  V30 23 1 21 24
M  V30 24 1 17 25
M  V30 25 1 12 26
M  V30 26 2 26 27
M  V30 27 1 27 28
M  V30 28 1 28 29
M  V30 29 2 28 30
M  V30 30 1 30 31
M  V30 31 2 31 32
M  V30 32 1 32 3
M  V30 33 1 10 4
M  V30 34 1 25 14
M  V30 35 1 32 26
M  V30 36 1 1 33
M  V30 37 1 1 34
M  V30 38 1 1 35
M  V30 39 1 2 36
M  V30 40 1 2 37
M  V30 41 1 5 38
M  V30 42 1 6 39
M  V30 43 1 9 40
M  V30 44 1 13 41
M  V30 45 1 14 42 CFG=1
M  V30 46 1 15 43
M  V30 47 1 15 44
M  V30 48 1 16 45
M  V30 49 1 16 46
M  V30 50 1 20 47
M  V30 51 1 22 48
M  V30 52 1 22 49
M  V30 53 1 22 50
M  V30 54 1 23 51
M  V30 55 1 23 52
M  V30 56 1 23 53
M  V30 57 1 24 54
M  V30 58 1 24 55
M  V30 59 1 24 56
M  V30 60 1 25 57
M  V30 61 1 25 58
M  V30 62 1 27 59
M  V30 63 1 30 60
M  V30 64 1 31 61
M  V30 END BOND
M  V30 END CTAB
M  END
>  <Dataset>  (661) 
ChEMBL_Kinases

>  <Ligand_Instance>  (661) 
nan

>  <PDB_ID>  (661) 
nan

>  <Standardized_SMILES>  (661) 
CCN1c2ccc(F)cc2N=C(N[C@H]2CCN(C(=O)NC(C)(C)C)C2)c2cc(Cl)ccc21

>  <Name>  (661) 
nan

>  <Pocket>  (661) 
nan

>  <ATP_Site>  (661) 
nan

>  <Peripheral>  (661) 
nan

>  <Num_H_Atoms_ProtBoundConf>  (661) 
nan

>  <Num_Resolved_Atoms>  (661) 
nan

>  <Num_Not_Resolved_Atoms>  (661) 
nan

$$$$
CHEMBL3609372
     RDKit          3D

  0  0  0  0  0  0  0  0  0  0999 V3000
M  V30 BEGIN CTAB
M  V30 COUNTS 58 61 0 0 0
M  V30 BEGIN ATOM
M  V30 1 C 3.677851 -2.110025 3.486833 0
M  V30 2 C 4.344649 -1.038548 2.673545 0
M  V30 3 C 5.756232 -1.470678 2.373621 0
M  V30 4 N 3.662568 -0.781434 1.407820 0
M  V30 5 C 3.232186 0.557767 1.200217 0
M  V30 6 O 3.425503 1.463073 2.051061 0
M  V30 7 N 2.565090 0.842522 -0.022756 0
M  V30 8 C 2.112208 2.186930 -0.273931 0
M  V30 9 C 1.133589 2.112836 -1.418425 0
M  V30 10 C 1.316618 0.771228 -1.989168 0 CFG=2
M  V30 11 N 0.115354 0.007401 -2.257571 0
M  V30 12 C -0.726835 -0.344764 -1.168351 0
M  V30 13 N -0.770799 0.453807 -0.155073 0
M  V30 14 C -1.526402 0.334202 1.048763 0
M  V30 15 C -1.075834 1.105602 2.098764 0
M  V30 16 C -1.739306 1.081743 3.325721 0
M  V30 17 F -1.275368 1.853177 4.348576 0
M  V30 18 C -2.861653 0.299225 3.550960 0
M  V30 19 C -3.342291 -0.482407 2.534852 0
M  V30 20 C -2.662822 -0.437365 1.329668 0
M  V30 21 N -3.312274 -1.324283 0.370439 0
M  V30 22 C -4.718088 -1.501516 0.471147 0
M  V30 23 C -5.482902 -1.453485 -0.843868 0
M  V30 24 F -6.853967 -1.653197 -0.605346 0
M  V30 25 F -5.485902 -0.127329 -1.350996 0
M  V30 26 C -2.590998 -2.056430 -0.653526 0
M  V30 27 C -3.226371 -3.290366 -0.849778 0
M  V30 28 C -2.634235 -4.092610 -1.798558 0
M  V30 29 C -1.499337 -3.661528 -2.474283 0
M  V30 30 Cl -0.822156 -4.771408 -3.670952 0
M  V30 31 C -0.896949 -2.420710 -2.245624 0
M  V30 32 C -1.467491 -1.593411 -1.301341 0
M  V30 33 C 2.248211 -0.022456 -1.110836 0
M  V30 34 H 2.882660 -2.649233 2.954612 0
M  V30 35 H 4.430893 -2.841581 3.863335 0
M  V30 36 H 3.219651 -1.638977 4.403133 0
M  V30 37 H 4.411873 -0.093677 3.278006 0
M  V30 38 H 6.019175 -1.165623 1.331634 0
M  V30 39 H 6.481541 -0.952776 3.042947 0
M  V30 40 H 5.863673 -2.573768 2.508154 0
M  V30 41 H 3.545070 -1.590291 0.761092 0
M  V30 42 H 3.018481 2.782544 -0.535177 0
M  V30 43 H 1.592420 2.614383 0.609799 0
M  V30 44 H 1.470012 2.888126 -2.168915 0
M  V30 45 H 0.108164 2.405258 -1.121750 0
M  V30 46 H 1.842841 0.829961 -2.988963 0
M  V30 47 H -0.247737 -0.335344 -3.195775 0
M  V30 48 H -0.203755 1.713803 1.924626 0
M  V30 49 H -3.383507 0.267301 4.483105 0
M  V30 50 H -4.221813 -1.152677 2.579034 0
M  V30 51 H -5.060173 -2.315664 1.121843 0
M  V30 52 H -5.137128 -0.580530 0.957685 0
M  V30 53 H -5.082894 -2.010826 -1.664358 0
M  V30 54 H -4.098725 -3.495732 -0.241877 0
M  V30 55 H -3.103596 -5.047429 -1.969792 0
M  V30 56 H -0.007855 -2.172157 -2.806411 0
M  V30 57 H 1.682210 -0.905870 -0.694004 0
M  V30 58 H 3.105047 -0.452638 -1.626322 0
M  V30 END ATOM
M  V30 BEGIN BOND
M  V30 1 1 1 2
M  V30 2 1 2 3
M  V30 3 1 2 4
M  V30 4 1 4 5
M  V30 5 2 5 6
M  V30 6 1 5 7
M  V30 7 1 7 8
M  V30 8 1 8 9
M  V30 9 1 9 10
M  V30 10 1 10 11
M  V30 11 1 11 12
M  V30 12 2 12 13
M  V30 13 1 13 14
M  V30 14 2 14 15
M  V30 15 1 15 16
M  V30 16 1 16 17
M  V30 17 2 16 18
M  V30 18 1 18 19
M  V30 19 2 19 20
M  V30 20 1 20 21
M  V30 21 1 21 22
M  V30 22 1 22 23
M  V30 23 1 23 24
M  V30 24 1 23 25
M  V30 25 1 21 26
M  V30 26 2 26 27
M  V30 27 1 27 28
M  V30 28 2 28 29
M  V30 29 1 29 30
M  V30 30 1 29 31
M  V30 31 2 31 32
M  V30 32 1 10 33
M  V30 33 1 33 7
M  V30 34 1 32 12
M  V30 35 1 20 14
M  V30 36 1 32 26
M  V30 37 1 1 34
M  V30 38 1 1 35
M  V30 39 1 1 36
M  V30 40 1 2 37
M  V30 41 1 3 38
M  V30 42 1 3 39
M  V30 43 1 3 40
M  V30 44 1 4 41
M  V30 45 1 8 42
M  V30 46 1 8 43
M  V30 47 1 9 44
M  V30 48 1 9 45
M  V30 49 1 10 46 CFG=3
M  V30 50 1 11 47
M  V30 51 1 15 48
M  V30 52 1 18 49
M  V30 53 1 19 50
M  V30 54 1 22 51
M  V30 55 1 22 52
M  V30 56 1 23 53
M  V30 57 1 27 54
M  V30 58 1 28 55
M  V30 59 1 31 56
M  V30 60 1 33 57
M  V30 61 1 33 58
M  V30 END BOND
M  V30 END CTAB
M  END
>  <Dataset>  (662) 
ChEMBL_Kinases

>  <Ligand_Instance>  (662) 
nan

>  <PDB_ID>  (662) 
nan

>  <Standardized_SMILES>  (662) 
CC(C)NC(=O)N1CC[C@H](NC2=Nc3cc(F)ccc3N(CC(F)F)c3ccc(Cl)cc32)C1

>  <Name>  (662) 
nan

>  <Pocket>  (662) 
nan

>  <ATP_Site>  (662) 
nan

>  <Peripheral>  (662) 
nan

>  <Num_H_Atoms_ProtBoundConf>  (662) 
nan

>  <Num_Resolved_Atoms>  (662) 
nan

>  <Num_Not_Resolved_Atoms>  (662) 
nan

$$$$
CHEMBL3660021
     RDKit          3D

  0  0  0  0  0  0  0  0  0  0999 V3000
M  V30 BEGIN CTAB
M  V30 COUNTS 48 52 0 0 0
M  V30 BEGIN ATOM
M  V30 1 C -2.331002 -4.773532 0.890693 0
M  V30 2 C -1.450286 -4.020159 0.160040 0
M  V30 3 C -1.028930 -2.752806 0.506370 0
M  V30 4 O -0.117078 -2.095335 -0.345148 0
M  V30 5 C 0.347654 -2.733837 -1.523964 0
M  V30 6 C 1.296605 -1.835308 -2.253202 0
M  V30 7 C 0.652679 -0.529302 -2.661784 0
M  V30 8 C 1.698227 0.582514 -2.740641 0
M  V30 9 C 2.239844 0.749601 -1.345371 0
M  V30 10 N 2.638980 -0.468143 -0.721550 0
M  V30 11 C 2.601421 -1.636847 -1.555809 0
M  V30 12 C -1.513419 -2.183982 1.662983 0
M  V30 13 N -1.118095 -0.944993 2.027500 0
M  V30 14 C -1.575123 -0.360221 3.156444 0
M  V30 15 C -1.222455 0.962246 3.653603 0
M  V30 16 N -1.684092 1.540636 4.777561 0
M  V30 17 N -1.149561 2.741661 4.916565 0
M  V30 18 C -0.326226 2.964087 3.877590 0
M  V30 19 C 0.426478 4.096163 3.644019 0
M  V30 20 C 1.199931 4.083328 2.498679 0
M  V30 21 C 1.159246 2.951383 1.687079 0
M  V30 22 C 0.371228 1.858811 2.002766 0
M  V30 23 N -0.384003 1.860013 3.112407 0
M  V30 24 C -2.460704 -1.132707 3.879267 0
M  V30 25 C -2.909765 -2.398220 3.574350 0
M  V30 26 C -2.400230 -2.935134 2.404325 0
M  V30 27 C -2.821815 -4.203250 2.057641 0
M  V30 28 H -2.657331 -5.767332 0.612997 0
M  V30 29 H -1.097229 -4.521396 -0.749166 0
M  V30 30 H -0.476480 -3.100042 -2.146852 0
M  V30 31 H 0.878630 -3.652695 -1.168806 0
M  V30 32 H 1.523162 -2.359930 -3.228131 0
M  V30 33 H -0.069955 -0.270728 -1.877992 0
M  V30 34 H 0.160404 -0.569411 -3.654414 0
M  V30 35 H 1.157689 1.517520 -3.001356 0
M  V30 36 H 2.487668 0.334372 -3.470656 0
M  V30 37 H 1.439634 1.288149 -0.776281 0
M  V30 38 H 3.142401 1.420685 -1.360390 0
M  V30 39 H 3.501505 -0.386719 -0.177945 0
M  V30 40 H 3.403974 -1.503435 -2.320721 0
M  V30 41 H 2.829738 -2.550209 -1.003873 0
M  V30 42 H 0.408158 4.939507 4.319924 0
M  V30 43 H 1.814582 4.953454 2.266209 0
M  V30 44 H 1.784655 3.026705 0.827579 0
M  V30 45 H 0.366147 0.998830 1.348366 0
M  V30 46 H -2.863905 -0.703863 4.808202 0
M  V30 47 H -3.609340 -2.908593 4.222182 0
M  V30 48 H -3.519592 -4.738751 2.683442 0
M  V30 END ATOM
M  V30 BEGIN BOND
M  V30 1 2 1 2
M  V30 2 1 2 3
M  V30 3 1 3 4
M  V30 4 1 4 5
M  V30 5 1 5 6
M  V30 6 1 6 7
M  V30 7 1 7 8
M  V30 8 1 8 9
M  V30 9 1 9 10
M  V30 10 1 10 11
M  V30 11 2 3 12
M  V30 12 1 12 13
M  V30 13 2 13 14
M  V30 14 1 14 15
M  V30 15 2 15 16
M  V30 16 1 16 17
M  V30 17 2 17 18
M  V30 18 1 18 19
M  V30 19 2 19 20
M  V30 20 1 20 21
M  V30 21 2 21 22
M  V30 22 1 22 23
M  V30 23 1 14 24
M  V30 24 2 24 25
M  V30 25 1 25 26
M  V30 26 2 26 27
M  V30 27 1 27 1
M  V30 28 1 11 6
M  V30 29 1 26 12
M  V30 30 1 23 15
M  V30 31 1 23 18
M  V30 32 1 1 28
M  V30 33 1 2 29
M  V30 34 1 5 30
M  V30 35 1 5 31
M  V30 36 1 6 32
M  V30 37 1 7 33
M  V30 38 1 7 34
M  V30 39 1 8 35
M  V30 40 1 8 36
M  V30 41 1 9 37
M  V30 42 1 9 38
M  V30 43 1 10 39
M  V30 44 1 11 40
M  V30 45 1 11 41
M  V30 46 1 19 42
M  V30 47 1 20 43
M  V30 48 1 21 44
M  V30 49 1 22 45
M  V30 50 1 24 46
M  V30 51 1 25 47
M  V30 52 1 27 48
M  V30 END BOND
M  V30 END CTAB
M  END
>  <Dataset>  (663) 
ChEMBL_Kinases

>  <Ligand_Instance>  (663) 
nan

>  <PDB_ID>  (663) 
nan

>  <Standardized_SMILES>  (663) 
c1cc(OCC2CCCNC2)c2nc(-c3nnc4ccccn34)ccc2c1

>  <Name>  (663) 
nan

>  <Pocket>  (663) 
nan

>  <ATP_Site>  (663) 
nan

>  <Peripheral>  (663) 
nan

>  <Num_H_Atoms_ProtBoundConf>  (663) 
nan

>  <Num_Resolved_Atoms>  (663) 
nan

>  <Num_Not_Resolved_Atoms>  (663) 
nan

$$$$
CHEMBL3660020
     RDKit          3D

  0  0  0  0  0  0  0  0  0  0999 V3000
M  V30 BEGIN CTAB
M  V30 COUNTS 51 55 0 0 0
M  V30 BEGIN ATOM
M  V30 1 C 2.197401 -3.924201 1.125295 0
M  V30 2 C 1.962999 -2.571617 0.986535 0
M  V30 3 C 0.678941 -2.046803 0.838992 0
M  V30 4 O 0.427668 -0.695799 0.699030 0
M  V30 5 C 1.561635 0.183203 0.709887 0
M  V30 6 C 1.169791 1.608216 0.552184 0
M  V30 7 C 2.246962 2.629491 0.545346 0
M  V30 8 C 3.093662 2.706629 1.769395 0
M  V30 9 C 4.267136 1.816742 1.816024 0
M  V30 10 C 4.747996 1.297223 0.498870 0
M  V30 11 C 4.182659 1.905080 -0.724287 0
M  V30 12 N 3.023386 2.680783 -0.654608 0
M  V30 13 C -0.357713 -2.940900 0.837137 0
M  V30 14 N -1.625256 -2.509784 0.699247 0
M  V30 15 C -2.663797 -3.394697 0.696440 0
M  V30 16 C -4.048217 -2.957972 0.548971 0
M  V30 17 N -5.167103 -3.719527 0.528811 0
M  V30 18 N -6.239810 -2.942544 0.375647 0
M  V30 19 C -5.831023 -1.666283 0.294382 0
M  V30 20 C -6.584885 -0.522230 0.133648 0
M  V30 21 C -5.923232 0.700913 0.076954 0
M  V30 22 C -4.537581 0.664931 0.188868 0
M  V30 23 C -3.851742 -0.502401 0.346331 0
M  V30 24 N -4.489751 -1.684534 0.401240 0
M  V30 25 C -2.432107 -4.753930 0.835578 0
M  V30 26 C -1.144149 -5.242893 0.980218 0
M  V30 27 C -0.125036 -4.303234 0.976629 0
M  V30 28 C 1.145123 -4.816579 1.122058 0
M  V30 29 H 3.218423 -4.272210 1.236451 0
M  V30 30 H 2.792713 -1.901475 0.992067 0
M  V30 31 H 2.113568 -0.064071 1.605010 0
M  V30 32 H 2.172265 -0.115513 -0.167877 0
M  V30 33 H 0.562880 1.762198 -0.362262 0
M  V30 34 H 0.479259 1.871301 1.404676 0
M  V30 35 H 1.672568 3.609014 0.532273 0
M  V30 36 H 2.415853 2.514737 2.652378 0
M  V30 37 H 3.416600 3.776214 1.940982 0
M  V30 38 H 5.113857 2.354165 2.293873 0
M  V30 39 H 4.055556 0.981560 2.544667 0
M  V30 40 H 4.462904 0.214509 0.466209 0
M  V30 41 H 5.866638 1.261319 0.473375 0
M  V30 42 H 4.028797 1.144738 -1.547191 0
M  V30 43 H 4.997256 2.546401 -1.179368 0
M  V30 44 H 3.115255 3.624545 -1.088267 0
M  V30 45 H -7.673806 -0.597970 0.054940 0
M  V30 46 H -6.560409 1.560760 -0.049392 0
M  V30 47 H -4.054119 1.643795 0.139883 0
M  V30 48 H -2.769966 -0.434228 0.425145 0
M  V30 49 H -3.251811 -5.454747 0.833565 0
M  V30 50 H -0.971646 -6.292326 1.087129 0
M  V30 51 H 1.361113 -5.856704 1.231572 0
M  V30 END ATOM
M  V30 BEGIN BOND
M  V30 1 2 1 2
M  V30 2 1 2 3
M  V30 3 1 3 4
M  V30 4 1 4 5
M  V30 5 1 5 6
M  V30 6 1 6 7
M  V30 7 1 7 8
M  V30 8 1 8 9
M  V30 9 1 9 10
M  V30 10 1 10 11
M  V30 11 1 11 12
M  V30 12 2 3 13
M  V30 13 1 13 14
M  V30 14 2 14 15
M  V30 15 1 15 16
M  V30 16 2 16 17
M  V30 17 1 17 18
M  V30 18 2 18 19
M  V30 19 1 19 20
M  V30 20 2 20 21
M  V30 21 1 21 22
M  V30 22 2 22 23
M  V30 23 1 23 24
M  V30 24 1 15 25
M  V30 25 2 25 26
M  V30 26 1 26 27
M  V30 27 2 27 28
M  V30 28 1 28 1
M  V30 29 1 12 7
M  V30 30 1 27 13
M  V30 31 1 24 16
M  V30 32 1 24 19
M  V30 33 1 1 29
M  V30 34 1 2 30
M  V30 35 1 5 31
M  V30 36 1 5 32
M  V30 37 1 6 33
M  V30 38 1 6 34
M  V30 39 1 7 35
M  V30 40 1 8 36
M  V30 41 1 8 37
M  V30 42 1 9 38
M  V30 43 1 9 39
M  V30 44 1 10 40
M  V30 45 1 10 41
M  V30 46 1 11 42
M  V30 47 1 11 43
M  V30 48 1 12 44
M  V30 49 1 20 45
M  V30 50 1 21 46
M  V30 51 1 22 47
M  V30 52 1 23 48
M  V30 53 1 25 49
M  V30 54 1 26 50
M  V30 55 1 28 51
M  V30 END BOND
M  V30 END CTAB
M  END
>  <Dataset>  (664) 
ChEMBL_Kinases

>  <Ligand_Instance>  (664) 
nan

>  <PDB_ID>  (664) 
nan

>  <Standardized_SMILES>  (664) 
c1cc(OCCC2CCCCN2)c2nc(-c3nnc4ccccn34)ccc2c1

>  <Name>  (664) 
nan

>  <Pocket>  (664) 
nan

>  <ATP_Site>  (664) 
nan

>  <Peripheral>  (664) 
nan

>  <Num_H_Atoms_ProtBoundConf>  (664) 
nan

>  <Num_Resolved_Atoms>  (664) 
nan

>  <Num_Not_Resolved_Atoms>  (664) 
nan

$$$$
CHEMBL4077684
     RDKit          3D

  0  0  0  0  0  0  0  0  0  0999 V3000
M  V30 BEGIN CTAB
M  V30 COUNTS 71 75 0 0 0
M  V30 BEGIN ATOM
M  V30 1 C 6.376820 -1.300019 3.974583 0
M  V30 2 C 5.260779 -2.020131 3.284662 0
M  V30 3 C 5.291292 -1.783647 1.796273 0
M  V30 4 O 5.998251 -1.150870 0.963720 0
M  V30 5 N 4.207246 -2.480909 1.182442 0
M  V30 6 C 3.927922 -2.483754 -0.211184 0
M  V30 7 C 4.494502 -3.457857 -1.010017 0
M  V30 8 C 4.253362 -3.510825 -2.382431 0
M  V30 9 C 3.416236 -2.553269 -2.966406 0
M  V30 10 C 2.836451 -1.561034 -2.167606 0
M  V30 11 C 1.976429 -0.608521 -2.854109 0
M  V30 12 O 1.785709 -0.759616 -4.086071 0
M  V30 13 N 1.374804 0.458271 -2.138650 0
M  V30 14 C 0.506153 1.506560 -2.553062 0
M  V30 15 C 0.907881 2.732509 -3.028805 0
M  V30 16 C -0.043179 3.662445 -3.397227 0
M  V30 17 C -1.397712 3.435438 -3.315335 0
M  V30 18 C -1.871298 2.209554 -2.839201 0
M  V30 19 N -3.235425 1.843811 -2.726512 0
M  V30 20 C -3.933697 1.093309 -1.750886 0
M  V30 21 C -3.458240 0.668694 -0.536836 0
M  V30 22 C -4.142458 -0.084215 0.394826 0
M  V30 23 C -3.436604 -0.425345 1.651209 0
M  V30 24 C -2.944806 -1.535238 2.304415 0
M  V30 25 C -3.134608 -2.805712 1.611939 0
M  V30 26 C -3.896928 -3.779152 2.222857 0
M  V30 27 C -4.074135 -4.992894 1.557584 0
M  V30 28 C -3.475081 -5.170461 0.307473 0
M  V30 29 F -3.689861 -6.386864 -0.286676 0
M  V30 30 C -2.712684 -4.199774 -0.305343 0
M  V30 31 C -2.535159 -2.983224 0.361706 0
M  V30 32 N -2.398240 -1.088888 3.461530 0
M  V30 33 C -2.541294 0.242284 3.531414 0
M  V30 34 S -1.932268 1.213835 4.927937 0
M  V30 35 C -0.233649 1.744115 4.606676 0
M  V30 36 N -3.187790 0.683722 2.411663 0
M  V30 37 C -3.451538 2.104802 2.277084 0
M  V30 38 C -5.443392 -0.443135 0.060108 0
M  V30 39 C -5.916812 -0.014164 -1.160572 0
M  V30 40 N -5.195057 0.720478 -2.025521 0
M  V30 41 C -0.875929 1.292174 -2.476788 0
M  V30 42 C 3.112115 -1.564372 -0.832787 0
M  V30 43 H 7.261611 -1.978870 4.150764 0
M  V30 44 H 6.757116 -0.408890 3.425639 0
M  V30 45 H 6.033361 -1.014608 4.990329 0
M  V30 46 H 4.255043 -1.713931 3.635188 0
M  V30 47 H 5.356271 -3.141812 3.387847 0
M  V30 48 H 3.421162 -3.099379 1.524679 0
M  V30 49 H 5.154993 -4.229495 -0.609689 0
M  V30 50 H 4.715495 -4.290600 -2.984736 0
M  V30 51 H 3.260011 -2.632777 -4.013611 0
M  V30 52 H 1.510832 0.623144 -1.115212 0
M  V30 53 H 1.970488 2.914879 -3.094246 0
M  V30 54 H 0.324581 4.622555 -3.770251 0
M  V30 55 H -2.145152 4.161718 -3.601764 0
M  V30 56 H -3.731056 2.237372 -3.542877 0
M  V30 57 H -2.449770 0.961682 -0.274404 0
M  V30 58 H -4.342420 -3.614409 3.181823 0
M  V30 59 H -4.670691 -5.719446 2.064449 0
M  V30 60 H -2.262963 -4.372125 -1.275249 0
M  V30 61 H -1.939683 -2.224704 -0.118022 0
M  V30 62 H -0.017131 1.817987 3.523307 0
M  V30 63 H 0.534104 1.084219 5.038179 0
M  V30 64 H -0.042038 2.773726 5.012196 0
M  V30 65 H -4.085263 2.338479 1.413455 0
M  V30 66 H -2.488022 2.668189 2.195324 0
M  V30 67 H -3.903112 2.454490 3.231749 0
M  V30 68 H -5.968013 -1.031058 0.796133 0
M  V30 69 H -6.933959 -0.300692 -1.410486 0
M  V30 70 H -1.169645 0.314293 -2.111432 0
M  V30 71 H 2.663019 -0.797475 -0.217557 0
M  V30 END ATOM
M  V30 BEGIN BOND
M  V30 1 1 1 2
M  V30 2 1 2 3
M  V30 3 2 3 4
M  V30 4 1 3 5
M  V30 5 1 5 6
M  V30 6 2 6 7
M  V30 7 1 7 8
M  V30 8 2 8 9
M  V30 9 1 9 10
M  V30 10 1 10 11
M  V30 11 2 11 12
M  V30 12 1 11 13
M  V30 13 1 13 14
M  V30 14 2 14 15
M  V30 15 1 15 16
M  V30 16 2 16 17
M  V30 17 1 17 18
M  V30 18 1 18 19
M  V30 19 1 19 20
M  V30 20 2 20 21
M  V30 21 1 21 22
M  V30 22 1 22 23
M  V30 23 2 23 24
M  V30 24 1 24 25
M  V30 25 2 25 26
M  V30 26 1 26 27
M  V30 27 2 27 28
M  V30 28 1 28 29
M  V30 29 1 28 30
M  V30 30 2 30 31
M  V30 31 1 24 32
M  V30 32 2 32 33
M  V30 33 1 33 34
M  V30 34 1 34 35
M  V30 35 1 33 36
M  V30 36 1 36 37
M  V30 37 2 22 38
M  V30 38 1 38 39
M  V30 39 2 39 40
M  V30 40 2 18 41
M  V30 41 2 10 42
M  V30 42 1 42 6
M  V30 43 1 41 14
M  V30 44 1 40 20
M  V30 45 1 36 23
M  V30 46 1 31 25
M  V30 47 1 1 43
M  V30 48 1 1 44
M  V30 49 1 1 45
M  V30 50 1 2 46
M  V30 51 1 2 47
M  V30 52 1 5 48
M  V30 53 1 7 49
M  V30 54 1 8 50
M  V30 55 1 9 51
M  V30 56 1 13 52
M  V30 57 1 15 53
M  V30 58 1 16 54
M  V30 59 1 17 55
M  V30 60 1 19 56
M  V30 61 1 21 57
M  V30 62 1 26 58
M  V30 63 1 27 59
M  V30 64 1 30 60
M  V30 65 1 31 61
M  V30 66 1 35 62
M  V30 67 1 35 63
M  V30 68 1 35 64
M  V30 69 1 37 65
M  V30 70 1 37 66
M  V30 71 1 37 67
M  V30 72 1 38 68
M  V30 73 1 39 69
M  V30 74 1 41 70
M  V30 75 1 42 71
M  V30 END BOND
M  V30 END CTAB
M  END
>  <Dataset>  (665) 
ChEMBL_Kinases

>  <Ligand_Instance>  (665) 
nan

>  <PDB_ID>  (665) 
nan

>  <Standardized_SMILES>  (665) 
CCC(=O)Nc1cccc(C(=O)Nc2cccc(Nc3cc(-c4c(-c5ccc(F)cc5)nc(SC)n4C)ccn3)c2)c1

>  <Name>  (665) 
nan

>  <Pocket>  (665) 
nan

>  <ATP_Site>  (665) 
nan

>  <Peripheral>  (665) 
nan

>  <Num_H_Atoms_ProtBoundConf>  (665) 
nan

>  <Num_Resolved_Atoms>  (665) 
nan

>  <Num_Not_Resolved_Atoms>  (665) 
nan

$$$$
CHEMBL3660019
     RDKit          3D

  0  0  0  0  0  0  0  0  0  0999 V3000
M  V30 BEGIN CTAB
M  V30 COUNTS 48 52 0 0 0
M  V30 BEGIN ATOM
M  V30 1 C -0.283597 -4.017996 2.951543 0
M  V30 2 C 0.188987 -3.447617 1.811577 0
M  V30 3 C -0.245982 -2.287730 1.219040 0
M  V30 4 O 0.110093 -1.612310 0.119159 0
M  V30 5 C 1.055973 -1.788941 -0.861734 0
M  V30 6 C 2.438623 -1.759198 -0.310120 0
M  V30 7 C 3.492901 -1.953169 -1.398075 0
M  V30 8 C 4.779440 -1.348938 -0.878098 0
M  V30 9 N 4.933713 -1.487865 0.555479 0
M  V30 10 C 3.955346 -0.698519 1.279286 0
M  V30 11 C 2.768865 -0.441473 0.367443 0
M  V30 12 C -1.296008 -1.648776 1.893125 0
M  V30 13 N -1.875646 -0.513645 1.502765 0
M  V30 14 C -2.881104 0.107432 2.139365 0
M  V30 15 C -3.420963 1.349404 1.595996 0
M  V30 16 N -4.421306 2.069026 2.130292 0
M  V30 17 N -4.634163 3.138774 1.351084 0
M  V30 18 C -3.762274 3.098753 0.313397 0
M  V30 19 C -3.623915 3.997062 -0.732501 0
M  V30 20 C -2.648537 3.726506 -1.673396 0
M  V30 21 C -1.875257 2.595311 -1.526388 0
M  V30 22 C -2.098641 1.768497 -0.445141 0
M  V30 23 N -3.029149 1.994179 0.484066 0
M  V30 24 C -3.403046 -0.422188 3.300192 0
M  V30 25 C -2.862506 -1.595816 3.776360 0
M  V30 26 C -1.832948 -2.175180 3.069355 0
M  V30 27 C -1.313972 -3.344731 3.568293 0
M  V30 28 H 0.139996 -4.926925 3.314271 0
M  V30 29 H 0.989293 -3.939333 1.282871 0
M  V30 30 H 0.948310 -2.778021 -1.398222 0
M  V30 31 H 0.969974 -1.041659 -1.700071 0
M  V30 32 H 2.642897 -2.540869 0.436225 0
M  V30 33 H 3.221522 -1.420853 -2.319893 0
M  V30 34 H 3.610887 -3.050773 -1.555047 0
M  V30 35 H 4.911825 -0.300195 -1.157222 0
M  V30 36 H 5.616727 -1.914585 -1.337505 0
M  V30 37 H 5.046647 -2.449156 0.885563 0
M  V30 38 H 3.552306 -1.368822 2.093872 0
M  V30 39 H 4.385996 0.227779 1.706398 0
M  V30 40 H 1.902760 -0.037402 0.926151 0
M  V30 41 H 3.112668 0.311393 -0.378106 0
M  V30 42 H -4.263139 4.880490 -0.803676 0
M  V30 43 H -2.500592 4.397281 -2.509467 0
M  V30 44 H -1.112017 2.355814 -2.235586 0
M  V30 45 H -1.470626 0.891804 -0.366656 0
M  V30 46 H -4.212872 0.048481 3.841713 0
M  V30 47 H -3.246763 -2.041769 4.685591 0
M  V30 48 H -1.716702 -3.770743 4.481157 0
M  V30 END ATOM
M  V30 BEGIN BOND
M  V30 1 2 1 2
M  V30 2 1 2 3
M  V30 3 1 3 4
M  V30 4 1 4 5
M  V30 5 1 5 6
M  V30 6 1 6 7
M  V30 7 1 7 8
M  V30 8 1 8 9
M  V30 9 1 9 10
M  V30 10 1 10 11
M  V30 11 2 3 12
M  V30 12 1 12 13
M  V30 13 2 13 14
M  V30 14 1 14 15
M  V30 15 2 15 16
M  V30 16 1 16 17
M  V30 17 2 17 18
M  V30 18 1 18 19
M  V30 19 2 19 20
M  V30 20 1 20 21
M  V30 21 2 21 22
M  V30 22 1 22 23
M  V30 23 1 14 24
M  V30 24 2 24 25
M  V30 25 1 25 26
M  V30 26 2 26 27
M  V30 27 1 27 1
M  V30 28 1 11 6
M  V30 29 1 26 12
M  V30 30 1 23 15
M  V30 31 1 23 18
M  V30 32 1 1 28
M  V30 33 1 2 29
M  V30 34 1 5 30
M  V30 35 1 5 31
M  V30 36 1 6 32
M  V30 37 1 7 33
M  V30 38 1 7 34
M  V30 39 1 8 35
M  V30 40 1 8 36
M  V30 41 1 9 37
M  V30 42 1 10 38
M  V30 43 1 10 39
M  V30 44 1 11 40
M  V30 45 1 11 41
M  V30 46 1 19 42
M  V30 47 1 20 43
M  V30 48 1 21 44
M  V30 49 1 22 45
M  V30 50 1 24 46
M  V30 51 1 25 47
M  V30 52 1 27 48
M  V30 END BOND
M  V30 END CTAB
M  END
>  <Dataset>  (666) 
ChEMBL_Kinases

>  <Ligand_Instance>  (666) 
nan

>  <PDB_ID>  (666) 
nan

>  <Standardized_SMILES>  (666) 
c1cc(OCC2CCNCC2)c2nc(-c3nnc4ccccn34)ccc2c1

>  <Name>  (666) 
nan

>  <Pocket>  (666) 
nan

>  <ATP_Site>  (666) 
nan

>  <Peripheral>  (666) 
nan

>  <Num_H_Atoms_ProtBoundConf>  (666) 
nan

>  <Num_Resolved_Atoms>  (666) 
nan

>  <Num_Not_Resolved_Atoms>  (666) 
nan

$$$$
CHEMBL3660024
     RDKit          3D

  0  0  0  0  0  0  0  0  0  0999 V3000
M  V30 BEGIN CTAB
M  V30 COUNTS 51 54 0 0 0
M  V30 BEGIN ATOM
M  V30 1 C 1.561287 -3.518863 -0.425765 0
M  V30 2 C 2.256651 -3.272231 0.913271 0
M  V30 3 C 1.875627 -4.510342 1.755916 0
M  V30 4 C 3.718815 -3.316998 0.699881 0
M  V30 5 O 4.518784 -3.126209 1.794368 0
M  V30 6 C 1.680122 -2.107597 1.630381 0
M  V30 7 O 1.689596 -0.884677 1.064997 0
M  V30 8 C 2.468904 0.067414 0.601148 0
M  V30 9 C 3.824153 0.247196 0.484028 0
M  V30 10 C 4.481077 1.338212 -0.040951 0
M  V30 11 C 3.661139 2.344995 -0.490028 0
M  V30 12 C 2.300357 2.288542 -0.429951 0
M  V30 13 C 1.619502 3.372047 -0.918092 0
M  V30 14 C 0.244768 3.346913 -0.872305 0
M  V30 15 C -0.357740 2.230590 -0.337032 0
M  V30 16 C -1.807255 2.161409 -0.269035 0
M  V30 17 N -2.671769 3.096433 -0.683290 0
M  V30 18 N -3.918412 2.707960 -0.471820 0
M  V30 19 C -3.903343 1.494626 0.092861 0
M  V30 20 C -4.922740 0.661584 0.505697 0
M  V30 21 C -4.591984 -0.568256 1.070208 0
M  V30 22 C -5.618650 -1.514031 1.535428 0
M  V30 23 N -5.962403 -1.290712 2.922188 0
M  V30 24 C -3.264247 -0.903543 1.193820 0
M  V30 25 C -2.312187 -0.013736 0.756211 0
M  V30 26 N -2.592485 1.180041 0.207237 0
M  V30 27 N 0.358024 1.204274 0.123616 0
M  V30 28 C 1.705304 1.144134 0.118238 0
M  V30 29 H 0.466287 -3.313053 -0.262146 0
M  V30 30 H 1.634823 -4.580686 -0.664919 0
M  V30 31 H 1.874551 -2.829749 -1.213378 0
M  V30 32 H 2.214545 -5.422281 1.262521 0
M  V30 33 H 2.358582 -4.329432 2.731158 0
M  V30 34 H 0.780133 -4.423266 1.883575 0
M  V30 35 H 4.013743 -2.671345 -0.173159 0
M  V30 36 H 3.946158 -4.358434 0.307734 0
M  V30 37 H 4.192508 -2.397248 2.338188 0
M  V30 38 H 2.245830 -2.039708 2.615145 0
M  V30 39 H 0.659660 -2.440018 1.993229 0
M  V30 40 H 4.412595 -0.556655 0.851973 0
M  V30 41 H 5.560767 1.343535 -0.070203 0
M  V30 42 H 4.168156 3.215323 -0.908351 0
M  V30 43 H 2.136397 4.225966 -1.328932 0
M  V30 44 H -0.360083 4.156232 -1.234546 0
M  V30 45 H -5.956994 0.930743 0.405706 0
M  V30 46 H -6.553612 -1.437399 0.940167 0
M  V30 47 H -5.240810 -2.543380 1.435259 0
M  V30 48 H -6.835009 -1.775264 3.185479 0
M  V30 49 H -5.225044 -1.556970 3.591229 0
M  V30 50 H -2.996767 -1.854881 1.630241 0
M  V30 51 H -1.289609 -0.327915 0.877466 0
M  V30 END ATOM
M  V30 BEGIN BOND
M  V30 1 1 1 2
M  V30 2 1 2 3
M  V30 3 1 2 4
M  V30 4 1 4 5
M  V30 5 1 2 6
M  V30 6 1 6 7
M  V30 7 1 7 8
M  V30 8 2 8 9
M  V30 9 1 9 10
M  V30 10 2 10 11
M  V30 11 1 11 12
M  V30 12 2 12 13
M  V30 13 1 13 14
M  V30 14 2 14 15
M  V30 15 1 15 16
M  V30 16 2 16 17
M  V30 17 1 17 18
M  V30 18 2 18 19
M  V30 19 1 19 20
M  V30 20 2 20 21
M  V30 21 1 21 22
M  V30 22 1 22 23
M  V30 23 1 21 24
M  V30 24 2 24 25
M  V30 25 1 25 26
M  V30 26 1 15 27
M  V30 27 2 27 28
M  V30 28 1 28 8
M  V30 29 1 28 12
M  V30 30 1 26 16
M  V30 31 1 26 19
M  V30 32 1 1 29
M  V30 33 1 1 30
M  V30 34 1 1 31
M  V30 35 1 3 32
M  V30 36 1 3 33
M  V30 37 1 3 34
M  V30 38 1 4 35
M  V30 39 1 4 36
M  V30 40 1 5 37
M  V30 41 1 6 38
M  V30 42 1 6 39
M  V30 43 1 9 40
M  V30 44 1 10 41
M  V30 45 1 11 42
M  V30 46 1 13 43
M  V30 47 1 14 44
M  V30 48 1 20 45
M  V30 49 1 22 46
M  V30 50 1 22 47
M  V30 51 1 23 48
M  V30 52 1 23 49
M  V30 53 1 24 50
M  V30 54 1 25 51
M  V30 END BOND
M  V30 END CTAB
M  END
>  <Dataset>  (667) 
ChEMBL_Kinases

>  <Ligand_Instance>  (667) 
nan

>  <PDB_ID>  (667) 
nan

>  <Standardized_SMILES>  (667) 
CC(C)(CO)COc1cccc2ccc(-c3nnc4cc(CN)ccn34)nc12

>  <Name>  (667) 
nan

>  <Pocket>  (667) 
nan

>  <ATP_Site>  (667) 
nan

>  <Peripheral>  (667) 
nan

>  <Num_H_Atoms_ProtBoundConf>  (667) 
nan

>  <Num_Resolved_Atoms>  (667) 
nan

>  <Num_Not_Resolved_Atoms>  (667) 
nan

$$$$
CHEMBL3660034
     RDKit          3D

  0  0  0  0  0  0  0  0  0  0999 V3000
M  V30 BEGIN CTAB
M  V30 COUNTS 49 54 0 0 0
M  V30 BEGIN ATOM
M  V30 1 C 0.872209 -5.245885 1.518660 0
M  V30 2 C 1.332209 -4.103202 0.898217 0
M  V30 3 C 0.691260 -2.881651 0.899264 0
M  V30 4 O 1.185349 -1.777583 0.270684 0
M  V30 5 C 2.361836 -1.640331 -0.460297 0
M  V30 6 C 2.138388 -1.165415 -1.895955 0
M  V30 7 C 1.747684 0.286006 -1.903476 0
M  V30 8 C 2.955911 1.224259 -1.932361 0
M  V30 9 C 3.008025 1.852073 -0.531866 0
M  V30 10 C 2.298887 0.725270 0.234499 0
M  V30 11 C 3.155677 -0.519784 0.199300 0
M  V30 12 N 1.142935 0.577027 -0.640056 0
M  V30 13 C -0.505537 -2.812929 1.580090 0
M  V30 14 N -1.231754 -1.676846 1.657567 0
M  V30 15 C -2.399454 -1.617417 2.324348 0
M  V30 16 C -3.205722 -0.406379 2.426183 0
M  V30 17 N -4.377903 -0.258951 3.068116 0
M  V30 18 N -4.829274 0.964769 2.958194 0
M  V30 19 C -3.953157 1.680607 2.225627 0
M  V30 20 C -3.966679 3.001074 1.829513 0
M  V30 21 C -2.919104 3.478855 1.069351 0
M  V30 22 C -1.894677 2.605946 0.736051 0
M  V30 23 C -1.965579 1.304419 1.175851 0
M  V30 24 N -2.966912 0.813666 1.912863 0
M  V30 25 C -2.861740 -2.762000 2.946684 0
M  V30 26 C -2.183008 -3.963722 2.917221 0
M  V30 27 C -0.996413 -3.956153 2.218815 0
M  V30 28 C -0.325000 -5.180238 2.200680 0
M  V30 29 H 1.404453 -6.186077 1.495038 0
M  V30 30 H 2.274439 -4.243189 0.388552 0
M  V30 31 H 2.963896 -2.570440 -0.523523 0
M  V30 32 H 1.463087 -1.830236 -2.450512 0
M  V30 33 H 3.145280 -1.290559 -2.378761 0
M  V30 34 H 1.063081 0.514539 -2.754773 0
M  V30 35 H 3.891071 0.717058 -2.171105 0
M  V30 36 H 2.695805 2.067919 -2.617673 0
M  V30 37 H 2.347336 2.733104 -0.445528 0
M  V30 38 H 4.037468 1.994701 -0.190726 0
M  V30 39 H 2.013214 1.044969 1.242726 0
M  V30 40 H 4.090760 -0.336816 -0.394008 0
M  V30 41 H 3.387076 -0.864617 1.227461 0
M  V30 42 H 0.567885 1.424106 -0.612163 0
M  V30 43 H -4.780016 3.659876 2.104619 0
M  V30 44 H -2.940237 4.529359 0.760319 0
M  V30 45 H -1.082141 2.997981 0.139895 0
M  V30 46 H -1.172182 0.620392 0.920302 0
M  V30 47 H -3.805868 -2.741941 3.494355 0
M  V30 48 H -2.559779 -4.839789 3.406993 0
M  V30 49 H -0.720185 -6.053278 2.700342 0
M  V30 END ATOM
M  V30 BEGIN BOND
M  V30 1 2 1 2
M  V30 2 1 2 3
M  V30 3 1 3 4
M  V30 4 1 4 5
M  V30 5 1 5 6
M  V30 6 1 6 7
M  V30 7 1 7 8
M  V30 8 1 8 9
M  V30 9 1 9 10
M  V30 10 1 10 11
M  V30 11 1 10 12
M  V30 12 2 3 13
M  V30 13 1 13 14
M  V30 14 2 14 15
M  V30 15 1 15 16
M  V30 16 2 16 17
M  V30 17 1 17 18
M  V30 18 2 18 19
M  V30 19 1 19 20
M  V30 20 2 20 21
M  V30 21 1 21 22
M  V30 22 2 22 23
M  V30 23 1 23 24
M  V30 24 1 15 25
M  V30 25 2 25 26
M  V30 26 1 26 27
M  V30 27 2 27 28
M  V30 28 1 28 1
M  V30 29 1 11 5
M  V30 30 1 27 13
M  V30 31 1 12 7
M  V30 32 1 24 16
M  V30 33 1 24 19
M  V30 34 1 1 29
M  V30 35 1 2 30
M  V30 36 1 5 31
M  V30 37 1 6 32
M  V30 38 1 6 33
M  V30 39 1 7 34
M  V30 40 1 8 35
M  V30 41 1 8 36
M  V30 42 1 9 37
M  V30 43 1 9 38
M  V30 44 1 10 39
M  V30 45 1 11 40
M  V30 46 1 11 41
M  V30 47 1 12 42
M  V30 48 1 20 43
M  V30 49 1 21 44
M  V30 50 1 22 45
M  V30 51 1 23 46
M  V30 52 1 25 47
M  V30 53 1 26 48
M  V30 54 1 28 49
M  V30 END BOND
M  V30 END CTAB
M  END
>  <Dataset>  (668) 
ChEMBL_Kinases

>  <Ligand_Instance>  (668) 
nan

>  <PDB_ID>  (668) 
nan

>  <Standardized_SMILES>  (668) 
c1cc(OC2CC3CCC(C2)N3)c2nc(-c3nnc4ccccn34)ccc2c1

>  <Name>  (668) 
nan

>  <Pocket>  (668) 
nan

>  <ATP_Site>  (668) 
nan

>  <Peripheral>  (668) 
nan

>  <Num_H_Atoms_ProtBoundConf>  (668) 
nan

>  <Num_Resolved_Atoms>  (668) 
nan

>  <Num_Not_Resolved_Atoms>  (668) 
nan

$$$$
CHEMBL3660033
     RDKit          3D

  0  0  0  0  0  0  0  0  0  0999 V3000
M  V30 BEGIN CTAB
M  V30 COUNTS 50 53 0 0 0
M  V30 BEGIN ATOM
M  V30 1 C -0.005764 -2.071539 3.867484 0
M  V30 2 N 0.975000 -2.116523 2.797032 0
M  V30 3 C 1.908474 -1.033630 2.962702 0
M  V30 4 C 2.971292 -1.032989 1.854407 0
M  V30 5 C 3.893037 0.101354 2.086342 0
M  V30 6 C 3.785471 -2.309983 2.158924 0
M  V30 7 C 2.329970 -1.130735 0.513077 0
M  V30 8 O 1.462239 -0.208914 0.095576 0
M  V30 9 C 1.255223 1.054431 -0.203012 0
M  V30 10 C 2.082172 2.157817 -0.190989 0
M  V30 11 C 1.762254 3.454909 -0.527324 0
M  V30 12 C 0.451225 3.630911 -0.917162 0
M  V30 13 C -0.458480 2.600921 -0.966087 0
M  V30 14 C -1.727374 2.943705 -1.376681 0
M  V30 15 C -2.674002 1.946819 -1.441964 0
M  V30 16 C -2.246927 0.685928 -1.083349 0
M  V30 17 C -3.244999 -0.390308 -1.147312 0
M  V30 18 N -4.539459 -0.312244 -1.513922 0
M  V30 19 N -5.136273 -1.490260 -1.449298 0
M  V30 20 C -4.230386 -2.379848 -1.032036 0
M  V30 21 C -4.331902 -3.737174 -0.798362 0
M  V30 22 C -3.239082 -4.456141 -0.363151 0
M  V30 23 C -2.056535 -3.771608 -0.173705 0
M  V30 24 C -2.040162 -2.411911 -0.430966 0
M  V30 25 N -3.087085 -1.693582 -0.853587 0
M  V30 26 N -1.001648 0.388855 -0.687966 0
M  V30 27 C -0.055474 1.307998 -0.607845 0
M  V30 28 H 0.306609 -2.661131 4.756044 0
M  V30 29 H -0.243524 -1.017995 4.146195 0
M  V30 30 H -0.992979 -2.494788 3.530692 0
M  V30 31 H 0.431135 -2.056738 1.905741 0
M  V30 32 H 1.437522 -0.044575 3.058060 0
M  V30 33 H 2.462681 -1.219482 3.906128 0
M  V30 34 H 3.396396 1.031124 2.450807 0
M  V30 35 H 4.508332 0.381837 1.208736 0
M  V30 36 H 4.664678 -0.127258 2.880169 0
M  V30 37 H 3.149560 -3.174414 1.973870 0
M  V30 38 H 4.741075 -2.323860 1.623646 0
M  V30 39 H 3.986490 -2.265050 3.255934 0
M  V30 40 H 3.205720 -1.131632 -0.220645 0
M  V30 41 H 1.923418 -2.176534 0.329663 0
M  V30 42 H 3.097821 1.974911 0.112224 0
M  V30 43 H 2.516075 4.230381 -0.471790 0
M  V30 44 H 0.169191 4.647671 -1.189274 0
M  V30 45 H -1.984516 3.957853 -1.641680 0
M  V30 46 H -3.693230 2.138945 -1.755750 0
M  V30 47 H -5.281644 -4.238180 -0.959907 0
M  V30 48 H -3.397652 -5.518492 -0.201752 0
M  V30 49 H -1.216668 -4.340896 0.164006 0
M  V30 50 H -1.085772 -1.939392 -0.262678 0
M  V30 END ATOM
M  V30 BEGIN BOND
M  V30 1 1 1 2
M  V30 2 1 2 3
M  V30 3 1 3 4
M  V30 4 1 4 5
M  V30 5 1 4 6
M  V30 6 1 4 7
M  V30 7 1 7 8
M  V30 8 1 8 9
M  V30 9 2 9 10
M  V30 10 1 10 11
M  V30 11 2 11 12
M  V30 12 1 12 13
M  V30 13 2 13 14
M  V30 14 1 14 15
M  V30 15 2 15 16
M  V30 16 1 16 17
M  V30 17 2 17 18
M  V30 18 1 18 19
M  V30 19 2 19 20
M  V30 20 1 20 21
M  V30 21 2 21 22
M  V30 22 1 22 23
M  V30 23 2 23 24
M  V30 24 1 24 25
M  V30 25 1 16 26
M  V30 26 2 26 27
M  V30 27 1 27 9
M  V30 28 1 27 13
M  V30 29 1 25 17
M  V30 30 1 25 20
M  V30 31 1 1 28
M  V30 32 1 1 29
M  V30 33 1 1 30
M  V30 34 1 2 31
M  V30 35 1 3 32
M  V30 36 1 3 33
M  V30 37 1 5 34
M  V30 38 1 5 35
M  V30 39 1 5 36
M  V30 40 1 6 37
M  V30 41 1 6 38
M  V30 42 1 6 39
M  V30 43 1 7 40
M  V30 44 1 7 41
M  V30 45 1 10 42
M  V30 46 1 11 43
M  V30 47 1 12 44
M  V30 48 1 14 45
M  V30 49 1 15 46
M  V30 50 1 21 47
M  V30 51 1 22 48
M  V30 52 1 23 49
M  V30 53 1 24 50
M  V30 END BOND
M  V30 END CTAB
M  END
>  <Dataset>  (669) 
ChEMBL_Kinases

>  <Ligand_Instance>  (669) 
nan

>  <PDB_ID>  (669) 
nan

>  <Standardized_SMILES>  (669) 
CNCC(C)(C)COc1cccc2ccc(-c3nnc4ccccn34)nc12

>  <Name>  (669) 
nan

>  <Pocket>  (669) 
nan

>  <ATP_Site>  (669) 
nan

>  <Peripheral>  (669) 
nan

>  <Num_H_Atoms_ProtBoundConf>  (669) 
nan

>  <Num_Resolved_Atoms>  (669) 
nan

>  <Num_Not_Resolved_Atoms>  (669) 
nan

$$$$
CHEMBL3660032
     RDKit          3D

  0  0  0  0  0  0  0  0  0  0999 V3000
M  V30 BEGIN CTAB
M  V30 COUNTS 53 56 0 0 0
M  V30 BEGIN ATOM
M  V30 1 C 1.322920 -3.389442 0.953059 0
M  V30 2 C 2.231365 -2.391346 1.634573 0
M  V30 3 N 1.592412 -1.080166 1.694499 0
M  V30 4 C 2.494841 -0.172597 2.336375 0
M  V30 5 C 1.978846 1.229704 2.465318 0
M  V30 6 C 0.700993 1.290457 3.277078 0
M  V30 7 C 3.007011 2.101949 3.124116 0
M  V30 8 C 1.682008 1.782967 1.096881 0
M  V30 9 O 0.693723 0.973693 0.479834 0
M  V30 10 C 0.231360 1.250370 -0.810410 0
M  V30 11 C 0.786522 2.349631 -1.469205 0
M  V30 12 C 0.446364 2.758467 -2.740234 0
M  V30 13 C -0.514409 2.012504 -3.389280 0
M  V30 14 C -1.080117 0.922574 -2.763757 0
M  V30 15 C -2.039033 0.215044 -3.456982 0
M  V30 16 C -2.569455 -0.860219 -2.775406 0
M  V30 17 C -2.216810 -1.266231 -1.482895 0
M  V30 18 C -2.907759 -2.429393 -0.938734 0
M  V30 19 N -3.847176 -3.187683 -1.541549 0
M  V30 20 N -4.241812 -4.149222 -0.730843 0
M  V30 21 C -3.570935 -4.035597 0.407897 0
M  V30 22 C -3.680554 -4.834827 1.517573 0
M  V30 23 C -2.869356 -4.525532 2.614807 0
M  V30 24 C -2.037305 -3.443237 2.469477 0
M  V30 25 C -1.970846 -2.677814 1.329894 0
M  V30 26 N -2.750214 -2.977227 0.279551 0
M  V30 27 N -1.276067 -0.543588 -0.848629 0
M  V30 28 C -0.727474 0.527155 -1.489727 0
M  V30 29 H 0.714330 -3.949304 1.714258 0
M  V30 30 H 1.970020 -4.144369 0.425542 0
M  V30 31 H 0.702508 -2.871335 0.207914 0
M  V30 32 H 2.365577 -2.724774 2.680963 0
M  V30 33 H 3.211726 -2.341181 1.150969 0
M  V30 34 H 0.716893 -1.142422 2.262575 0
M  V30 35 H 3.472837 -0.180380 1.809981 0
M  V30 36 H 2.698442 -0.553259 3.378601 0
M  V30 37 H 0.891571 0.831428 4.261521 0
M  V30 38 H -0.108732 0.684413 2.791158 0
M  V30 39 H 0.356813 2.326677 3.341345 0
M  V30 40 H 2.521664 3.048513 3.408862 0
M  V30 41 H 3.846925 2.340761 2.449568 0
M  V30 42 H 3.465219 1.604630 4.021636 0
M  V30 43 H 1.381386 2.843656 1.142925 0
M  V30 44 H 2.580003 1.747431 0.435871 0
M  V30 45 H 1.548986 2.933700 -0.941689 0
M  V30 46 H 0.928077 3.625882 -3.178087 0
M  V30 47 H -0.824605 2.278211 -4.383306 0
M  V30 48 H -2.376887 0.447690 -4.451536 0
M  V30 49 H -3.330850 -1.433239 -3.308226 0
M  V30 50 H -4.358519 -5.677975 1.571374 0
M  V30 51 H -2.928515 -5.132136 3.505999 0
M  V30 52 H -1.405038 -3.198824 3.319796 0
M  V30 53 H -1.322809 -1.828172 1.206310 0
M  V30 END ATOM
M  V30 BEGIN BOND
M  V30 1 1 1 2
M  V30 2 1 2 3
M  V30 3 1 3 4
M  V30 4 1 4 5
M  V30 5 1 5 6
M  V30 6 1 5 7
M  V30 7 1 5 8
M  V30 8 1 8 9
M  V30 9 1 9 10
M  V30 10 2 10 11
M  V30 11 1 11 12
M  V30 12 2 12 13
M  V30 13 1 13 14
M  V30 14 2 14 15
M  V30 15 1 15 16
M  V30 16 2 16 17
M  V30 17 1 17 18
M  V30 18 2 18 19
M  V30 19 1 19 20
M  V30 20 2 20 21
M  V30 21 1 21 22
M  V30 22 2 22 23
M  V30 23 1 23 24
M  V30 24 2 24 25
M  V30 25 1 25 26
M  V30 26 1 17 27
M  V30 27 2 27 28
M  V30 28 1 28 10
M  V30 29 1 28 14
M  V30 30 1 26 18
M  V30 31 1 26 21
M  V30 32 1 1 29
M  V30 33 1 1 30
M  V30 34 1 1 31
M  V30 35 1 2 32
M  V30 36 1 2 33
M  V30 37 1 3 34
M  V30 38 1 4 35
M  V30 39 1 4 36
M  V30 40 1 6 37
M  V30 41 1 6 38
M  V30 42 1 6 39
M  V30 43 1 7 40
M  V30 44 1 7 41
M  V30 45 1 7 42
M  V30 46 1 8 43
M  V30 47 1 8 44
M  V30 48 1 11 45
M  V30 49 1 12 46
M  V30 50 1 13 47
M  V30 51 1 15 48
M  V30 52 1 16 49
M  V30 53 1 22 50
M  V30 54 1 23 51
M  V30 55 1 24 52
M  V30 56 1 25 53
M  V30 END BOND
M  V30 END CTAB
M  END
>  <Dataset>  (670) 
ChEMBL_Kinases

>  <Ligand_Instance>  (670) 
nan

>  <PDB_ID>  (670) 
nan

>  <Standardized_SMILES>  (670) 
CCNCC(C)(C)COc1cccc2ccc(-c3nnc4ccccn34)nc12

>  <Name>  (670) 
nan

>  <Pocket>  (670) 
nan

>  <ATP_Site>  (670) 
nan

>  <Peripheral>  (670) 
nan

>  <Num_H_Atoms_ProtBoundConf>  (670) 
nan

>  <Num_Resolved_Atoms>  (670) 
nan

>  <Num_Not_Resolved_Atoms>  (670) 
nan

$$$$
CHEMBL3604795
     RDKit          3D

  0  0  0  0  0  0  0  0  0  0999 V3000
M  V30 BEGIN CTAB
M  V30 COUNTS 35 37 0 0 0
M  V30 BEGIN ATOM
M  V30 1 C -0.874349 -4.728428 3.196309 0
M  V30 2 O 0.236918 -4.555535 2.338252 0
M  V30 3 C 0.571069 -3.264177 1.954577 0
M  V30 4 C 1.668095 -3.102889 1.108812 0
M  V30 5 C 2.012327 -1.803583 0.716699 0
M  V30 6 C 1.278988 -0.693366 1.158411 0
M  V30 7 C 1.798940 0.531455 0.641834 0
M  V30 8 C 3.116554 0.888150 0.960117 0
M  V30 9 C 3.581955 2.079171 0.440032 0
M  V30 10 N 2.872245 2.922094 -0.345976 0
M  V30 11 C 1.585792 2.610010 -0.678033 0
M  V30 12 C 1.121304 1.424529 -0.160973 0
M  V30 13 C -0.272497 1.087162 -0.520792 0
M  V30 14 C -0.733026 -0.003461 -1.233542 0
M  V30 15 C -2.091722 -0.104240 -1.449646 0
M  V30 16 F -2.489075 -1.190685 -2.152285 0
M  V30 17 C -2.968333 0.839250 -0.978629 0
M  V30 18 O -4.326342 0.682705 -1.228290 0
M  V30 19 C -2.529181 1.949821 -0.256222 0
M  V30 20 F -3.422971 2.860048 0.192005 0
M  V30 21 C -1.149440 2.043670 -0.041952 0
M  V30 22 C 0.208637 -0.937940 1.992347 0
M  V30 23 N -0.138621 -2.178274 2.380844 0
M  V30 24 H -1.266310 -3.740930 3.566780 0
M  V30 25 H -0.669671 -5.425182 4.043248 0
M  V30 26 H -1.720066 -5.207477 2.626904 0
M  V30 27 H 2.213096 -3.966905 0.783901 0
M  V30 28 H 2.873540 -1.776123 0.063153 0
M  V30 29 H 3.736067 0.262812 1.580799 0
M  V30 30 H 4.610814 2.368492 0.681748 0
M  V30 31 H 0.968402 3.241113 -1.301306 0
M  V30 32 H 0.057155 -0.670871 -1.547412 0
M  V30 33 H -4.764663 -0.211991 -1.316718 0
M  V30 34 H -0.896498 2.933953 0.525530 0
M  V30 35 H -0.304971 -0.033832 2.288764 0
M  V30 END ATOM
M  V30 BEGIN BOND
M  V30 1 1 1 2
M  V30 2 1 2 3
M  V30 3 2 3 4
M  V30 4 1 4 5
M  V30 5 2 5 6
M  V30 6 1 6 7
M  V30 7 2 7 8
M  V30 8 1 8 9
M  V30 9 2 9 10
M  V30 10 1 10 11
M  V30 11 2 11 12
M  V30 12 1 12 13
M  V30 13 2 13 14
M  V30 14 1 14 15
M  V30 15 1 15 16
M  V30 16 2 15 17
M  V30 17 1 17 18
M  V30 18 1 17 19
M  V30 19 1 19 20
M  V30 20 2 19 21
M  V30 21 1 6 22
M  V30 22 2 22 23
M  V30 23 1 23 3
M  V30 24 1 12 7
M  V30 25 1 21 13
M  V30 26 1 1 24
M  V30 27 1 1 25
M  V30 28 1 1 26
M  V30 29 1 4 27
M  V30 30 1 5 28
M  V30 31 1 8 29
M  V30 32 1 9 30
M  V30 33 1 11 31
M  V30 34 1 14 32
M  V30 35 1 18 33
M  V30 36 1 21 34
M  V30 37 1 22 35
M  V30 END BOND
M  V30 END CTAB
M  END
>  <Dataset>  (671) 
ChEMBL_Kinases

>  <Ligand_Instance>  (671) 
nan

>  <PDB_ID>  (671) 
nan

>  <Standardized_SMILES>  (671) 
COc1ccc(-c2ccncc2-c2cc(F)c(O)c(F)c2)cn1

>  <Name>  (671) 
nan

>  <Pocket>  (671) 
nan

>  <ATP_Site>  (671) 
nan

>  <Peripheral>  (671) 
nan

>  <Num_H_Atoms_ProtBoundConf>  (671) 
nan

>  <Num_Resolved_Atoms>  (671) 
nan

>  <Num_Not_Resolved_Atoms>  (671) 
nan

$$$$
CHEMBL4079572
     RDKit          3D

  0  0  0  0  0  0  0  0  0  0999 V3000
M  V30 BEGIN CTAB
M  V30 COUNTS 25 27 0 0 0
M  V30 BEGIN ATOM
M  V30 1 N -0.033700 -2.749373 4.637917 0
M  V30 2 C 0.348622 -2.657823 3.253693 0
M  V30 3 N 0.888148 -3.684408 2.579223 0
M  V30 4 C 1.221332 -3.523436 1.283231 0
M  V30 5 C 0.970705 -2.283045 0.752048 0
M  V30 6 C 0.429781 -1.196166 1.365872 0
M  V30 7 C 0.129265 0.122218 0.878498 0
M  V30 8 C -0.537437 1.037311 1.702610 0
M  V30 9 N -0.702191 2.191756 1.044824 0
M  V30 10 C -0.191751 2.136152 -0.183612 0
M  V30 11 C -0.071563 2.982959 -1.260269 0
M  V30 12 N 0.537217 2.571183 -2.393229 0
M  V30 13 C 1.040370 1.306632 -2.479861 0
M  V30 14 C 0.921162 0.471990 -1.417248 0
M  V30 15 C 0.309455 0.857017 -0.253876 0
M  V30 16 N 0.146750 -1.493931 2.643951 0
M  V30 17 H 0.572571 -2.855434 5.485420 0
M  V30 18 H -1.071177 -2.698556 4.770215 0
M  V30 19 H 1.657451 -4.313773 0.693942 0
M  V30 20 H 1.240773 -2.196905 -0.280924 0
M  V30 21 H -0.916197 0.965544 2.719375 0
M  V30 22 H -1.166917 3.074870 1.390354 0
M  V30 23 H -0.493181 3.978106 -1.128134 0
M  V30 24 H 1.513582 1.045861 -3.414425 0
M  V30 25 H 1.342375 -0.493387 -1.559631 0
M  V30 END ATOM
M  V30 BEGIN BOND
M  V30 1 1 1 2
M  V30 2 2 2 3
M  V30 3 1 3 4
M  V30 4 2 4 5
M  V30 5 1 5 6
M  V30 6 1 6 7
M  V30 7 2 7 8
M  V30 8 1 8 9
M  V30 9 1 9 10
M  V30 10 2 10 11
M  V30 11 1 11 12
M  V30 12 2 12 13
M  V30 13 1 13 14
M  V30 14 2 14 15
M  V30 15 2 6 16
M  V30 16 1 16 2
M  V30 17 1 15 7
M  V30 18 1 15 10
M  V30 19 1 1 17
M  V30 20 1 1 18
M  V30 21 1 4 19
M  V30 22 1 5 20
M  V30 23 1 8 21
M  V30 24 1 9 22
M  V30 25 1 11 23
M  V30 26 1 13 24
M  V30 27 1 14 25
M  V30 END BOND
M  V30 END CTAB
M  END
>  <Dataset>  (672) 
ChEMBL_Kinases

>  <Ligand_Instance>  (672) 
nan

>  <PDB_ID>  (672) 
nan

>  <Standardized_SMILES>  (672) 
Nc1nccc(-c2c[nH]c3cnccc23)n1

>  <Name>  (672) 
nan

>  <Pocket>  (672) 
nan

>  <ATP_Site>  (672) 
nan

>  <Peripheral>  (672) 
nan

>  <Num_H_Atoms_ProtBoundConf>  (672) 
nan

>  <Num_Resolved_Atoms>  (672) 
nan

>  <Num_Not_Resolved_Atoms>  (672) 
nan

$$$$
CHEMBL3660031
     RDKit          3D

  0  0  0  0  0  0  0  0  0  0999 V3000
M  V30 BEGIN CTAB
M  V30 COUNTS 45 49 0 0 0
M  V30 BEGIN ATOM
M  V30 1 F 3.990341 -3.021030 -0.405642 0
M  V30 2 C 2.698560 -2.921291 0.000740 0 CFG=2
M  V30 3 C 1.809253 -4.065213 -0.411812 0
M  V30 4 N 1.693139 -4.214021 -1.848710 0
M  V30 5 C 2.272894 -3.084956 -2.540237 0
M  V30 6 C 1.798191 -1.770216 -2.017740 0
M  V30 7 C 2.008530 -1.636024 -0.501967 0
M  V30 8 O 2.802919 -0.575124 -0.190024 0
M  V30 9 C 2.765825 0.524558 0.572836 0
M  V30 10 C 3.878381 1.391935 0.566604 0
M  V30 11 C 3.678885 2.460191 1.385193 0
M  V30 12 C 2.662759 2.864084 2.192351 0
M  V30 13 C 1.649336 1.935832 2.109207 0
M  V30 14 C 0.530866 2.209131 2.917698 0
M  V30 15 C -0.563275 1.377865 2.975748 0
M  V30 16 C -0.535117 0.249273 2.205405 0
M  V30 17 C -1.374999 -0.999965 2.120587 0
M  V30 18 N -2.060345 -2.019205 2.051414 0
M  V30 19 N -3.284771 -2.168511 1.969358 0
M  V30 20 C -3.872890 -0.925566 1.960032 0
M  V30 21 C -5.196593 -0.704108 1.840202 0
M  V30 22 C -5.457782 0.630832 1.779082 0
M  V30 23 C -4.462283 1.562320 1.835564 0
M  V30 24 C -3.186014 1.013321 1.961513 0
M  V30 25 N -2.649142 -0.302238 2.051303 0
M  V30 26 N 0.527893 -0.012248 1.433412 0
M  V30 27 C 1.604048 0.755535 1.343203 0
M  V30 28 H 2.678497 -2.898388 1.114391 0
M  V30 29 H 2.073142 -5.011378 0.106918 0
M  V30 30 H 0.782000 -3.790142 -0.034827 0
M  V30 31 H 0.671029 -4.208939 -2.135453 0
M  V30 32 H 3.375070 -3.102399 -2.598251 0
M  V30 33 H 1.926925 -3.155574 -3.598063 0
M  V30 34 H 2.393463 -0.979370 -2.547156 0
M  V30 35 H 0.747196 -1.602305 -2.313133 0
M  V30 36 H 0.997200 -1.699978 -0.068205 0
M  V30 37 H 4.723361 1.148044 -0.043599 0
M  V30 38 H 4.562451 3.144372 1.368446 0
M  V30 39 H 2.680601 3.758651 2.780400 0
M  V30 40 H 0.442389 3.082633 3.551977 0
M  V30 41 H -1.421419 1.464092 3.601613 0
M  V30 42 H -5.885298 -1.520859 1.801636 0
M  V30 43 H -6.469175 0.926574 1.690441 0
M  V30 44 H -4.637303 2.602743 1.784828 0
M  V30 45 H -2.539906 1.914060 1.902862 0
M  V30 END ATOM
M  V30 BEGIN BOND
M  V30 1 1 1 2
M  V30 2 1 2 3
M  V30 3 1 3 4
M  V30 4 1 4 5
M  V30 5 1 5 6
M  V30 6 1 6 7
M  V30 7 1 7 8
M  V30 8 1 8 9
M  V30 9 2 9 10
M  V30 10 1 10 11
M  V30 11 2 11 12
M  V30 12 1 12 13
M  V30 13 2 13 14
M  V30 14 1 14 15
M  V30 15 2 15 16
M  V30 16 1 16 17
M  V30 17 2 17 18
M  V30 18 1 18 19
M  V30 19 2 19 20
M  V30 20 1 20 21
M  V30 21 2 21 22
M  V30 22 1 22 23
M  V30 23 2 23 24
M  V30 24 1 24 25
M  V30 25 1 16 26
M  V30 26 2 26 27
M  V30 27 1 7 2
M  V30 28 1 27 9
M  V30 29 1 27 13
M  V30 30 1 25 17
M  V30 31 1 25 20
M  V30 32 1 2 28 CFG=1
M  V30 33 1 3 29
M  V30 34 1 3 30
M  V30 35 1 4 31
M  V30 36 1 5 32
M  V30 37 1 5 33
M  V30 38 1 6 34
M  V30 39 1 6 35
M  V30 40 1 7 36
M  V30 41 1 10 37
M  V30 42 1 11 38
M  V30 43 1 12 39
M  V30 44 1 14 40
M  V30 45 1 15 41
M  V30 46 1 21 42
M  V30 47 1 22 43
M  V30 48 1 23 44
M  V30 49 1 24 45
M  V30 END BOND
M  V30 END CTAB
M  END
>  <Dataset>  (673) 
ChEMBL_Kinases

>  <Ligand_Instance>  (673) 
nan

>  <PDB_ID>  (673) 
nan

>  <Standardized_SMILES>  (673) 
F[C@@H]1CNCCC1Oc1cccc2ccc(-c3nnc4ccccn34)nc12

>  <Name>  (673) 
nan

>  <Pocket>  (673) 
nan

>  <ATP_Site>  (673) 
nan

>  <Peripheral>  (673) 
nan

>  <Num_H_Atoms_ProtBoundConf>  (673) 
nan

>  <Num_Resolved_Atoms>  (673) 
nan

>  <Num_Not_Resolved_Atoms>  (673) 
nan

$$$$
CHEMBL3660030
     RDKit          3D

  0  0  0  0  0  0  0  0  0  0999 V3000
M  V30 BEGIN CTAB
M  V30 COUNTS 45 49 0 0 0
M  V30 BEGIN ATOM
M  V30 1 F 2.958616 -2.020106 1.589418 0
M  V30 2 C 3.355013 -2.512108 0.367181 0 CFG=1
M  V30 3 C 3.208196 -3.992501 0.363689 0
M  V30 4 N 2.889075 -4.556212 -0.904597 0
M  V30 5 C 1.731656 -3.990634 -1.525079 0
M  V30 6 C 1.318759 -2.663850 -0.927564 0
M  V30 7 C 2.572779 -1.819400 -0.768934 0
M  V30 8 O 2.417331 -0.558984 -0.458080 0
M  V30 9 C 2.305735 0.686461 -0.186937 0
M  V30 10 C 3.168988 1.626649 -0.711090 0
M  V30 11 C 3.077382 2.965377 -0.435845 0
M  V30 12 C 2.054089 3.347461 0.413200 0
M  V30 13 C 1.190555 2.438846 0.940738 0
M  V30 14 C 0.194973 2.901151 1.766864 0
M  V30 15 C -0.681125 1.997913 2.286046 0
M  V30 16 C -0.638470 0.666862 2.038730 0
M  V30 17 C -1.252912 -0.603585 2.366107 0
M  V30 18 N -1.788638 -1.710764 2.651524 0
M  V30 19 N -2.966831 -2.020396 2.801901 0
M  V30 20 C -3.731795 -0.894467 2.598491 0
M  V30 21 C -5.078588 -0.888332 2.647766 0
M  V30 22 C -5.567858 0.346930 2.322204 0
M  V30 23 C -4.730509 1.369024 2.004086 0
M  V30 24 C -3.392740 1.046841 2.043922 0
M  V30 25 N -2.624107 -0.112213 2.343487 0
M  V30 26 N 0.371032 0.247738 1.215949 0
M  V30 27 C 1.261983 1.074582 0.676048 0
M  V30 28 H 4.406874 -2.204993 0.245123 0
M  V30 29 H 2.521812 -4.324154 1.203390 0
M  V30 30 H 4.222703 -4.397235 0.667995 0
M  V30 31 H 2.717713 -5.586588 -0.776544 0
M  V30 32 H 1.883470 -3.924470 -2.627054 0
M  V30 33 H 0.838659 -4.673020 -1.429360 0
M  V30 34 H 0.573072 -2.213096 -1.612385 0
M  V30 35 H 0.890318 -2.872638 0.080820 0
M  V30 36 H 3.206401 -2.047091 -1.695627 0
M  V30 37 H 3.965937 1.328381 -1.370716 0
M  V30 38 H 3.773149 3.679554 -0.863848 0
M  V30 39 H 1.960238 4.392711 0.644160 0
M  V30 40 H 0.002701 3.905696 2.068608 0
M  V30 41 H -1.448871 2.208844 3.002600 0
M  V30 42 H -5.644816 -1.759461 2.910880 0
M  V30 43 H -6.637338 0.421976 2.342944 0
M  V30 44 H -5.103675 2.336134 1.745540 0
M  V30 45 H -2.922099 1.984162 1.664396 0
M  V30 END ATOM
M  V30 BEGIN BOND
M  V30 1 1 1 2
M  V30 2 1 2 3
M  V30 3 1 3 4
M  V30 4 1 4 5
M  V30 5 1 5 6
M  V30 6 1 6 7
M  V30 7 1 7 8
M  V30 8 1 8 9
M  V30 9 2 9 10
M  V30 10 1 10 11
M  V30 11 2 11 12
M  V30 12 1 12 13
M  V30 13 2 13 14
M  V30 14 1 14 15
M  V30 15 2 15 16
M  V30 16 1 16 17
M  V30 17 2 17 18
M  V30 18 1 18 19
M  V30 19 2 19 20
M  V30 20 1 20 21
M  V30 21 2 21 22
M  V30 22 1 22 23
M  V30 23 2 23 24
M  V30 24 1 24 25
M  V30 25 1 16 26
M  V30 26 2 26 27
M  V30 27 1 7 2
M  V30 28 1 27 9
M  V30 29 1 27 13
M  V30 30 1 25 17
M  V30 31 1 25 20
M  V30 32 1 2 28 CFG=3
M  V30 33 1 3 29
M  V30 34 1 3 30
M  V30 35 1 4 31
M  V30 36 1 5 32
M  V30 37 1 5 33
M  V30 38 1 6 34
M  V30 39 1 6 35
M  V30 40 1 7 36
M  V30 41 1 10 37
M  V30 42 1 11 38
M  V30 43 1 12 39
M  V30 44 1 14 40
M  V30 45 1 15 41
M  V30 46 1 21 42
M  V30 47 1 22 43
M  V30 48 1 23 44
M  V30 49 1 24 45
M  V30 END BOND
M  V30 END CTAB
M  END
>  <Dataset>  (674) 
ChEMBL_Kinases

>  <Ligand_Instance>  (674) 
nan

>  <PDB_ID>  (674) 
nan

>  <Standardized_SMILES>  (674) 
F[C@H]1CNCCC1Oc1cccc2ccc(-c3nnc4ccccn34)nc12

>  <Name>  (674) 
nan

>  <Pocket>  (674) 
nan

>  <ATP_Site>  (674) 
nan

>  <Peripheral>  (674) 
nan

>  <Num_H_Atoms_ProtBoundConf>  (674) 
nan

>  <Num_Resolved_Atoms>  (674) 
nan

>  <Num_Not_Resolved_Atoms>  (674) 
nan

$$$$
CHEMBL3660029
     RDKit          3D

  0  0  0  0  0  0  0  0  0  0999 V3000
M  V30 BEGIN CTAB
M  V30 COUNTS 46 49 0 0 0
M  V30 BEGIN ATOM
M  V30 1 C 1.468138 -1.453959 3.241907 0
M  V30 2 C 2.077182 -2.406836 2.268530 0
M  V30 3 C 1.530577 -3.798708 2.655983 0
M  V30 4 C 3.552090 -2.493109 2.415813 0
M  V30 5 O 4.244459 -1.314232 2.240894 0
M  V30 6 C 1.583597 -2.130964 0.861242 0
M  V30 7 O 1.837881 -0.944699 0.383744 0
M  V30 8 C 2.084942 0.207815 -0.080169 0
M  V30 9 C 3.371914 0.678493 -0.262522 0
M  V30 10 C 3.656979 1.931374 -0.768194 0
M  V30 11 C 2.584237 2.733639 -1.100411 0
M  V30 12 C 1.272966 2.334966 -0.947611 0
M  V30 13 C 0.271608 3.210782 -1.307830 0
M  V30 14 C -0.999041 2.714748 -1.113773 0
M  V30 15 C -1.301176 1.465903 -0.609498 0
M  V30 16 C -2.698606 1.076584 -0.456627 0
M  V30 17 N -3.754483 1.864074 -0.780712 0
M  V30 18 N -4.866609 1.205379 -0.515625 0
M  V30 19 C -4.588294 -0.029660 -0.011518 0
M  V30 20 C -5.362013 -1.088541 0.417699 0
M  V30 21 C -4.741281 -2.244364 0.890538 0
M  V30 22 C -3.359126 -2.285066 0.911221 0
M  V30 23 C -2.676993 -1.175398 0.461081 0
M  V30 24 N -3.245177 -0.040526 -0.003057 0
M  V30 25 N -0.258495 0.672652 -0.282652 0
M  V30 26 C 1.034632 1.063730 -0.434079 0
M  V30 27 H 0.494722 -1.827794 3.633455 0
M  V30 28 H 2.115890 -1.350346 4.154917 0
M  V30 29 H 1.343226 -0.451711 2.785161 0
M  V30 30 H 0.439573 -3.783370 2.732906 0
M  V30 31 H 1.945726 -4.573067 1.989324 0
M  V30 32 H 1.952710 -4.001252 3.665618 0
M  V30 33 H 3.914074 -3.297751 1.722726 0
M  V30 34 H 3.786216 -2.837456 3.455375 0
M  V30 35 H 3.736983 -0.591586 2.675415 0
M  V30 36 H 1.902989 -3.023206 0.234237 0
M  V30 37 H 0.453416 -2.319530 0.946096 0
M  V30 38 H 4.276592 0.122352 -0.038673 0
M  V30 39 H 4.654335 2.322047 -0.919656 0
M  V30 40 H 2.765831 3.710354 -1.494972 0
M  V30 41 H 0.482435 4.186346 -1.701980 0
M  V30 42 H -1.825837 3.388777 -1.391408 0
M  V30 43 H -6.438293 -1.000673 0.379104 0
M  V30 44 H -5.350199 -3.072373 1.226052 0
M  V30 45 H -2.871775 -3.166913 1.272041 0
M  V30 46 H -1.610225 -1.233397 0.487791 0
M  V30 END ATOM
M  V30 BEGIN BOND
M  V30 1 1 1 2
M  V30 2 1 2 3
M  V30 3 1 2 4
M  V30 4 1 4 5
M  V30 5 1 2 6
M  V30 6 1 6 7
M  V30 7 1 7 8
M  V30 8 2 8 9
M  V30 9 1 9 10
M  V30 10 2 10 11
M  V30 11 1 11 12
M  V30 12 2 12 13
M  V30 13 1 13 14
M  V30 14 2 14 15
M  V30 15 1 15 16
M  V30 16 2 16 17
M  V30 17 1 17 18
M  V30 18 2 18 19
M  V30 19 1 19 20
M  V30 20 2 20 21
M  V30 21 1 21 22
M  V30 22 2 22 23
M  V30 23 1 23 24
M  V30 24 1 15 25
M  V30 25 2 25 26
M  V30 26 1 26 8
M  V30 27 1 26 12
M  V30 28 1 24 16
M  V30 29 1 24 19
M  V30 30 1 1 27
M  V30 31 1 1 28
M  V30 32 1 1 29
M  V30 33 1 3 30
M  V30 34 1 3 31
M  V30 35 1 3 32
M  V30 36 1 4 33
M  V30 37 1 4 34
M  V30 38 1 5 35
M  V30 39 1 6 36
M  V30 40 1 6 37
M  V30 41 1 9 38
M  V30 42 1 10 39
M  V30 43 1 11 40
M  V30 44 1 13 41
M  V30 45 1 14 42
M  V30 46 1 20 43
M  V30 47 1 21 44
M  V30 48 1 22 45
M  V30 49 1 23 46
M  V30 END BOND
M  V30 END CTAB
M  END
>  <Dataset>  (675) 
ChEMBL_Kinases

>  <Ligand_Instance>  (675) 
nan

>  <PDB_ID>  (675) 
nan

>  <Standardized_SMILES>  (675) 
CC(C)(CO)COc1cccc2ccc(-c3nnc4ccccn34)nc12

>  <Name>  (675) 
nan

>  <Pocket>  (675) 
nan

>  <ATP_Site>  (675) 
nan

>  <Peripheral>  (675) 
nan

>  <Num_H_Atoms_ProtBoundConf>  (675) 
nan

>  <Num_Resolved_Atoms>  (675) 
nan

>  <Num_Not_Resolved_Atoms>  (675) 
nan

$$$$
CHEMBL3604881
     RDKit          3D

  0  0  0  0  0  0  0  0  0  0999 V3000
M  V30 BEGIN CTAB
M  V30 COUNTS 51 54 0 0 0
M  V30 BEGIN ATOM
M  V30 1 C -0.240480 -6.399094 1.887066 0
M  V30 2 N 0.451793 -5.228378 1.443931 0
M  V30 3 C 1.851755 -5.190103 1.781240 0
M  V30 4 C 2.273388 -3.726091 1.780773 0
M  V30 5 N 1.686699 -3.088961 0.619767 0
M  V30 6 C 1.418580 -1.694980 0.594104 0
M  V30 7 C 1.786103 -0.962242 1.695346 0
M  V30 8 C 1.509750 0.404437 1.646446 0
M  V30 9 C 0.898621 1.047888 0.571674 0
M  V30 10 C 0.657448 2.488395 0.628232 0
M  V30 11 C 1.721242 3.388707 0.738007 0
M  V30 12 C 1.499499 4.749409 0.791302 0
M  V30 13 N 2.595549 5.630085 0.901994 0
M  V30 14 N 0.242219 5.195110 0.735963 0
M  V30 15 C -0.786731 4.329965 0.630125 0
M  V30 16 C -0.642838 2.953452 0.571167 0
M  V30 17 C -1.807445 2.081166 0.456388 0
M  V30 18 C -2.535025 2.328085 -0.712087 0
M  V30 19 C -3.684765 1.611265 -1.024970 0
M  V30 20 F -4.413175 1.812881 -2.131421 0
M  V30 21 C -4.089165 0.638545 -0.136811 0
M  V30 22 O -5.237663 -0.096725 -0.422680 0
M  V30 23 C -3.374628 0.387130 1.023055 0
M  V30 24 F -3.750792 -0.566368 1.916699 0
M  V30 25 C -2.228039 1.104256 1.331954 0
M  V30 26 C 0.542619 0.262745 -0.525763 0
M  V30 27 C 0.813852 -1.089232 -0.482092 0
M  V30 28 C 1.442662 -4.052707 -0.432898 0
M  V30 29 C 0.285573 -4.937138 0.033013 0
M  V30 30 H 0.386787 -7.113897 2.442431 0
M  V30 31 H -0.759180 -6.955749 1.057326 0
M  V30 32 H -1.069927 -6.068842 2.555397 0
M  V30 33 H 1.985900 -5.646187 2.785286 0
M  V30 34 H 2.443604 -5.745958 1.034338 0
M  V30 35 H 1.821142 -3.291495 2.703344 0
M  V30 36 H 3.379345 -3.655541 1.781140 0
M  V30 37 H 2.264748 -1.314846 2.596823 0
M  V30 38 H 1.775366 1.034678 2.483407 0
M  V30 39 H 2.734566 2.999768 0.781191 0
M  V30 40 H 2.991361 6.349803 0.241411 0
M  V30 41 H 3.026177 5.461229 1.843776 0
M  V30 42 H -1.743929 4.802296 0.594415 0
M  V30 43 H -2.294593 3.075357 -1.474042 0
M  V30 44 H -5.574491 -0.196009 -1.373568 0
M  V30 45 H -1.604444 0.991144 2.196653 0
M  V30 46 H 0.066910 0.746165 -1.369588 0
M  V30 47 H 0.515738 -1.639724 -1.357218 0
M  V30 48 H 2.349803 -4.643094 -0.675708 0
M  V30 49 H 1.129396 -3.575776 -1.382702 0
M  V30 50 H -0.622956 -4.297084 -0.054546 0
M  V30 51 H 0.159771 -5.824446 -0.594429 0
M  V30 END ATOM
M  V30 BEGIN BOND
M  V30 1 1 1 2
M  V30 2 1 2 3
M  V30 3 1 3 4
M  V30 4 1 4 5
M  V30 5 1 5 6
M  V30 6 2 6 7
M  V30 7 1 7 8
M  V30 8 2 8 9
M  V30 9 1 9 10
M  V30 10 2 10 11
M  V30 11 1 11 12
M  V30 12 1 12 13
M  V30 13 2 12 14
M  V30 14 1 14 15
M  V30 15 2 15 16
M  V30 16 1 16 17
M  V30 17 2 17 18
M  V30 18 1 18 19
M  V30 19 1 19 20
M  V30 20 2 19 21
M  V30 21 1 21 22
M  V30 22 1 21 23
M  V30 23 1 23 24
M  V30 24 2 23 25
M  V30 25 1 9 26
M  V30 26 2 26 27
M  V30 27 1 5 28
M  V30 28 1 28 29
M  V30 29 1 29 2
M  V30 30 1 27 6
M  V30 31 1 16 10
M  V30 32 1 25 17
M  V30 33 1 1 30
M  V30 34 1 1 31
M  V30 35 1 1 32
M  V30 36 1 3 33
M  V30 37 1 3 34
M  V30 38 1 4 35
M  V30 39 1 4 36
M  V30 40 1 7 37
M  V30 41 1 8 38
M  V30 42 1 11 39
M  V30 43 1 13 40
M  V30 44 1 13 41
M  V30 45 1 15 42
M  V30 46 1 18 43
M  V30 47 1 22 44
M  V30 48 1 25 45
M  V30 49 1 26 46
M  V30 50 1 27 47
M  V30 51 1 28 48
M  V30 52 1 28 49
M  V30 53 1 29 50
M  V30 54 1 29 51
M  V30 END BOND
M  V30 END CTAB
M  END
>  <Dataset>  (676) 
ChEMBL_Kinases

>  <Ligand_Instance>  (676) 
nan

>  <PDB_ID>  (676) 
nan

>  <Standardized_SMILES>  (676) 
CN1CCN(c2ccc(-c3cc(N)ncc3-c3cc(F)c(O)c(F)c3)cc2)CC1

>  <Name>  (676) 
nan

>  <Pocket>  (676) 
nan

>  <ATP_Site>  (676) 
nan

>  <Peripheral>  (676) 
nan

>  <Num_H_Atoms_ProtBoundConf>  (676) 
nan

>  <Num_Resolved_Atoms>  (676) 
nan

>  <Num_Not_Resolved_Atoms>  (676) 
nan

$$$$
CHEMBL3605056
     RDKit          3D

  0  0  0  0  0  0  0  0  0  0999 V3000
M  V30 BEGIN CTAB
M  V30 COUNTS 51 53 0 0 0
M  V30 BEGIN ATOM
M  V30 1 N -1.396492 -2.141847 1.363218 0
M  V30 2 C -0.607518 -2.982445 0.478251 0
M  V30 3 C 0.132397 -2.180677 -0.547396 0
M  V30 4 C 0.977504 -3.071821 -1.457057 0
M  V30 5 N 1.941534 -3.825607 -0.649140 0
M  V30 6 C 2.922533 -3.260065 0.213283 0
M  V30 7 N 3.061628 -1.952886 0.383806 0
M  V30 8 C 3.954969 -1.341376 1.181120 0
M  V30 9 N 3.855545 0.071247 1.146263 0
M  V30 10 C 2.820286 1.010533 1.324171 0
M  V30 11 C 3.188343 2.318713 1.098161 0
M  V30 12 C 2.268611 3.332756 1.225779 0
M  V30 13 C 0.963256 3.073682 1.580878 0
M  V30 14 C 0.570496 1.780329 1.812435 0
M  V30 15 N -0.744400 1.344383 2.179679 0
M  V30 16 C -1.446109 1.118784 0.938422 0
M  V30 17 O -1.094590 1.245500 -0.276933 0
M  V30 18 N -2.777700 0.671406 0.741403 0
M  V30 19 C -3.191841 0.552024 -0.647948 0
M  V30 20 C -4.712183 0.537705 -0.631459 0
M  V30 21 C -5.042147 0.986437 0.778223 0
M  V30 22 C -3.934346 0.259832 1.551331 0
M  V30 23 C 1.517581 0.784897 1.675809 0
M  V30 24 N 4.788065 -2.119165 1.871071 0
M  V30 25 C 4.728923 -3.460795 1.767265 0
M  V30 26 C 3.797571 -4.067312 0.939334 0
M  V30 27 I 3.687714 -6.173931 0.770266 0
M  V30 28 H -0.892261 -1.907516 2.254457 0
M  V30 29 H -2.335988 -2.585802 1.555881 0
M  V30 30 H -1.354884 -3.632757 -0.067342 0
M  V30 31 H 0.127840 -3.589125 1.047788 0
M  V30 32 H -0.566984 -1.560972 -1.171011 0
M  V30 33 H 0.809886 -1.481022 -0.069260 0
M  V30 34 H 1.569083 -2.378802 -2.092019 0
M  V30 35 H 0.344541 -3.731736 -2.045391 0
M  V30 36 H 1.892357 -4.857295 -0.721566 0
M  V30 37 H 4.842024 0.311025 0.927705 0
M  V30 38 H 4.170850 2.619036 0.822180 0
M  V30 39 H 2.514992 4.372688 1.056642 0
M  V30 40 H 0.172441 3.797483 1.706478 0
M  V30 41 H -1.321464 1.149971 3.023007 0
M  V30 42 H -2.816612 -0.398068 -1.068541 0
M  V30 43 H -2.819891 1.363769 -1.287058 0
M  V30 44 H -5.085560 -0.522850 -0.710831 0
M  V30 45 H -5.139368 1.190728 -1.394168 0
M  V30 46 H -6.038795 0.691285 1.114648 0
M  V30 47 H -4.806080 2.060300 0.846248 0
M  V30 48 H -4.042337 -0.831322 1.401347 0
M  V30 49 H -3.876126 0.595624 2.585034 0
M  V30 50 H 1.250458 -0.245522 1.860869 0
M  V30 51 H 5.419954 -4.066131 2.339322 0
M  V30 END ATOM
M  V30 BEGIN BOND
M  V30 1 1 1 2
M  V30 2 1 2 3
M  V30 3 1 3 4
M  V30 4 1 4 5
M  V30 5 1 5 6
M  V30 6 2 6 7
M  V30 7 1 7 8
M  V30 8 1 8 9
M  V30 9 1 9 10
M  V30 10 2 10 11
M  V30 11 1 11 12
M  V30 12 2 12 13
M  V30 13 1 13 14
M  V30 14 1 14 15
M  V30 15 1 15 16
M  V30 16 2 16 17
M  V30 17 1 16 18
M  V30 18 1 18 19
M  V30 19 1 19 20
M  V30 20 1 20 21
M  V30 21 1 21 22
M  V30 22 2 14 23
M  V30 23 2 8 24
M  V30 24 1 24 25
M  V30 25 2 25 26
M  V30 26 1 26 27
M  V30 27 1 26 6
M  V30 28 1 23 10
M  V30 29 1 22 18
M  V30 30 1 1 28
M  V30 31 1 1 29
M  V30 32 1 2 30
M  V30 33 1 2 31
M  V30 34 1 3 32
M  V30 35 1 3 33
M  V30 36 1 4 34
M  V30 37 1 4 35
M  V30 38 1 5 36
M  V30 39 1 9 37
M  V30 40 1 11 38
M  V30 41 1 12 39
M  V30 42 1 13 40
M  V30 43 1 15 41
M  V30 44 1 19 42
M  V30 45 1 19 43
M  V30 46 1 20 44
M  V30 47 1 20 45
M  V30 48 1 21 46
M  V30 49 1 21 47
M  V30 50 1 22 48
M  V30 51 1 22 49
M  V30 52 1 23 50
M  V30 53 1 25 51
M  V30 END BOND
M  V30 END CTAB
M  END
>  <Dataset>  (677) 
ChEMBL_Kinases

>  <Ligand_Instance>  (677) 
nan

>  <PDB_ID>  (677) 
nan

>  <Standardized_SMILES>  (677) 
NCCCNc1nc(Nc2cccc(NC(=O)N3CCCC3)c2)ncc1I

>  <Name>  (677) 
nan

>  <Pocket>  (677) 
nan

>  <ATP_Site>  (677) 
nan

>  <Peripheral>  (677) 
nan

>  <Num_H_Atoms_ProtBoundConf>  (677) 
nan

>  <Num_Resolved_Atoms>  (677) 
nan

>  <Num_Not_Resolved_Atoms>  (677) 
nan

$$$$
CHEMBL3604883
     RDKit          3D

  0  0  0  0  0  0  0  0  0  0999 V3000
M  V30 BEGIN CTAB
M  V30 COUNTS 63 66 0 0 0
M  V30 BEGIN ATOM
M  V30 1 C 6.501113 -0.886322 1.232578 0
M  V30 2 C 6.219668 0.549259 1.697878 0
M  V30 3 C 7.546749 1.042601 2.238452 0
M  V30 4 C 5.778476 1.400853 0.527185 0
M  V30 5 N 4.592668 0.920715 -0.100197 0
M  V30 6 C 3.355831 0.791214 0.589674 0
M  V30 7 C 2.209499 0.327082 -0.024597 0
M  V30 8 C 0.979270 0.176638 0.583474 0
M  V30 9 C -0.161943 -0.319277 -0.148167 0
M  V30 10 C -0.148382 -1.582399 -0.723032 0
M  V30 11 C -1.197062 -2.125665 -1.434607 0
M  V30 12 C -2.348125 -1.386311 -1.601449 0
M  V30 13 N -3.498731 -1.823179 -2.307059 0
M  V30 14 C -4.744378 -1.118604 -2.541125 0
M  V30 15 C -5.815407 -1.745257 -1.716848 0
M  V30 16 N -5.697279 -3.173034 -1.765760 0
M  V30 17 C -5.062741 -3.727139 -0.594516 0
M  V30 18 C -4.984314 -3.659710 -2.934419 0
M  V30 19 C -3.544429 -3.160681 -2.926830 0
M  V30 20 C -2.385211 -0.128217 -1.039243 0
M  V30 21 C -1.333057 0.412228 -0.327515 0
M  V30 22 C 0.907415 0.527066 1.928171 0
M  V30 23 C -0.372843 0.385496 2.615231 0
M  V30 24 C -1.054085 -0.797297 2.819037 0
M  V30 25 C -2.265963 -0.819629 3.485708 0
M  V30 26 F -2.905121 -2.004896 3.665955 0
M  V30 27 C -2.810063 0.340142 3.956036 0
M  V30 28 O -4.035252 0.336605 4.632860 0
M  V30 29 C -2.198331 1.572292 3.797959 0
M  V30 30 F -2.677080 2.761937 4.236504 0
M  V30 31 C -0.985052 1.522330 3.119828 0
M  V30 32 C 2.054260 0.993644 2.550851 0
M  V30 33 N 3.234379 1.116638 1.890060 0
M  V30 34 H 5.528500 -1.452244 1.290412 0
M  V30 35 H 7.145104 -1.377945 1.982553 0
M  V30 36 H 6.867827 -0.929244 0.204976 0
M  V30 37 H 5.451762 0.478883 2.473164 0
M  V30 38 H 7.518941 2.067241 2.600999 0
M  V30 39 H 8.292418 0.978149 1.417931 0
M  V30 40 H 7.865439 0.384186 3.062760 0
M  V30 41 H 5.577098 2.412285 0.925323 0
M  V30 42 H 6.609545 1.430456 -0.204230 0
M  V30 43 H 4.599625 0.641461 -1.117614 0
M  V30 44 H 2.251493 0.049960 -1.074155 0
M  V30 45 H 0.719845 -2.243032 -0.644714 0
M  V30 46 H -1.151588 -3.114275 -1.869552 0
M  V30 47 H -5.018325 -1.228548 -3.620131 0
M  V30 48 H -4.647028 -0.026752 -2.393260 0
M  V30 49 H -6.840727 -1.475369 -2.040558 0
M  V30 50 H -5.635827 -1.431037 -0.648315 0
M  V30 51 H -4.310980 -3.040438 -0.146199 0
M  V30 52 H -5.846403 -3.995710 0.143990 0
M  V30 53 H -4.566302 -4.663067 -0.881421 0
M  V30 54 H -5.483410 -3.213633 -3.814737 0
M  V30 55 H -5.067967 -4.748625 -3.005717 0
M  V30 56 H -3.246834 -3.019744 -3.978024 0
M  V30 57 H -2.945749 -3.902887 -2.411065 0
M  V30 58 H -3.210336 0.566248 -1.083021 0
M  V30 59 H -1.314449 1.391583 0.130973 0
M  V30 60 H -0.585162 -1.690643 2.429181 0
M  V30 61 H -4.829040 -0.228685 4.320440 0
M  V30 62 H -0.477197 2.474966 2.978267 0
M  V30 63 H 1.939786 1.254766 3.609959 0
M  V30 END ATOM
M  V30 BEGIN BOND
M  V30 1 1 1 2
M  V30 2 1 2 3
M  V30 3 1 2 4
M  V30 4 1 4 5
M  V30 5 1 5 6
M  V30 6 2 6 7
M  V30 7 1 7 8
M  V30 8 1 8 9
M  V30 9 2 9 10
M  V30 10 1 10 11
M  V30 11 2 11 12
M  V30 12 1 12 13
M  V30 13 1 13 14
M  V30 14 1 14 15
M  V30 15 1 15 16
M  V30 16 1 16 17
M  V30 17 1 16 18
M  V30 18 1 18 19
M  V30 19 1 12 20
M  V30 20 2 20 21
M  V30 21 2 8 22
M  V30 22 1 22 23
M  V30 23 2 23 24
M  V30 24 1 24 25
M  V30 25 1 25 26
M  V30 26 2 25 27
M  V30 27 1 27 28
M  V30 28 1 27 29
M  V30 29 1 29 30
M  V30 30 2 29 31
M  V30 31 1 22 32
M  V30 32 2 32 33
M  V30 33 1 33 6
M  V30 34 1 21 9
M  V30 35 1 31 23
M  V30 36 1 19 13
M  V30 37 1 1 34
M  V30 38 1 1 35
M  V30 39 1 1 36
M  V30 40 1 2 37
M  V30 41 1 3 38
M  V30 42 1 3 39
M  V30 43 1 3 40
M  V30 44 1 4 41
M  V30 45 1 4 42
M  V30 46 1 5 43
M  V30 47 1 7 44
M  V30 48 1 10 45
M  V30 49 1 11 46
M  V30 50 1 14 47
M  V30 51 1 14 48
M  V30 52 1 15 49
M  V30 53 1 15 50
M  V30 54 1 17 51
M  V30 55 1 17 52
M  V30 56 1 17 53
M  V30 57 1 18 54
M  V30 58 1 18 55
M  V30 59 1 19 56
M  V30 60 1 19 57
M  V30 61 1 20 58
M  V30 62 1 21 59
M  V30 63 1 24 60
M  V30 64 1 28 61
M  V30 65 1 31 62
M  V30 66 1 32 63
M  V30 END BOND
M  V30 END CTAB
M  END
>  <Dataset>  (678) 
ChEMBL_Kinases

>  <Ligand_Instance>  (678) 
nan

>  <PDB_ID>  (678) 
nan

>  <Standardized_SMILES>  (678) 
CC(C)CNc1cc(-c2ccc(N3CCN(C)CC3)cc2)c(-c2cc(F)c(O)c(F)c2)cn1

>  <Name>  (678) 
nan

>  <Pocket>  (678) 
nan

>  <ATP_Site>  (678) 
nan

>  <Peripheral>  (678) 
nan

>  <Num_H_Atoms_ProtBoundConf>  (678) 
nan

>  <Num_Resolved_Atoms>  (678) 
nan

>  <Num_Not_Resolved_Atoms>  (678) 
nan

$$$$
CHEMBL3604884
     RDKit          3D

  0  0  0  0  0  0  0  0  0  0999 V3000
M  V30 BEGIN CTAB
M  V30 COUNTS 64 68 0 0 0
M  V30 BEGIN ATOM
M  V30 1 C 8.500116 -2.063881 2.501388 0
M  V30 2 C 7.218205 -1.339533 2.675081 0
M  V30 3 C 7.301296 0.019474 2.977075 0
M  V30 4 C 6.146311 0.755254 3.155646 0
M  V30 5 C 4.917526 0.120798 3.029804 0
M  V30 6 N 3.701056 0.855088 3.219175 0
M  V30 7 C 2.374677 0.372278 3.053529 0
M  V30 8 C 1.677832 0.537384 1.874635 0
M  V30 9 C 0.392086 0.053637 1.737549 0
M  V30 10 C -0.418038 0.178076 0.530590 0
M  V30 11 C 0.005758 -0.299114 -0.691935 0
M  V30 12 C -0.781326 -0.174779 -1.815470 0
M  V30 13 C -2.023157 0.422896 -1.798827 0
M  V30 14 N -2.855330 0.571688 -2.942887 0
M  V30 15 C -4.238243 0.999134 -2.934597 0
M  V30 16 C -5.055157 -0.247973 -3.254378 0
M  V30 17 N -4.503611 -0.934789 -4.406097 0
M  V30 18 C -3.884173 -2.193905 -4.028721 0
M  V30 19 C -3.576778 -0.089545 -5.137212 0
M  V30 20 C -2.400273 0.314227 -4.279884 0
M  V30 21 C -2.410757 0.886889 -0.559937 0
M  V30 22 C -1.659622 0.786437 0.592902 0
M  V30 23 C -0.216332 -0.614647 2.808163 0
M  V30 24 C -1.583947 -1.161683 2.766686 0
M  V30 25 C -1.902768 -2.121669 1.828584 0
M  V30 26 C -3.166343 -2.667823 1.744729 0
M  V30 27 F -3.516816 -3.611702 0.838183 0
M  V30 28 C -4.171325 -2.265440 2.611337 0
M  V30 29 O -5.471305 -2.748572 2.612310 0
M  V30 30 C -3.837540 -1.305888 3.543233 0
M  V30 31 F -4.729597 -0.813288 4.464457 0
M  V30 32 C -2.586530 -0.744394 3.649289 0
M  V30 33 C 0.529554 -0.751154 3.966008 0
M  V30 34 N 1.794808 -0.275519 4.102316 0
M  V30 35 C 4.881735 -1.225279 2.729762 0
M  V30 36 C 6.012190 -2.010593 2.540247 0
M  V30 37 H 8.314703 -3.068946 2.112783 0
M  V30 38 H 9.206447 -1.575762 1.808292 0
M  V30 39 H 9.007146 -2.211533 3.494590 0
M  V30 40 H 8.271069 0.489100 3.070084 0
M  V30 41 H 6.221726 1.792731 3.385537 0
M  V30 42 H 3.763420 1.855174 3.509032 0
M  V30 43 H 2.116955 1.043980 1.044600 0
M  V30 44 H 0.968472 -0.772272 -0.753257 0
M  V30 45 H -0.386357 -0.571155 -2.738437 0
M  V30 46 H -4.422125 1.752991 -3.727672 0
M  V30 47 H -4.583910 1.391232 -1.959699 0
M  V30 48 H -6.074692 0.107264 -3.515822 0
M  V30 49 H -5.068109 -0.875487 -2.342350 0
M  V30 50 H -3.969143 -2.406931 -2.940498 0
M  V30 51 H -4.297641 -3.051116 -4.577503 0
M  V30 52 H -2.800842 -2.125051 -4.324954 0
M  V30 53 H -4.126832 0.793916 -5.485269 0
M  V30 54 H -3.233516 -0.698780 -6.014268 0
M  V30 55 H -2.076441 1.317581 -4.682930 0
M  V30 56 H -1.549728 -0.365635 -4.373539 0
M  V30 57 H -3.353255 1.378967 -0.384113 0
M  V30 58 H -1.975601 1.155551 1.558598 0
M  V30 59 H -1.164840 -2.478768 1.121281 0
M  V30 60 H -5.750923 -3.612911 3.046522 0
M  V30 61 H -2.280238 -0.005932 4.347177 0
M  V30 62 H 0.099607 -1.261807 4.817450 0
M  V30 63 H 3.937981 -1.749821 2.624999 0
M  V30 64 H 5.952946 -3.044051 2.310350 0
M  V30 END ATOM
M  V30 BEGIN BOND
M  V30 1 1 1 2
M  V30 2 2 2 3
M  V30 3 1 3 4
M  V30 4 2 4 5
M  V30 5 1 5 6
M  V30 6 1 6 7
M  V30 7 2 7 8
M  V30 8 1 8 9
M  V30 9 1 9 10
M  V30 10 2 10 11
M  V30 11 1 11 12
M  V30 12 2 12 13
M  V30 13 1 13 14
M  V30 14 1 14 15
M  V30 15 1 15 16
M  V30 16 1 16 17
M  V30 17 1 17 18
M  V30 18 1 17 19
M  V30 19 1 19 20
M  V30 20 1 13 21
M  V30 21 2 21 22
M  V30 22 2 9 23
M  V30 23 1 23 24
M  V30 24 2 24 25
M  V30 25 1 25 26
M  V30 26 1 26 27
M  V30 27 2 26 28
M  V30 28 1 28 29
M  V30 29 1 28 30
M  V30 30 1 30 31
M  V30 31 2 30 32
M  V30 32 1 23 33
M  V30 33 2 33 34
M  V30 34 1 5 35
M  V30 35 2 35 36
M  V30 36 1 36 2
M  V30 37 1 34 7
M  V30 38 1 22 10
M  V30 39 1 32 24
M  V30 40 1 20 14
M  V30 41 1 1 37
M  V30 42 1 1 38
M  V30 43 1 1 39
M  V30 44 1 3 40
M  V30 45 1 4 41
M  V30 46 1 6 42
M  V30 47 1 8 43
M  V30 48 1 11 44
M  V30 49 1 12 45
M  V30 50 1 15 46
M  V30 51 1 15 47
M  V30 52 1 16 48
M  V30 53 1 16 49
M  V30 54 1 18 50
M  V30 55 1 18 51
M  V30 56 1 18 52
M  V30 57 1 19 53
M  V30 58 1 19 54
M  V30 59 1 20 55
M  V30 60 1 20 56
M  V30 61 1 21 57
M  V30 62 1 22 58
M  V30 63 1 25 59
M  V30 64 1 29 60
M  V30 65 1 32 61
M  V30 66 1 33 62
M  V30 67 1 35 63
M  V30 68 1 36 64
M  V30 END BOND
M  V30 END CTAB
M  END
>  <Dataset>  (679) 
ChEMBL_Kinases

>  <Ligand_Instance>  (679) 
nan

>  <PDB_ID>  (679) 
nan

>  <Standardized_SMILES>  (679) 
Cc1ccc(Nc2cc(-c3ccc(N4CCN(C)CC4)cc3)c(-c3cc(F)c(O)c(F)c3)cn2)cc1

>  <Name>  (679) 
nan

>  <Pocket>  (679) 
nan

>  <ATP_Site>  (679) 
nan

>  <Peripheral>  (679) 
nan

>  <Num_H_Atoms_ProtBoundConf>  (679) 
nan

>  <Num_Resolved_Atoms>  (679) 
nan

>  <Num_Not_Resolved_Atoms>  (679) 
nan

$$$$
CHEMBL3604885
     RDKit          3D

  0  0  0  0  0  0  0  0  0  0999 V3000
M  V30 BEGIN CTAB
M  V30 COUNTS 36 38 0 0 0
M  V30 BEGIN ATOM
M  V30 1 C -0.920712 -4.284826 3.159063 0
M  V30 2 C -0.303310 -3.335893 2.200124 0
M  V30 3 C 1.019551 -2.991463 2.283216 0
M  V30 4 C 1.608380 -2.103613 1.390333 0
M  V30 5 C 0.853651 -1.536678 0.376463 0
M  V30 6 C 1.558891 -0.620019 -0.506473 0
M  V30 7 N 2.619816 -1.011213 -1.252515 0
M  V30 8 C 3.252358 -0.125729 -2.063890 0
M  V30 9 N 4.346846 -0.672570 -2.786438 0
M  V30 10 N 2.874421 1.175193 -2.178815 0
M  V30 11 C 1.812499 1.634582 -1.454361 0
M  V30 12 C 1.195558 0.705198 -0.641440 0
M  V30 13 C 0.058651 1.197211 0.132582 0
M  V30 14 C -0.965308 1.664373 -0.677615 0
M  V30 15 C -2.134371 2.174094 -0.126647 0
M  V30 16 F -3.168943 2.645069 -0.868648 0
M  V30 17 C -2.268610 2.211367 1.260786 0
M  V30 18 O -3.411851 2.708043 1.906772 0
M  V30 19 C -1.237347 1.741297 2.049375 0
M  V30 20 F -1.300601 1.747692 3.386060 0
M  V30 21 C -0.074358 1.234239 1.503486 0
M  V30 22 C -0.484537 -1.883159 0.290033 0
M  V30 23 C -1.058203 -2.767218 1.184070 0
M  V30 24 H -1.991802 -4.085374 3.294764 0
M  V30 25 H -0.714170 -5.327622 2.806737 0
M  V30 26 H -0.402339 -4.186831 4.141348 0
M  V30 27 H 1.583116 -3.448311 3.082761 0
M  V30 28 H 2.661629 -1.899947 1.545645 0
M  V30 29 H 3.981875 -1.222775 -3.595271 0
M  V30 30 H 5.386039 -0.744399 -2.831689 0
M  V30 31 H 1.474603 2.653111 -1.509885 0
M  V30 32 H -0.962013 1.680499 -1.768993 0
M  V30 33 H -4.310331 2.545464 1.427954 0
M  V30 34 H 0.775134 0.848927 2.047781 0
M  V30 35 H -1.034701 -1.418980 -0.513110 0
M  V30 36 H -2.105846 -3.026612 1.101421 0
M  V30 END ATOM
M  V30 BEGIN BOND
M  V30 1 1 1 2
M  V30 2 2 2 3
M  V30 3 1 3 4
M  V30 4 2 4 5
M  V30 5 1 5 6
M  V30 6 2 6 7
M  V30 7 1 7 8
M  V30 8 1 8 9
M  V30 9 2 8 10
M  V30 10 1 10 11
M  V30 11 2 11 12
M  V30 12 1 12 13
M  V30 13 2 13 14
M  V30 14 1 14 15
M  V30 15 1 15 16
M  V30 16 2 15 17
M  V30 17 1 17 18
M  V30 18 1 17 19
M  V30 19 1 19 20
M  V30 20 2 19 21
M  V30 21 1 5 22
M  V30 22 2 22 23
M  V30 23 1 23 2
M  V30 24 1 12 6
M  V30 25 1 21 13
M  V30 26 1 1 24
M  V30 27 1 1 25
M  V30 28 1 1 26
M  V30 29 1 3 27
M  V30 30 1 4 28
M  V30 31 1 9 29
M  V30 32 1 9 30
M  V30 33 1 11 31
M  V30 34 1 14 32
M  V30 35 1 18 33
M  V30 36 1 21 34
M  V30 37 1 22 35
M  V30 38 1 23 36
M  V30 END BOND
M  V30 END CTAB
M  END
>  <Dataset>  (680) 
ChEMBL_Kinases

>  <Ligand_Instance>  (680) 
nan

>  <PDB_ID>  (680) 
nan

>  <Standardized_SMILES>  (680) 
Cc1ccc(-c2nc(N)ncc2-c2cc(F)c(O)c(F)c2)cc1

>  <Name>  (680) 
nan

>  <Pocket>  (680) 
nan

>  <ATP_Site>  (680) 
nan

>  <Peripheral>  (680) 
nan

>  <Num_H_Atoms_ProtBoundConf>  (680) 
nan

>  <Num_Resolved_Atoms>  (680) 
nan

>  <Num_Not_Resolved_Atoms>  (680) 
nan

$$$$
CHEMBL3604886
     RDKit          3D

  0  0  0  0  0  0  0  0  0  0999 V3000
M  V30 BEGIN CTAB
M  V30 COUNTS 39 41 0 0 0
M  V30 BEGIN ATOM
M  V30 1 C 2.185733 -5.228626 2.080668 0
M  V30 2 N 3.136324 -4.350031 1.411644 0
M  V30 3 C 2.759414 -3.042115 0.991712 0
M  V30 4 N 3.647892 -2.233319 0.372424 0
M  V30 5 C 3.326229 -0.992286 -0.037051 0
M  V30 6 C 2.048230 -0.520732 0.178317 0
M  V30 7 C 1.553663 0.788755 -0.203277 0
M  V30 8 C 0.504034 0.831632 -1.121338 0
M  V30 9 C -0.032435 2.039607 -1.544233 0
M  V30 10 F -1.050360 2.128237 -2.433441 0
M  V30 11 C 0.484461 3.219939 -1.045134 0
M  V30 12 O 0.002116 4.470965 -1.418682 0
M  V30 13 C 1.522513 3.178349 -0.137259 0
M  V30 14 F 2.090776 4.302681 0.403677 0
M  V30 15 C 2.066463 1.968158 0.292202 0
M  V30 16 C 1.129054 -1.328113 0.806841 0
M  V30 17 C -0.262091 -1.031442 1.131541 0
M  V30 18 C -1.350720 -1.722636 0.631051 0
M  V30 19 C -2.642882 -1.383521 0.985720 0
M  V30 20 C -2.895074 -0.334682 1.859351 0
M  V30 21 C -4.288065 0.029002 2.241501 0
M  V30 22 C -1.831799 0.383869 2.383864 0
M  V30 23 C -0.568380 0.006373 1.999330 0
M  V30 24 N 1.528465 -2.572362 1.192728 0
M  V30 25 H 2.211008 -5.047526 3.196268 0
M  V30 26 H 1.147914 -5.063163 1.735507 0
M  V30 27 H 2.466820 -6.295947 1.958153 0
M  V30 28 H 4.112716 -4.680179 1.233910 0
M  V30 29 H 4.007187 -0.321486 -0.532240 0
M  V30 30 H 0.031496 -0.048425 -1.569545 0
M  V30 31 H -0.999614 4.597905 -1.301970 0
M  V30 32 H 2.879135 1.910476 1.002783 0
M  V30 33 H -1.155071 -2.548585 -0.056755 0
M  V30 34 H -3.475560 -1.941539 0.578520 0
M  V30 35 H -4.604997 -0.445905 3.202103 0
M  V30 36 H -4.374854 1.120638 2.347524 0
M  V30 37 H -5.000709 -0.268775 1.446648 0
M  V30 38 H -1.986510 1.204674 3.065556 0
M  V30 39 H 0.264441 0.579334 2.417497 0
M  V30 END ATOM
M  V30 BEGIN BOND
M  V30 1 1 1 2
M  V30 2 1 2 3
M  V30 3 2 3 4
M  V30 4 1 4 5
M  V30 5 2 5 6
M  V30 6 1 6 7
M  V30 7 2 7 8
M  V30 8 1 8 9
M  V30 9 1 9 10
M  V30 10 2 9 11
M  V30 11 1 11 12
M  V30 12 1 11 13
M  V30 13 1 13 14
M  V30 14 2 13 15
M  V30 15 1 6 16
M  V30 16 1 16 17
M  V30 17 2 17 18
M  V30 18 1 18 19
M  V30 19 2 19 20
M  V30 20 1 20 21
M  V30 21 1 20 22
M  V30 22 2 22 23
M  V30 23 2 16 24
M  V30 24 1 24 3
M  V30 25 1 15 7
M  V30 26 1 23 17
M  V30 27 1 1 25
M  V30 28 1 1 26
M  V30 29 1 1 27
M  V30 30 1 2 28
M  V30 31 1 5 29
M  V30 32 1 8 30
M  V30 33 1 12 31
M  V30 34 1 15 32
M  V30 35 1 18 33
M  V30 36 1 19 34
M  V30 37 1 21 35
M  V30 38 1 21 36
M  V30 39 1 21 37
M  V30 40 1 22 38
M  V30 41 1 23 39
M  V30 END BOND
M  V30 END CTAB
M  END
>  <Dataset>  (681) 
ChEMBL_Kinases

>  <Ligand_Instance>  (681) 
nan

>  <PDB_ID>  (681) 
nan

>  <Standardized_SMILES>  (681) 
CNc1ncc(-c2cc(F)c(O)c(F)c2)c(-c2ccc(C)cc2)n1

>  <Name>  (681) 
nan

>  <Pocket>  (681) 
nan

>  <ATP_Site>  (681) 
nan

>  <Peripheral>  (681) 
nan

>  <Num_H_Atoms_ProtBoundConf>  (681) 
nan

>  <Num_Resolved_Atoms>  (681) 
nan

>  <Num_Not_Resolved_Atoms>  (681) 
nan

$$$$
CHEMBL3604887
     RDKit          3D

  0  0  0  0  0  0  0  0  0  0999 V3000
M  V30 BEGIN CTAB
M  V30 COUNTS 45 47 0 0 0
M  V30 BEGIN ATOM
M  V30 1 C -2.645537 -4.033063 3.800191 0
M  V30 2 C -1.842286 -2.991272 3.095365 0
M  V30 3 C -1.708911 -2.983386 1.711939 0
M  V30 4 C -0.960433 -2.012161 1.041444 0
M  V30 5 C -0.321718 -1.013130 1.773121 0
M  V30 6 C 0.437843 -0.038783 0.998223 0
M  V30 7 N -0.010931 1.232459 1.117558 0
M  V30 8 C 0.557176 2.276303 0.482972 0
M  V30 9 N 0.094647 3.617411 0.597999 0
M  V30 10 C -0.849105 3.789158 -0.519507 0
M  V30 11 C -0.097333 3.560267 -1.840337 0
M  V30 12 C -1.356735 5.203280 -0.549891 0
M  V30 13 N 1.639661 2.059546 -0.324958 0
M  V30 14 C 2.125720 0.791039 -0.474029 0
M  V30 15 C 1.528420 -0.268808 0.186821 0
M  V30 16 C 1.962137 -1.657036 0.102992 0
M  V30 17 C 2.411388 -2.146770 1.315132 0
M  V30 18 C 2.867908 -3.466009 1.422447 0
M  V30 19 F 3.320520 -3.977631 2.615882 0
M  V30 20 C 2.884034 -4.311333 0.333165 0
M  V30 21 O 3.337650 -5.620346 0.443069 0
M  V30 22 C 2.427777 -3.796125 -0.873013 0
M  V30 23 F 2.414415 -4.572157 -1.991592 0
M  V30 24 C 1.983079 -2.511639 -0.978295 0
M  V30 25 C -0.446591 -1.008539 3.160126 0
M  V30 26 C -1.199626 -1.991078 3.793524 0
M  V30 27 H -3.051244 -4.742284 3.070860 0
M  V30 28 H -2.050928 -4.528203 4.595250 0
M  V30 29 H -3.512223 -3.542944 4.333550 0
M  V30 30 H -2.241470 -3.802032 1.216831 0
M  V30 31 H -0.910516 -2.083475 -0.033312 0
M  V30 32 H 0.413682 4.261576 1.347606 0
M  V30 33 H -1.655322 3.040724 -0.506874 0
M  V30 34 H -0.669556 4.092892 -2.626581 0
M  V30 35 H 0.916979 4.038255 -1.773634 0
M  V30 36 H -0.063508 2.503781 -2.115209 0
M  V30 37 H -2.403104 5.271457 -0.183405 0
M  V30 38 H -1.335062 5.615295 -1.597206 0
M  V30 39 H -0.663189 5.820368 0.077856 0
M  V30 40 H 2.970994 0.510164 -1.085449 0
M  V30 41 H 2.452780 -1.585660 2.258858 0
M  V30 42 H 3.707011 -6.121598 -0.375612 0
M  V30 43 H 1.610644 -2.037662 -1.890618 0
M  V30 44 H 0.058248 -0.224386 3.693168 0
M  V30 45 H -1.298547 -1.989469 4.873720 0
M  V30 END ATOM
M  V30 BEGIN BOND
M  V30 1 1 1 2
M  V30 2 2 2 3
M  V30 3 1 3 4
M  V30 4 2 4 5
M  V30 5 1 5 6
M  V30 6 2 6 7
M  V30 7 1 7 8
M  V30 8 1 8 9
M  V30 9 1 9 10
M  V30 10 1 10 11
M  V30 11 1 10 12
M  V30 12 2 8 13
M  V30 13 1 13 14
M  V30 14 2 14 15
M  V30 15 1 15 16
M  V30 16 2 16 17
M  V30 17 1 17 18
M  V30 18 1 18 19
M  V30 19 2 18 20
M  V30 20 1 20 21
M  V30 21 1 20 22
M  V30 22 1 22 23
M  V30 23 2 22 24
M  V30 24 1 5 25
M  V30 25 2 25 26
M  V30 26 1 26 2
M  V30 27 1 15 6
M  V30 28 1 24 16
M  V30 29 1 1 27
M  V30 30 1 1 28
M  V30 31 1 1 29
M  V30 32 1 3 30
M  V30 33 1 4 31
M  V30 34 1 9 32
M  V30 35 1 10 33
M  V30 36 1 11 34
M  V30 37 1 11 35
M  V30 38 1 11 36
M  V30 39 1 12 37
M  V30 40 1 12 38
M  V30 41 1 12 39
M  V30 42 1 14 40
M  V30 43 1 17 41
M  V30 44 1 21 42
M  V30 45 1 24 43
M  V30 46 1 25 44
M  V30 47 1 26 45
M  V30 END BOND
M  V30 END CTAB
M  END
>  <Dataset>  (682) 
ChEMBL_Kinases

>  <Ligand_Instance>  (682) 
nan

>  <PDB_ID>  (682) 
nan

>  <Standardized_SMILES>  (682) 
Cc1ccc(-c2nc(NC(C)C)ncc2-c2cc(F)c(O)c(F)c2)cc1

>  <Name>  (682) 
nan

>  <Pocket>  (682) 
nan

>  <ATP_Site>  (682) 
nan

>  <Peripheral>  (682) 
nan

>  <Num_H_Atoms_ProtBoundConf>  (682) 
nan

>  <Num_Resolved_Atoms>  (682) 
nan

>  <Num_Not_Resolved_Atoms>  (682) 
nan

$$$$
CHEMBL3604888
     RDKit          3D

  0  0  0  0  0  0  0  0  0  0999 V3000
M  V30 BEGIN CTAB
M  V30 COUNTS 59 62 0 0 0
M  V30 BEGIN ATOM
M  V30 1 C 3.409922 0.527483 6.486230 0
M  V30 2 C 3.086433 -0.846451 5.950183 0
M  V30 3 C 1.596705 -1.150638 6.120221 0
M  V30 4 N 3.515381 -1.074841 4.610525 0
M  V30 5 C 3.107519 -0.410039 3.428430 0
M  V30 6 N 3.698507 0.762806 3.054521 0
M  V30 7 C 3.299471 1.388508 1.914444 0
M  V30 8 C 2.288881 0.788137 1.172587 0
M  V30 9 C 1.996486 1.589431 -0.017617 0
M  V30 10 C 1.438946 2.838832 0.141022 0
M  V30 11 C 1.174439 3.587518 -0.985359 0
M  V30 12 F 0.624141 4.805274 -0.764917 0
M  V30 13 C 1.456694 3.105894 -2.239294 0
M  V30 14 O 1.171280 3.897978 -3.368801 0
M  V30 15 C 2.022843 1.840817 -2.427547 0
M  V30 16 F 2.314080 1.336268 -3.649196 0
M  V30 17 C 2.287804 1.089049 -1.280961 0
M  V30 18 C 1.684660 -0.395789 1.539226 0
M  V30 19 C 0.646853 -0.865844 0.661216 0
M  V30 20 C -0.574888 -0.312046 0.917473 0
M  V30 21 C -1.702933 -0.639615 0.168121 0
M  V30 22 C -1.620713 -1.537308 -0.860898 0
M  V30 23 N -2.710971 -1.959240 -1.673313 0
M  V30 24 C -2.502748 -2.227325 -3.083864 0
M  V30 25 C -3.036922 -3.573021 -3.517394 0
M  V30 26 N -4.246947 -3.931488 -2.851669 0
M  V30 27 C -4.040423 -5.144028 -2.110705 0
M  V30 28 C -4.901974 -2.882740 -2.135685 0
M  V30 29 C -4.061948 -2.166586 -1.130626 0
M  V30 30 C -0.383011 -2.120231 -1.147202 0
M  V30 31 C 0.717718 -1.775987 -0.386181 0
M  V30 32 N 2.130941 -0.973004 2.694930 0
M  V30 33 H 2.536805 1.176776 6.261894 0
M  V30 34 H 3.492739 0.503727 7.608421 0
M  V30 35 H 4.345066 0.950930 6.114222 0
M  V30 36 H 3.599585 -1.584126 6.620853 0
M  V30 37 H 1.406717 -2.155880 5.659629 0
M  V30 38 H 0.962816 -0.389520 5.668404 0
M  V30 39 H 1.345911 -1.258922 7.205000 0
M  V30 40 H 4.230283 -1.800952 4.303328 0
M  V30 41 H 3.819196 2.304825 1.702965 0
M  V30 42 H 1.209067 3.230647 1.139686 0
M  V30 43 H 0.332532 4.473382 -3.340901 0
M  V30 44 H 2.732777 0.093435 -1.387495 0
M  V30 45 H -0.791632 0.414164 1.697518 0
M  V30 46 H -2.690384 -0.190525 0.377329 0
M  V30 47 H -2.978357 -1.396014 -3.680262 0
M  V30 48 H -1.422897 -2.198287 -3.344451 0
M  V30 49 H -3.218431 -3.524371 -4.609155 0
M  V30 50 H -2.229055 -4.315506 -3.364527 0
M  V30 51 H -3.248735 -5.025364 -1.350067 0
M  V30 52 H -3.614199 -5.885473 -2.847870 0
M  V30 53 H -4.986711 -5.500149 -1.662258 0
M  V30 54 H -5.311437 -2.177641 -2.873918 0
M  V30 55 H -5.774288 -3.318708 -1.600589 0
M  V30 56 H -4.545382 -1.214064 -0.862525 0
M  V30 57 H -3.994655 -2.771732 -0.199904 0
M  V30 58 H -0.157532 -2.845203 -1.919480 0
M  V30 59 H 1.732848 -2.182162 -0.534200 0
M  V30 END ATOM
M  V30 BEGIN BOND
M  V30 1 1 1 2
M  V30 2 1 2 3
M  V30 3 1 2 4
M  V30 4 1 4 5
M  V30 5 2 5 6
M  V30 6 1 6 7
M  V30 7 2 7 8
M  V30 8 1 8 9
M  V30 9 2 9 10
M  V30 10 1 10 11
M  V30 11 1 11 12
M  V30 12 2 11 13
M  V30 13 1 13 14
M  V30 14 1 13 15
M  V30 15 1 15 16
M  V30 16 2 15 17
M  V30 17 1 8 18
M  V30 18 1 18 19
M  V30 19 2 19 20
M  V30 20 1 20 21
M  V30 21 2 21 22
M  V30 22 1 22 23
M  V30 23 1 23 24
M  V30 24 1 24 25
M  V30 25 1 25 26
M  V30 26 1 26 27
M  V30 27 1 26 28
M  V30 28 1 28 29
M  V30 29 1 22 30
M  V30 30 2 30 31
M  V30 31 2 18 32
M  V30 32 1 32 5
M  V30 33 1 17 9
M  V30 34 1 31 19
M  V30 35 1 29 23
M  V30 36 1 1 33
M  V30 37 1 1 34
M  V30 38 1 1 35
M  V30 39 1 2 36
M  V30 40 1 3 37
M  V30 41 1 3 38
M  V30 42 1 3 39
M  V30 43 1 4 40
M  V30 44 1 7 41
M  V30 45 1 10 42
M  V30 46 1 14 43
M  V30 47 1 17 44
M  V30 48 1 20 45
M  V30 49 1 21 46
M  V30 50 1 24 47
M  V30 51 1 24 48
M  V30 52 1 25 49
M  V30 53 1 25 50
M  V30 54 1 27 51
M  V30 55 1 27 52
M  V30 56 1 27 53
M  V30 57 1 28 54
M  V30 58 1 28 55
M  V30 59 1 29 56
M  V30 60 1 29 57
M  V30 61 1 30 58
M  V30 62 1 31 59
M  V30 END BOND
M  V30 END CTAB
M  END
>  <Dataset>  (683) 
ChEMBL_Kinases

>  <Ligand_Instance>  (683) 
nan

>  <PDB_ID>  (683) 
nan

>  <Standardized_SMILES>  (683) 
CC(C)Nc1ncc(-c2cc(F)c(O)c(F)c2)c(-c2ccc(N3CCN(C)CC3)cc2)n1

>  <Name>  (683) 
nan

>  <Pocket>  (683) 
nan

>  <ATP_Site>  (683) 
nan

>  <Peripheral>  (683) 
nan

>  <Num_H_Atoms_ProtBoundConf>  (683) 
nan

>  <Num_Resolved_Atoms>  (683) 
nan

>  <Num_Not_Resolved_Atoms>  (683) 
nan

$$$$
CHEMBL3604889
     RDKit          3D

  0  0  0  0  0  0  0  0  0  0999 V3000
M  V30 BEGIN CTAB
M  V30 COUNTS 51 53 0 0 0
M  V30 BEGIN ATOM
M  V30 1 C -0.511956 -0.925817 4.147786 0
M  V30 2 C -0.015598 -0.148318 2.947578 0
M  V30 3 C 0.647426 1.102264 3.528833 0
M  V30 4 C 1.061209 -0.868984 2.184879 0
M  V30 5 C 0.686611 -2.173531 1.639189 0
M  V30 6 N -0.339457 -2.320050 0.695490 0
M  V30 7 C -0.978810 -1.251349 0.020128 0
M  V30 8 N -0.286605 -0.151979 -0.226930 0
M  V30 9 C -0.869882 0.878382 -0.856386 0
M  V30 10 N -0.075616 2.047569 -1.080015 0
M  V30 11 C 1.313682 2.066568 -0.801548 0
M  V30 12 C 2.015206 3.160844 -0.319469 0
M  V30 13 C 3.372721 3.156665 -0.093910 0
M  V30 14 F 4.032146 4.229177 0.381222 0
M  V30 15 C 4.050959 1.986977 -0.371122 0
M  V30 16 O 5.433952 1.982887 -0.140623 0
M  V30 17 C 3.416401 0.867185 -0.851764 0
M  V30 18 F 4.188561 -0.241676 -1.098301 0
M  V30 19 C 2.054518 0.928372 -1.058564 0
M  V30 20 N -2.160096 0.791013 -1.237103 0
M  V30 21 C -2.886080 -0.338305 -0.987960 0
M  V30 22 C -2.313959 -1.410201 -0.343065 0
M  V30 23 N -2.923341 -2.644190 -0.005811 0
M  V30 24 C -4.334416 -2.769226 -0.401008 0
M  V30 25 C -2.230706 -3.696591 0.671797 0
M  V30 26 O -2.910288 -4.493154 1.391661 0
M  V30 27 C -0.752594 -3.682848 0.405359 0 CFG=1
M  V30 28 C -0.528049 -4.067993 -1.035172 0
M  V30 29 H 0.224476 -0.950530 4.973874 0
M  V30 30 H -0.916757 -1.913352 3.863361 0
M  V30 31 H -1.390461 -0.354973 4.529396 0
M  V30 32 H -0.884720 0.181485 2.403453 0
M  V30 33 H 0.647579 1.918381 2.751262 0
M  V30 34 H 0.116124 1.451059 4.429673 0
M  V30 35 H 1.721503 0.920166 3.736232 0
M  V30 36 H 1.828865 -1.098432 2.989011 0
M  V30 37 H 1.580969 -0.151539 1.553385 0
M  V30 38 H 0.464116 -2.858983 2.507471 0
M  V30 39 H 1.627239 -2.631673 1.211882 0
M  V30 40 H -0.511032 2.937348 -1.466516 0
M  V30 41 H 1.413617 4.040283 -0.117751 0
M  V30 42 H 6.024021 1.230889 -0.499260 0
M  V30 43 H 1.682467 -0.025350 -1.449019 0
M  V30 44 H -3.922280 -0.453949 -1.272027 0
M  V30 45 H -4.617123 -3.824498 -0.218979 0
M  V30 46 H -4.905241 -2.190799 0.384817 0
M  V30 47 H -4.536109 -2.427578 -1.412159 0
M  V30 48 H -0.228380 -4.445332 1.015459 0
M  V30 49 H -0.298734 -5.155168 -1.141173 0
M  V30 50 H 0.357685 -3.549830 -1.448642 0
M  V30 51 H -1.386062 -3.788021 -1.704259 0
M  V30 END ATOM
M  V30 BEGIN BOND
M  V30 1 1 1 2
M  V30 2 1 2 3
M  V30 3 1 2 4
M  V30 4 1 4 5
M  V30 5 1 5 6
M  V30 6 1 6 7
M  V30 7 2 7 8
M  V30 8 1 8 9
M  V30 9 1 9 10
M  V30 10 1 10 11
M  V30 11 2 11 12
M  V30 12 1 12 13
M  V30 13 1 13 14
M  V30 14 2 13 15
M  V30 15 1 15 16
M  V30 16 1 15 17
M  V30 17 1 17 18
M  V30 18 2 17 19
M  V30 19 2 9 20
M  V30 20 1 20 21
M  V30 21 2 21 22
M  V30 22 1 22 23
M  V30 23 1 23 24
M  V30 24 1 23 25
M  V30 25 2 25 26
M  V30 26 1 25 27
M  V30 27 1 27 28
M  V30 28 1 27 6
M  V30 29 1 22 7
M  V30 30 1 19 11
M  V30 31 1 1 29
M  V30 32 1 1 30
M  V30 33 1 1 31
M  V30 34 1 2 32
M  V30 35 1 3 33
M  V30 36 1 3 34
M  V30 37 1 3 35
M  V30 38 1 4 36
M  V30 39 1 4 37
M  V30 40 1 5 38
M  V30 41 1 5 39
M  V30 42 1 10 40
M  V30 43 1 12 41
M  V30 44 1 16 42
M  V30 45 1 19 43
M  V30 46 1 21 44
M  V30 47 1 24 45
M  V30 48 1 24 46
M  V30 49 1 24 47
M  V30 50 1 27 48 CFG=1
M  V30 51 1 28 49
M  V30 52 1 28 50
M  V30 53 1 28 51
M  V30 END BOND
M  V30 END CTAB
M  END
>  <Dataset>  (684) 
ChEMBL_Kinases

>  <Ligand_Instance>  (684) 
nan

>  <PDB_ID>  (684) 
nan

>  <Standardized_SMILES>  (684) 
CC(C)CCN1c2nc(Nc3cc(F)c(O)c(F)c3)ncc2N(C)C(=O)[C@H]1C

>  <Name>  (684) 
nan

>  <Pocket>  (684) 
nan

>  <ATP_Site>  (684) 
nan

>  <Peripheral>  (684) 
nan

>  <Num_H_Atoms_ProtBoundConf>  (684) 
nan

>  <Num_Resolved_Atoms>  (684) 
nan

>  <Num_Not_Resolved_Atoms>  (684) 
nan

$$$$
CHEMBL4079062
     RDKit          3D

  0  0  0  0  0  0  0  0  0  0999 V3000
M  V30 BEGIN CTAB
M  V30 COUNTS 46 49 0 0 0
M  V30 BEGIN ATOM
M  V30 1 C -1.545416 -1.792140 2.767542 0
M  V30 2 N -1.621265 -2.146786 1.362791 0
M  V30 3 C -0.896659 -1.603306 0.342877 0
M  V30 4 C 0.109116 -0.546640 0.462311 0
M  V30 5 C -0.088871 0.588360 1.222340 0
M  V30 6 C 0.925639 1.519042 1.263999 0
M  V30 7 C 2.137890 1.409483 0.601042 0
M  V30 8 N 3.169064 2.405355 0.672640 0
M  V30 9 C 4.376570 2.091874 -0.109631 0
M  V30 10 C 5.260090 3.290134 -0.159894 0
M  V30 11 N 4.619011 4.526019 0.231676 0
M  V30 12 C 4.039231 4.449132 1.553457 0
M  V30 13 C 2.843865 3.562247 1.511288 0
M  V30 14 C 2.252786 0.245155 -0.135038 0
M  V30 15 C 1.288036 -0.734703 -0.229984 0
M  V30 16 C -1.240591 -2.193468 -0.859578 0
M  V30 17 C -2.209699 -3.122081 -0.519720 0
M  V30 18 C -2.951249 -4.028488 -1.253739 0
M  V30 19 Cl -2.740635 -4.153771 -2.988185 0
M  V30 20 C -3.870980 -4.842946 -0.591646 0
M  V30 21 C -4.079782 -4.788644 0.773018 0
M  V30 22 C -5.058758 -5.667086 1.419450 0
M  V30 23 N -5.243625 -5.582997 2.810920 0
M  V30 24 O -5.721817 -6.489493 0.702289 0
M  V30 25 N -3.332109 -3.883742 1.467440 0
M  V30 26 C -2.438609 -3.086882 0.852837 0
M  V30 27 H -1.621011 -2.693896 3.417921 0
M  V30 28 H -0.620497 -1.270197 3.035967 0
M  V30 29 H -2.402748 -1.141409 3.033224 0
M  V30 30 H -1.014720 0.725131 1.759652 0
M  V30 31 H 0.738170 2.395388 1.867903 0
M  V30 32 H 4.940793 1.248476 0.331516 0
M  V30 33 H 4.008101 1.870056 -1.131504 0
M  V30 34 H 5.622725 3.422046 -1.199537 0
M  V30 35 H 6.197043 3.155042 0.455692 0
M  V30 36 H 3.983897 4.904099 -0.477477 0
M  V30 37 H 4.798662 4.070873 2.252523 0
M  V30 38 H 3.704871 5.486288 1.798539 0
M  V30 39 H 2.476679 3.252164 2.503811 0
M  V30 40 H 2.002136 4.077503 1.001879 0
M  V30 41 H 3.165484 0.065775 -0.690654 0
M  V30 42 H 1.462954 -1.624711 -0.835686 0
M  V30 43 H -0.859879 -1.997593 -1.850704 0
M  V30 44 H -4.467302 -5.566997 -1.157325 0
M  V30 45 H -5.603055 -6.411027 3.322556 0
M  V30 46 H -5.605240 -6.437106 3.279103 0
M  V30 END ATOM
M  V30 BEGIN BOND
M  V30 1 1 1 2
M  V30 2 1 2 3
M  V30 3 1 3 4
M  V30 4 2 4 5
M  V30 5 1 5 6
M  V30 6 2 6 7
M  V30 7 1 7 8
M  V30 8 1 8 9
M  V30 9 1 9 10
M  V30 10 1 10 11
M  V30 11 1 11 12
M  V30 12 1 12 13
M  V30 13 1 7 14
M  V30 14 2 14 15
M  V30 15 2 3 16
M  V30 16 1 16 17
M  V30 17 2 17 18
M  V30 18 1 18 19
M  V30 19 1 18 20
M  V30 20 2 20 21
M  V30 21 1 21 22
M  V30 22 1 22 23
M  V30 23 2 22 24
M  V30 24 1 21 25
M  V30 25 2 25 26
M  V30 26 1 26 2
M  V30 27 1 15 4
M  V30 28 1 26 17
M  V30 29 1 13 8
M  V30 30 1 1 27
M  V30 31 1 1 28
M  V30 32 1 1 29
M  V30 33 1 5 30
M  V30 34 1 6 31
M  V30 35 1 9 32
M  V30 36 1 9 33
M  V30 37 1 10 34
M  V30 38 1 10 35
M  V30 39 1 11 36
M  V30 40 1 12 37
M  V30 41 1 12 38
M  V30 42 1 13 39
M  V30 43 1 13 40
M  V30 44 1 14 41
M  V30 45 1 15 42
M  V30 46 1 16 43
M  V30 47 1 20 44
M  V30 48 1 23 45
M  V30 49 1 23 46
M  V30 END BOND
M  V30 END CTAB
M  END
>  <Dataset>  (685) 
ChEMBL_Kinases

>  <Ligand_Instance>  (685) 
nan

>  <PDB_ID>  (685) 
nan

>  <Standardized_SMILES>  (685) 
Cn1c(-c2ccc(N3CCNCC3)cc2)cc2c(Cl)cc(C(N)=O)nc21

>  <Name>  (685) 
nan

>  <Pocket>  (685) 
nan

>  <ATP_Site>  (685) 
nan

>  <Peripheral>  (685) 
nan

>  <Num_H_Atoms_ProtBoundConf>  (685) 
nan

>  <Num_Resolved_Atoms>  (685) 
nan

>  <Num_Not_Resolved_Atoms>  (685) 
nan

$$$$
CHEMBL3605055
     RDKit          3D

  0  0  0  0  0  0  0  0  0  0999 V3000
M  V30 BEGIN CTAB
M  V30 COUNTS 50 55 0 0 0
M  V30 BEGIN ATOM
M  V30 1 C -0.553532 -3.336775 5.009381 0
M  V30 2 C 0.717221 -2.822655 5.194160 0
M  V30 3 C 1.430317 -2.216325 4.173503 0
M  V30 4 C 0.774255 -2.166611 2.962581 0
M  V30 5 C 1.433700 -1.576119 1.908034 0
M  V30 6 N 2.752933 -1.001269 1.968968 0
M  V30 7 C 2.972166 0.377456 2.246465 0
M  V30 8 C 3.023016 1.163971 1.086935 0
M  V30 9 C 3.240804 2.491038 1.481012 0
M  V30 10 C 3.374290 3.709346 0.643457 0
M  V30 11 C 2.246575 3.895887 -0.359769 0
M  V30 12 C 3.301104 4.299084 -1.376435 0
M  V30 13 C 4.316631 3.577897 -0.514492 0
M  V30 14 N 3.311318 2.459841 2.821932 0
M  V30 15 N 3.157053 1.233622 3.294041 0
M  V30 16 N 0.849944 -1.499329 0.711948 0
M  V30 17 C -0.380986 -1.973861 0.450273 0
M  V30 18 N -0.932327 -1.850462 -0.849876 0
M  V30 19 C -2.200340 -2.278423 -1.328294 0
M  V30 20 C -2.542758 -2.037816 -2.635866 0
M  V30 21 C -3.731010 -2.397001 -3.224708 0
M  V30 22 C -4.638869 -3.050864 -2.418980 0
M  V30 23 N -5.873841 -3.503320 -2.768082 0
M  V30 24 C -6.361248 -4.068092 -1.628388 0
M  V30 25 N -5.451018 -3.959582 -0.626521 0
M  V30 26 C -4.357332 -3.322664 -1.098762 0
M  V30 27 C -3.135809 -2.933896 -0.558374 0
M  V30 28 N -0.975415 -2.536137 1.506915 0
M  V30 29 C -0.487880 -2.664363 2.732732 0
M  V30 30 C -1.161856 -3.259369 3.775329 0
M  V30 31 H -1.092852 -3.809202 5.831508 0
M  V30 32 H 1.179344 -2.894968 6.176801 0
M  V30 33 H 2.429292 -1.808532 4.305739 0
M  V30 34 H 3.672625 -1.497587 1.824728 0
M  V30 35 H 2.935575 0.979646 0.007571 0
M  V30 36 H 3.542468 4.635184 1.212240 0
M  V30 37 H 1.765062 2.941978 -0.669667 0
M  V30 38 H 1.532293 4.701242 -0.090231 0
M  V30 39 H 3.425605 5.408218 -1.422574 0
M  V30 40 H 3.152002 3.846663 -2.381850 0
M  V30 41 H 5.265474 4.154455 -0.438727 0
M  V30 42 H 4.425329 2.541553 -0.897391 0
M  V30 43 H 3.465999 3.254963 3.499470 0
M  V30 44 H -0.307266 -1.371105 -1.559588 0
M  V30 45 H -1.847494 -1.517840 -3.314272 0
M  V30 46 H -3.945918 -2.181737 -4.257242 0
M  V30 47 H -6.345843 -3.435833 -3.695866 0
M  V30 48 H -7.359541 -4.531165 -1.589605 0
M  V30 49 H -2.950333 -3.162906 0.473406 0
M  V30 50 H -2.157404 -3.647675 3.575696 0
M  V30 END ATOM
M  V30 BEGIN BOND
M  V30 1 2 1 2
M  V30 2 1 2 3
M  V30 3 2 3 4
M  V30 4 1 4 5
M  V30 5 1 5 6
M  V30 6 1 6 7
M  V30 7 1 7 8
M  V30 8 2 8 9
M  V30 9 1 9 10
M  V30 10 1 10 11
M  V30 11 1 11 12
M  V30 12 1 12 13
M  V30 13 1 9 14
M  V30 14 1 14 15
M  V30 15 2 5 16
M  V30 16 1 16 17
M  V30 17 1 17 18
M  V30 18 1 18 19
M  V30 19 2 19 20
M  V30 20 1 20 21
M  V30 21 2 21 22
M  V30 22 1 22 23
M  V30 23 1 23 24
M  V30 24 2 24 25
M  V30 25 1 25 26
M  V30 26 2 26 27
M  V30 27 2 17 28
M  V30 28 1 28 29
M  V30 29 2 29 30
M  V30 30 1 30 1
M  V30 31 1 29 4
M  V30 32 2 15 7
M  V30 33 1 27 19
M  V30 34 1 13 10
M  V30 35 1 26 22
M  V30 36 1 1 31
M  V30 37 1 2 32
M  V30 38 1 3 33
M  V30 39 1 6 34
M  V30 40 1 8 35
M  V30 41 1 10 36
M  V30 42 1 11 37
M  V30 43 1 11 38
M  V30 44 1 12 39
M  V30 45 1 12 40
M  V30 46 1 13 41
M  V30 47 1 13 42
M  V30 48 1 14 43
M  V30 49 1 18 44
M  V30 50 1 20 45
M  V30 51 1 21 46
M  V30 52 1 23 47
M  V30 53 1 24 48
M  V30 54 1 27 49
M  V30 55 1 30 50
M  V30 END BOND
M  V30 END CTAB
M  END
>  <Dataset>  (686) 
ChEMBL_Kinases

>  <Ligand_Instance>  (686) 
nan

>  <PDB_ID>  (686) 
nan

>  <Standardized_SMILES>  (686) 
c1ccc2c(Nc3cc(C4CCC4)[nH]n3)nc(Nc3ccc4[nH]cnc4c3)nc2c1

>  <Name>  (686) 
nan

>  <Pocket>  (686) 
nan

>  <ATP_Site>  (686) 
nan

>  <Peripheral>  (686) 
nan

>  <Num_H_Atoms_ProtBoundConf>  (686) 
nan

>  <Num_Resolved_Atoms>  (686) 
nan

>  <Num_Not_Resolved_Atoms>  (686) 
nan

$$$$
CHEMBL3604882
     RDKit          3D

  0  0  0  0  0  0  0  0  0  0999 V3000
M  V30 BEGIN CTAB
M  V30 COUNTS 54 57 0 0 0
M  V30 BEGIN ATOM
M  V30 1 C -6.989374 -1.523713 2.924530 0
M  V30 2 N -5.825435 -0.830420 2.451770 0
M  V30 3 C -4.640199 -1.546281 2.101136 0
M  V30 4 C -3.512103 -0.864822 1.638881 0
M  V30 5 C -2.382188 -1.596417 1.308909 0
M  V30 6 C -1.173705 -0.937570 0.821150 0
M  V30 7 C 0.006122 -1.004055 1.550155 0
M  V30 8 C 1.133982 -0.372478 1.065891 0
M  V30 9 C 1.167293 0.324711 -0.101521 0
M  V30 10 N 2.314083 0.979994 -0.608888 0
M  V30 11 C 3.606210 1.069637 0.037207 0
M  V30 12 C 4.101405 2.464066 0.201730 0
M  V30 13 N 3.915249 3.297727 -0.957313 0
M  V30 14 C 4.298586 4.657003 -0.750848 0
M  V30 15 C 2.580703 3.159363 -1.503853 0
M  V30 16 C 2.420699 1.672202 -1.845763 0
M  V30 17 C -0.006838 0.383795 -0.815162 0
M  V30 18 C -1.164072 -0.227978 -0.379731 0
M  V30 19 C -2.371024 -2.982162 1.435222 0
M  V30 20 C -1.220577 -3.815002 1.104604 0
M  V30 21 C -0.451677 -4.653514 1.883881 0
M  V30 22 C 0.589589 -5.343342 1.349849 0
M  V30 23 F 1.279953 -6.136253 2.193463 0
M  V30 24 C 0.943807 -5.253722 0.011903 0
M  V30 25 O 2.019196 -5.993074 -0.443870 0
M  V30 26 C 0.177988 -4.418705 -0.763503 0
M  V30 27 F 0.545914 -4.347571 -2.074489 0
M  V30 28 C -0.885572 -3.705112 -0.249875 0
M  V30 29 C -3.525541 -3.601887 1.901107 0
M  V30 30 N -4.618757 -2.884623 2.219537 0
M  V30 31 H -7.508678 -2.023029 2.080504 0
M  V30 32 H -6.740411 -2.213222 3.763070 0
M  V30 33 H -7.717497 -0.803214 3.352396 0
M  V30 34 H -5.840223 0.196409 2.362442 0
M  V30 35 H -3.503588 0.214619 1.534580 0
M  V30 36 H 0.013736 -1.541299 2.466519 0
M  V30 37 H 2.009980 -0.465472 1.680472 0
M  V30 38 H 3.595032 0.620113 1.051492 0
M  V30 39 H 4.324083 0.441533 -0.561017 0
M  V30 40 H 5.188666 2.431856 0.424398 0
M  V30 41 H 3.628067 2.963325 1.063740 0
M  V30 42 H 4.943262 4.797192 0.143979 0
M  V30 43 H 3.349881 5.217777 -0.508022 0
M  V30 44 H 4.753368 5.154928 -1.632056 0
M  V30 45 H 2.454966 3.802467 -2.377433 0
M  V30 46 H 1.868749 3.441462 -0.721654 0
M  V30 47 H 3.298576 1.357815 -2.462882 0
M  V30 48 H 1.559269 1.632269 -2.519955 0
M  V30 49 H -0.156076 0.888307 -1.749972 0
M  V30 50 H -2.103447 -0.218086 -0.886889 0
M  V30 51 H -0.799881 -4.660946 2.912336 0
M  V30 52 H 1.958777 -6.960218 -0.753455 0
M  V30 53 H -1.395121 -3.084581 -0.997636 0
M  V30 54 H -3.624247 -4.683254 2.037635 0
M  V30 END ATOM
M  V30 BEGIN BOND
M  V30 1 1 1 2
M  V30 2 1 2 3
M  V30 3 2 3 4
M  V30 4 1 4 5
M  V30 5 1 5 6
M  V30 6 2 6 7
M  V30 7 1 7 8
M  V30 8 2 8 9
M  V30 9 1 9 10
M  V30 10 1 10 11
M  V30 11 1 11 12
M  V30 12 1 12 13
M  V30 13 1 13 14
M  V30 14 1 13 15
M  V30 15 1 15 16
M  V30 16 1 9 17
M  V30 17 2 17 18
M  V30 18 2 5 19
M  V30 19 1 19 20
M  V30 20 2 20 21
M  V30 21 1 21 22
M  V30 22 1 22 23
M  V30 23 2 22 24
M  V30 24 1 24 25
M  V30 25 1 24 26
M  V30 26 1 26 27
M  V30 27 2 26 28
M  V30 28 1 19 29
M  V30 29 2 29 30
M  V30 30 1 30 3
M  V30 31 1 18 6
M  V30 32 1 28 20
M  V30 33 1 16 10
M  V30 34 1 1 31
M  V30 35 1 1 32
M  V30 36 1 1 33
M  V30 37 1 2 34
M  V30 38 1 4 35
M  V30 39 1 7 36
M  V30 40 1 8 37
M  V30 41 1 11 38
M  V30 42 1 11 39
M  V30 43 1 12 40
M  V30 44 1 12 41
M  V30 45 1 14 42
M  V30 46 1 14 43
M  V30 47 1 14 44
M  V30 48 1 15 45
M  V30 49 1 15 46
M  V30 50 1 16 47
M  V30 51 1 16 48
M  V30 52 1 17 49
M  V30 53 1 18 50
M  V30 54 1 21 51
M  V30 55 1 25 52
M  V30 56 1 28 53
M  V30 57 1 29 54
M  V30 END BOND
M  V30 END CTAB
M  END
>  <Dataset>  (687) 
ChEMBL_Kinases

>  <Ligand_Instance>  (687) 
nan

>  <PDB_ID>  (687) 
nan

>  <Standardized_SMILES>  (687) 
CNc1cc(-c2ccc(N3CCN(C)CC3)cc2)c(-c2cc(F)c(O)c(F)c2)cn1

>  <Name>  (687) 
nan

>  <Pocket>  (687) 
nan

>  <ATP_Site>  (687) 
nan

>  <Peripheral>  (687) 
nan

>  <Num_H_Atoms_ProtBoundConf>  (687) 
nan

>  <Num_Resolved_Atoms>  (687) 
nan

>  <Num_Not_Resolved_Atoms>  (687) 
nan

$$$$
CHEMBL3660007
     RDKit          3D

  0  0  0  0  0  0  0  0  0  0999 V3000
M  V30 BEGIN CTAB
M  V30 COUNTS 58 62 0 0 0
M  V30 BEGIN ATOM
M  V30 1 C -0.356459 -1.855539 3.751128 0
M  V30 2 C 0.341308 -2.786366 2.788733 0
M  V30 3 C 0.796120 -3.985981 3.582922 0
M  V30 4 C 1.575361 -2.066805 2.307010 0
M  V30 5 C 1.162639 -1.072598 1.194176 0
M  V30 6 N 2.234162 -0.175621 0.914954 0
M  V30 7 C 2.514544 1.002863 0.186788 0
M  V30 8 C 3.835486 1.474699 0.199859 0
M  V30 9 C 4.270062 2.599469 -0.445704 0
M  V30 10 C 3.320436 3.288757 -1.144269 0
M  V30 11 C 2.021236 2.850247 -1.173430 0
M  V30 12 C 1.127642 3.611369 -1.893669 0
M  V30 13 C -0.172686 3.169960 -1.908185 0
M  V30 14 C -0.636938 2.021207 -1.251873 0
M  V30 15 C -2.056812 1.756458 -1.391793 0
M  V30 16 N -2.930327 2.501657 -2.115807 0
M  V30 17 N -4.132330 2.033180 -2.049003 0
M  V30 18 C -4.129172 0.947880 -1.275931 0
M  V30 19 C -5.180917 0.144987 -0.933207 0
M  V30 20 C -4.887527 -0.929953 -0.097926 0
M  V30 21 C -3.562098 -1.089737 0.309614 0
M  V30 22 C -2.583057 -0.219156 -0.098072 0
M  V30 23 N -2.857635 0.803130 -0.891111 0
M  V30 24 N 0.294750 1.332790 -0.572177 0
M  V30 25 C 1.582534 1.718754 -0.524141 0
M  V30 26 C 0.832247 -1.959985 0.034011 0
M  V30 27 C 0.018666 -3.126487 0.414595 0
M  V30 28 C 0.897556 -4.380021 0.223698 0
M  V30 29 C -1.097029 -3.305623 -0.634646 0
M  V30 30 N -0.487050 -3.238179 1.727340 0
M  V30 31 H 0.451260 -1.326077 4.319334 0
M  V30 32 H -0.941926 -1.059999 3.256905 0
M  V30 33 H -0.931975 -2.466501 4.471502 0
M  V30 34 H 0.626469 -3.851200 4.674829 0
M  V30 35 H 0.265249 -4.928761 3.303420 0
M  V30 36 H 1.894802 -4.199714 3.442471 0
M  V30 37 H 2.376956 -2.697734 1.935626 0
M  V30 38 H 1.964615 -1.435717 3.130898 0
M  V30 39 H 0.263286 -0.602087 1.581214 0
M  V30 40 H 3.048976 -0.562115 1.438782 0
M  V30 41 H 4.620114 0.944801 0.750365 0
M  V30 42 H 5.300159 2.912656 -0.399026 0
M  V30 43 H 3.604444 4.180258 -1.671560 0
M  V30 44 H 1.443064 4.495054 -2.408247 0
M  V30 45 H -0.839885 3.803498 -2.489656 0
M  V30 46 H -6.175742 0.338400 -1.291905 0
M  V30 47 H -5.707999 -1.580782 0.187137 0
M  V30 48 H -3.461277 -1.947212 0.949358 0
M  V30 49 H -1.595882 -0.382848 0.233233 0
M  V30 50 H 0.312352 -1.401659 -0.777348 0
M  V30 51 H 1.787293 -2.314876 -0.464334 0
M  V30 52 H 1.324610 -4.689691 1.179258 0
M  V30 53 H 0.245888 -5.207804 -0.122359 0
M  V30 54 H 1.638289 -4.195748 -0.576532 0
M  V30 55 H -2.068125 -3.527264 -0.176171 0
M  V30 56 H -1.136928 -2.408761 -1.299162 0
M  V30 57 H -0.891190 -4.146811 -1.326519 0
M  V30 58 H -1.426998 -2.844510 1.801869 0
M  V30 END ATOM
M  V30 BEGIN BOND
M  V30 1 1 1 2
M  V30 2 1 2 3
M  V30 3 1 2 4
M  V30 4 1 4 5
M  V30 5 1 5 6
M  V30 6 1 6 7
M  V30 7 2 7 8
M  V30 8 1 8 9
M  V30 9 2 9 10
M  V30 10 1 10 11
M  V30 11 2 11 12
M  V30 12 1 12 13
M  V30 13 2 13 14
M  V30 14 1 14 15
M  V30 15 2 15 16
M  V30 16 1 16 17
M  V30 17 2 17 18
M  V30 18 1 18 19
M  V30 19 2 19 20
M  V30 20 1 20 21
M  V30 21 2 21 22
M  V30 22 1 22 23
M  V30 23 1 14 24
M  V30 24 2 24 25
M  V30 25 1 5 26
M  V30 26 1 26 27
M  V30 27 1 27 28
M  V30 28 1 27 29
M  V30 29 1 27 30
M  V30 30 1 30 2
M  V30 31 1 25 7
M  V30 32 1 25 11
M  V30 33 1 23 15
M  V30 34 1 23 18
M  V30 35 1 1 31
M  V30 36 1 1 32
M  V30 37 1 1 33
M  V30 38 1 3 34
M  V30 39 1 3 35
M  V30 40 1 3 36
M  V30 41 1 4 37
M  V30 42 1 4 38
M  V30 43 1 5 39
M  V30 44 1 6 40
M  V30 45 1 8 41
M  V30 46 1 9 42
M  V30 47 1 10 43
M  V30 48 1 12 44
M  V30 49 1 13 45
M  V30 50 1 19 46
M  V30 51 1 20 47
M  V30 52 1 21 48
M  V30 53 1 22 49
M  V30 54 1 26 50
M  V30 55 1 26 51
M  V30 56 1 28 52
M  V30 57 1 28 53
M  V30 58 1 28 54
M  V30 59 1 29 55
M  V30 60 1 29 56
M  V30 61 1 29 57
M  V30 62 1 30 58
M  V30 END BOND
M  V30 END CTAB
M  END
>  <Dataset>  (688) 
ChEMBL_Kinases

>  <Ligand_Instance>  (688) 
nan

>  <PDB_ID>  (688) 
nan

>  <Standardized_SMILES>  (688) 
CC1(C)CC(Nc2cccc3ccc(-c4nnc5ccccn45)nc23)CC(C)(C)N1

>  <Name>  (688) 
nan

>  <Pocket>  (688) 
nan

>  <ATP_Site>  (688) 
nan

>  <Peripheral>  (688) 
nan

>  <Num_H_Atoms_ProtBoundConf>  (688) 
nan

>  <Num_Resolved_Atoms>  (688) 
nan

>  <Num_Not_Resolved_Atoms>  (688) 
nan

$$$$
CHEMBL361833
     RDKit          3D

  0  0  0  0  0  0  0  0  0  0999 V3000
M  V30 BEGIN CTAB
M  V30 COUNTS 59 63 0 0 0
M  V30 BEGIN ATOM
M  V30 1 N 5.883346 -1.650114 3.918800 0
M  V30 2 C 4.568556 -1.196586 3.438953 0 CFG=1
M  V30 3 C 4.488656 0.283902 3.263495 0
M  V30 4 C 5.219723 0.652345 1.993448 0
M  V30 5 C 4.612379 -0.042058 0.787947 0 CFG=2
M  V30 6 N 3.376106 0.593278 0.384404 0
M  V30 7 C 2.476974 0.288167 -0.680107 0
M  V30 8 C 1.322576 1.069767 -0.853095 0
M  V30 9 C 0.513557 0.685220 -1.898335 0
M  V30 10 N -0.687395 1.380858 -2.205451 0
M  V30 11 C -1.830910 1.133397 -1.376003 0
M  V30 12 C -1.618756 0.472763 -0.159433 0
M  V30 13 C -2.674697 0.197581 0.703820 0
M  V30 14 C -3.965319 0.566536 0.388585 0
M  V30 15 S -5.247935 0.206371 1.528279 0
M  V30 16 O -4.843323 0.381451 2.950818 0
M  V30 17 O -6.407229 1.154979 1.242859 0
M  V30 18 C -5.819659 -1.430782 1.312868 0
M  V30 19 C -5.127251 -2.390143 2.057761 0
M  V30 20 C -5.430007 -3.719061 2.019024 0
M  V30 21 C -6.467351 -4.103563 1.202654 0
M  V30 22 C -7.171185 -3.181379 0.454562 0
M  V30 23 C -6.863711 -1.832630 0.493804 0
M  V30 24 C -4.167499 1.219862 -0.819003 0
M  V30 25 C -3.125701 1.497453 -1.681646 0
M  V30 26 N 0.764110 -0.349601 -2.719534 0
M  V30 27 N 0.157522 -0.903473 -3.770129 0
M  V30 28 C 0.871094 -1.949323 -4.224424 0
M  V30 29 C 2.000410 -2.062358 -3.408011 0
M  V30 30 Br 3.355780 -3.362319 -3.591856 0
M  V30 31 C 1.903302 -1.041114 -2.470962 0
M  V30 32 N 2.755734 -0.747997 -1.479708 0
M  V30 33 C 4.551316 -1.520117 0.945587 0
M  V30 34 C 4.097257 -2.008569 2.280720 0
M  V30 35 H 5.772908 -2.503940 4.535335 0
M  V30 36 H 6.433526 -1.968386 3.091173 0
M  V30 37 H 3.888753 -1.433425 4.311683 0
M  V30 38 H 3.427810 0.564003 3.196156 0
M  V30 39 H 5.002405 0.770781 4.102811 0
M  V30 40 H 5.078145 1.743645 1.853162 0
M  V30 41 H 6.285471 0.436472 2.065243 0
M  V30 42 H 5.341189 0.157419 -0.038024 0
M  V30 43 H 3.100134 1.428289 0.989666 0
M  V30 44 H 1.082541 1.910071 -0.217387 0
M  V30 45 H -0.801006 2.070635 -3.005126 0
M  V30 46 H -0.670961 0.131716 0.205563 0
M  V30 47 H -2.515474 -0.321250 1.661970 0
M  V30 48 H -4.288718 -2.137323 2.728583 0
M  V30 49 H -4.882183 -4.459885 2.606364 0
M  V30 50 H -6.720445 -5.153429 1.160530 0
M  V30 51 H -7.992161 -3.444733 -0.197630 0
M  V30 52 H -7.333818 -1.021315 -0.036821 0
M  V30 53 H -5.183084 1.513583 -1.074973 0
M  V30 54 H -3.288104 2.010118 -2.628681 0
M  V30 55 H 0.565955 -2.548636 -5.072542 0
M  V30 56 H 3.890708 -1.943849 0.171528 0
M  V30 57 H 5.570147 -1.956756 0.758662 0
M  V30 58 H 2.976284 -2.107743 2.366923 0
M  V30 59 H 4.458381 -3.043741 2.444687 0
M  V30 END ATOM
M  V30 BEGIN BOND
M  V30 1 1 1 2
M  V30 2 1 2 3
M  V30 3 1 3 4
M  V30 4 1 4 5
M  V30 5 1 5 6
M  V30 6 1 6 7
M  V30 7 1 7 8
M  V30 8 2 8 9
M  V30 9 1 9 10
M  V30 10 1 10 11
M  V30 11 2 11 12
M  V30 12 1 12 13
M  V30 13 2 13 14
M  V30 14 1 14 15
M  V30 15 2 15 16
M  V30 16 2 15 17
M  V30 17 1 15 18
M  V30 18 2 18 19
M  V30 19 1 19 20
M  V30 20 2 20 21
M  V30 21 1 21 22
M  V30 22 2 22 23
M  V30 23 1 14 24
M  V30 24 2 24 25
M  V30 25 1 9 26
M  V30 26 1 26 27
M  V30 27 2 27 28
M  V30 28 1 28 29
M  V30 29 1 29 30
M  V30 30 2 29 31
M  V30 31 1 31 32
M  V30 32 1 5 33
M  V30 33 1 33 34
M  V30 34 1 34 2
M  V30 35 2 32 7
M  V30 36 1 25 11
M  V30 37 1 31 26
M  V30 38 1 23 18
M  V30 39 1 1 35
M  V30 40 1 1 36
M  V30 41 1 2 37 CFG=1
M  V30 42 1 3 38
M  V30 43 1 3 39
M  V30 44 1 4 40
M  V30 45 1 4 41
M  V30 46 1 5 42 CFG=3
M  V30 47 1 6 43
M  V30 48 1 8 44
M  V30 49 1 10 45
M  V30 50 1 12 46
M  V30 51 1 13 47
M  V30 52 1 19 48
M  V30 53 1 20 49
M  V30 54 1 21 50
M  V30 55 1 22 51
M  V30 56 1 23 52
M  V30 57 1 24 53
M  V30 58 1 25 54
M  V30 59 1 28 55
M  V30 60 1 33 56
M  V30 61 1 33 57
M  V30 62 1 34 58
M  V30 63 1 34 59
M  V30 END BOND
M  V30 END CTAB
M  END
>  <Dataset>  (689) 
ChEMBL_Kinases

>  <Ligand_Instance>  (689) 
nan

>  <PDB_ID>  (689) 
nan

>  <Standardized_SMILES>  (689) 
N[C@H]1CC[C@H](Nc2cc(Nc3ccc(S(=O)(=O)c4ccccc4)cc3)n3ncc(Br)c3n2)CC1

>  <Name>  (689) 
nan

>  <Pocket>  (689) 
nan

>  <ATP_Site>  (689) 
nan

>  <Peripheral>  (689) 
nan

>  <Num_H_Atoms_ProtBoundConf>  (689) 
nan

>  <Num_Resolved_Atoms>  (689) 
nan

>  <Num_Not_Resolved_Atoms>  (689) 
nan

$$$$
CHEMBL3660006
     RDKit          3D

  0  0  0  0  0  0  0  0  0  0999 V3000
M  V30 BEGIN CTAB
M  V30 COUNTS 46 50 0 0 0
M  V30 BEGIN ATOM
M  V30 1 C -1.246350 -4.767790 -1.381475 0
M  V30 2 C -0.110705 -4.220125 -0.853783 0
M  V30 3 C -0.025637 -2.973574 -0.238875 0
M  V30 4 N 1.228590 -2.590642 0.260770 0
M  V30 5 C 1.925970 -1.515245 0.904494 0
M  V30 6 C 2.152933 -0.416171 -0.092231 0
M  V30 7 C 3.034853 0.699059 0.406573 0
M  V30 8 N 4.099899 0.289243 1.263408 0
M  V30 9 C 4.402242 -1.119777 1.171158 0
M  V30 10 C 3.245241 -1.996580 1.503862 0
M  V30 11 C -1.171021 -2.216180 -0.145532 0
M  V30 12 N -1.169771 -1.009986 0.439925 0
M  V30 13 C -2.289258 -0.277746 0.536595 0
M  V30 14 C -2.461487 1.038973 1.129060 0
M  V30 15 N -3.623868 1.726660 1.210700 0
M  V30 16 N -3.450939 2.886737 1.800405 0
M  V30 17 C -2.161987 3.023111 2.138274 0
M  V30 18 C -1.480752 4.040145 2.766503 0
M  V30 19 C -0.126912 3.918398 2.993665 0
M  V30 20 C 0.455561 2.751377 2.559970 0
M  V30 21 C -0.292574 1.776906 1.937950 0
M  V30 22 N -1.601790 1.883116 1.713232 0
M  V30 23 C -3.460237 -0.832395 -0.002937 0
M  V30 24 C -3.513655 -2.063947 -0.612701 0
M  V30 25 C -2.321445 -2.752723 -0.671305 0
M  V30 26 C -2.371161 -3.988869 -1.273318 0
M  V30 27 H -1.254787 -5.741078 -1.848144 0
M  V30 28 H 0.771013 -4.872155 -0.958640 0
M  V30 29 H 1.984579 -3.292756 0.152664 0
M  V30 30 H 1.324150 -1.100584 1.761619 0
M  V30 31 H 1.190244 0.030346 -0.377071 0
M  V30 32 H 2.658540 -0.880918 -0.983280 0
M  V30 33 H 2.419065 1.462840 0.880887 0
M  V30 34 H 3.504154 1.148647 -0.514423 0
M  V30 35 H 4.087140 0.677593 2.215016 0
M  V30 36 H 4.867504 -1.371480 0.216711 0
M  V30 37 H 5.180594 -1.305619 1.967113 0
M  V30 38 H 3.100118 -2.179989 2.584145 0
M  V30 39 H 3.479309 -3.009761 1.060209 0
M  V30 40 H -2.035397 4.919191 3.068638 0
M  V30 41 H 0.330576 4.760720 3.491646 0
M  V30 42 H 1.533217 2.677071 2.751390 0
M  V30 43 H 0.216391 0.890498 1.617664 0
M  V30 44 H -4.417294 -0.316063 0.026450 0
M  V30 45 H -4.417782 -2.465104 -1.016230 0
M  V30 46 H -3.298781 -4.369842 -1.672850 0
M  V30 END ATOM
M  V30 BEGIN BOND
M  V30 1 2 1 2
M  V30 2 1 2 3
M  V30 3 1 3 4
M  V30 4 1 4 5
M  V30 5 1 5 6
M  V30 6 1 6 7
M  V30 7 1 7 8
M  V30 8 1 8 9
M  V30 9 1 9 10
M  V30 10 2 3 11
M  V30 11 1 11 12
M  V30 12 2 12 13
M  V30 13 1 13 14
M  V30 14 2 14 15
M  V30 15 1 15 16
M  V30 16 2 16 17
M  V30 17 1 17 18
M  V30 18 2 18 19
M  V30 19 1 19 20
M  V30 20 2 20 21
M  V30 21 1 21 22
M  V30 22 1 13 23
M  V30 23 2 23 24
M  V30 24 1 24 25
M  V30 25 2 25 26
M  V30 26 1 26 1
M  V30 27 1 10 5
M  V30 28 1 25 11
M  V30 29 1 22 14
M  V30 30 1 22 17
M  V30 31 1 1 27
M  V30 32 1 2 28
M  V30 33 1 4 29
M  V30 34 1 5 30
M  V30 35 1 6 31
M  V30 36 1 6 32
M  V30 37 1 7 33
M  V30 38 1 7 34
M  V30 39 1 8 35
M  V30 40 1 9 36
M  V30 41 1 9 37
M  V30 42 1 10 38
M  V30 43 1 10 39
M  V30 44 1 18 40
M  V30 45 1 19 41
M  V30 46 1 20 42
M  V30 47 1 21 43
M  V30 48 1 23 44
M  V30 49 1 24 45
M  V30 50 1 26 46
M  V30 END BOND
M  V30 END CTAB
M  END
>  <Dataset>  (690) 
ChEMBL_Kinases

>  <Ligand_Instance>  (690) 
nan

>  <PDB_ID>  (690) 
nan

>  <Standardized_SMILES>  (690) 
c1cc(NC2CCNCC2)c2nc(-c3nnc4ccccn34)ccc2c1

>  <Name>  (690) 
nan

>  <Pocket>  (690) 
nan

>  <ATP_Site>  (690) 
nan

>  <Peripheral>  (690) 
nan

>  <Num_H_Atoms_ProtBoundConf>  (690) 
nan

>  <Num_Resolved_Atoms>  (690) 
nan

>  <Num_Not_Resolved_Atoms>  (690) 
nan

$$$$
CHEMBL3621496
     RDKit          3D

  0  0  0  0  0  0  0  0  0  0999 V3000
M  V30 BEGIN CTAB
M  V30 COUNTS 55 59 0 0 0
M  V30 BEGIN ATOM
M  V30 1 C 3.645753 -3.913609 0.364180 0
M  V30 2 N 3.778709 -3.235296 -0.883331 0
M  V30 3 C 4.977506 -2.509183 -1.094968 0
M  V30 4 C 4.808714 -1.023612 -1.326051 0
M  V30 5 N 3.516345 -0.560643 -0.859628 0
M  V30 6 C 3.253366 0.402717 0.186445 0
M  V30 7 O 4.243599 0.896545 0.740307 0
M  V30 8 C 1.809143 0.588655 0.370425 0
M  V30 9 C 1.283175 -0.524178 1.047142 0
M  V30 10 C -0.083761 -0.594402 1.335708 0
M  V30 11 C -0.936959 0.425090 0.961389 0
M  V30 12 C -0.380709 1.499528 0.299675 0
M  V30 13 C 0.959250 1.605121 -0.001691 0
M  V30 14 N -1.348179 2.388791 0.007604 0
M  V30 15 C -2.477981 1.850341 0.490739 0
M  V30 16 C -3.754142 2.361514 0.445480 0
M  V30 17 C -4.181871 3.622942 -0.135319 0
M  V30 18 N -3.275234 4.528148 -0.732371 0
M  V30 19 O -5.233421 4.244897 -0.296299 0
M  V30 20 C -4.800768 1.648902 1.001397 0
M  V30 21 C -4.561678 0.424335 1.601889 0
M  V30 22 C -3.293453 -0.117573 1.664597 0
M  V30 23 C -3.028188 -1.417265 2.301289 0
M  V30 24 C -3.113926 -2.530613 1.452021 0
M  V30 25 C -2.894381 -3.826245 1.872759 0
M  V30 26 C -2.571515 -4.022643 3.217528 0
M  V30 27 C -2.484393 -2.925424 4.071006 0
M  V30 28 C -2.710086 -1.618958 3.626387 0
M  V30 29 F -2.639884 -0.535963 4.401118 0
M  V30 30 C -2.279714 0.630604 1.094481 0
M  V30 31 C 2.507932 -1.256895 -1.654823 0
M  V30 32 C 2.582493 -2.734781 -1.456827 0
M  V30 33 H 3.736917 -5.017321 0.136214 0
M  V30 34 H 2.647221 -3.785894 0.855372 0
M  V30 35 H 4.438734 -3.666857 1.080895 0
M  V30 36 H 5.634081 -2.965552 -1.861527 0
M  V30 37 H 5.574159 -2.589725 -0.139715 0
M  V30 38 H 4.846938 -0.867780 -2.424652 0
M  V30 39 H 5.658653 -0.429429 -0.928448 0
M  V30 40 H 1.851855 -1.396672 1.397010 0
M  V30 41 H -0.473316 -1.457427 1.858379 0
M  V30 42 H 1.487499 2.376910 -0.501071 0
M  V30 43 H -1.238798 3.296509 -0.485287 0
M  V30 44 H -3.089394 4.149869 -1.711055 0
M  V30 45 H -2.612382 5.192032 -1.165657 0
M  V30 46 H -5.810757 2.029900 0.978668 0
M  V30 47 H -5.359734 -0.165959 2.051898 0
M  V30 48 H -3.364312 -2.439695 0.383211 0
M  V30 49 H -2.963854 -4.666404 1.205895 0
M  V30 50 H -2.395268 -5.037380 3.564796 0
M  V30 51 H -2.234154 -3.065217 5.121799 0
M  V30 52 H 2.681320 -0.978975 -2.721841 0
M  V30 53 H 1.482155 -0.911064 -1.383609 0
M  V30 54 H 2.434218 -3.224288 -2.456244 0
M  V30 55 H 1.697561 -3.091363 -0.860041 0
M  V30 END ATOM
M  V30 BEGIN BOND
M  V30 1 1 1 2
M  V30 2 1 2 3
M  V30 3 1 3 4
M  V30 4 1 4 5
M  V30 5 1 5 6
M  V30 6 2 6 7
M  V30 7 1 6 8
M  V30 8 2 8 9
M  V30 9 1 9 10
M  V30 10 2 10 11
M  V30 11 1 11 12
M  V30 12 2 12 13
M  V30 13 1 12 14
M  V30 14 1 14 15
M  V30 15 2 15 16
M  V30 16 1 16 17
M  V30 17 1 17 18
M  V30 18 2 17 19
M  V30 19 1 16 20
M  V30 20 2 20 21
M  V30 21 1 21 22
M  V30 22 1 22 23
M  V30 23 2 23 24
M  V30 24 1 24 25
M  V30 25 2 25 26
M  V30 26 1 26 27
M  V30 27 2 27 28
M  V30 28 1 28 29
M  V30 29 2 22 30
M  V30 30 1 5 31
M  V30 31 1 31 32
M  V30 32 1 32 2
M  V30 33 1 13 8
M  V30 34 1 30 15
M  V30 35 1 30 11
M  V30 36 1 28 23
M  V30 37 1 1 33
M  V30 38 1 1 34
M  V30 39 1 1 35
M  V30 40 1 3 36
M  V30 41 1 3 37
M  V30 42 1 4 38
M  V30 43 1 4 39
M  V30 44 1 9 40
M  V30 45 1 10 41
M  V30 46 1 13 42
M  V30 47 1 14 43
M  V30 48 1 18 44
M  V30 49 1 18 45
M  V30 50 1 20 46
M  V30 51 1 21 47
M  V30 52 1 24 48
M  V30 53 1 25 49
M  V30 54 1 26 50
M  V30 55 1 27 51
M  V30 56 1 31 52
M  V30 57 1 31 53
M  V30 58 1 32 54
M  V30 59 1 32 55
M  V30 END BOND
M  V30 END CTAB
M  END
>  <Dataset>  (691) 
ChEMBL_Kinases

>  <Ligand_Instance>  (691) 
nan

>  <PDB_ID>  (691) 
nan

>  <Standardized_SMILES>  (691) 
CN1CCN(C(=O)c2ccc3c(c2)[nH]c2c(C(N)=O)ccc(-c4ccccc4F)c23)CC1

>  <Name>  (691) 
nan

>  <Pocket>  (691) 
nan

>  <ATP_Site>  (691) 
nan

>  <Peripheral>  (691) 
nan

>  <Num_H_Atoms_ProtBoundConf>  (691) 
nan

>  <Num_Resolved_Atoms>  (691) 
nan

>  <Num_Not_Resolved_Atoms>  (691) 
nan

$$$$
CHEMBL3622203
     RDKit          3D

  0  0  0  0  0  0  0  0  0  0999 V3000
M  V30 BEGIN CTAB
M  V30 COUNTS 39 42 0 0 0
M  V30 BEGIN ATOM
M  V30 1 C 1.727674 -2.049872 4.015947 0
M  V30 2 C 0.616226 -2.331654 2.979886 0 CFG=1
M  V30 3 O 0.773736 -1.403696 1.985321 0
M  V30 4 C -0.028335 -0.436465 1.590271 0
M  V30 5 N 0.439989 0.316070 0.557557 0
M  V30 6 C -0.348106 1.338764 0.100033 0
M  V30 7 C 0.153950 2.165616 -1.026336 0
M  V30 8 C -0.467325 3.251446 -1.655173 0
M  V30 9 N 0.390458 3.670636 -2.626791 0
M  V30 10 N 1.474310 2.926408 -2.632733 0
M  V30 11 C 2.626284 3.064478 -3.530094 0
M  V30 12 F 3.311730 4.210637 -3.189921 0
M  V30 13 F 2.084350 3.171285 -4.808546 0
M  V30 14 C 1.364253 1.995794 -1.667137 0
M  V30 15 C -1.590030 1.686240 0.591446 0
M  V30 16 C -2.130455 0.967631 1.639505 0
M  V30 17 N -3.266401 1.092652 2.273907 0
M  V30 18 C -3.656838 0.404839 3.192838 0
M  V30 19 S -2.252172 -0.848538 3.462182 0
M  V30 20 C -1.279588 -0.053332 2.053685 0
M  V30 21 C 0.755233 -3.769881 2.490493 0 CFG=1
M  V30 22 C -0.298470 -4.073741 1.474375 0
M  V30 23 N 0.428998 -4.666732 0.347829 0
M  V30 24 C 1.836644 -4.527084 0.623545 0
M  V30 25 O 2.592697 -4.850482 -0.318212 0
M  V30 26 O 1.998172 -4.047466 1.923363 0
M  V30 27 H 2.721201 -2.179035 3.513130 0
M  V30 28 H 1.595318 -2.819601 4.791887 0
M  V30 29 H 1.564210 -1.047703 4.428011 0
M  V30 30 H -0.310631 -2.309052 3.573717 0
M  V30 31 H -1.428787 3.639577 -1.388985 0
M  V30 32 H 3.226910 2.151067 -3.517784 0
M  V30 33 H 2.066312 1.234990 -1.403658 0
M  V30 34 H -2.135185 2.512947 0.160567 0
M  V30 35 H -4.516118 0.327523 3.837583 0
M  V30 36 H 0.572420 -4.424166 3.377527 0
M  V30 37 H -0.795343 -3.112650 1.155670 0
M  V30 38 H -1.098981 -4.743975 1.804621 0
M  V30 39 H -0.131346 -5.074278 -0.433413 0
M  V30 END ATOM
M  V30 BEGIN BOND
M  V30 1 1 1 2
M  V30 2 1 2 3
M  V30 3 1 3 4
M  V30 4 2 4 5
M  V30 5 1 5 6
M  V30 6 1 6 7
M  V30 7 1 7 8
M  V30 8 2 8 9
M  V30 9 1 9 10
M  V30 10 1 10 11
M  V30 11 1 11 12
M  V30 12 1 11 13
M  V30 13 1 10 14
M  V30 14 2 6 15
M  V30 15 1 15 16
M  V30 16 1 16 17
M  V30 17 2 17 18
M  V30 18 1 18 19
M  V30 19 1 19 20
M  V30 20 1 2 21
M  V30 21 1 21 22
M  V30 22 1 22 23
M  V30 23 1 23 24
M  V30 24 2 24 25
M  V30 25 1 24 26
M  V30 26 1 20 4
M  V30 27 1 26 21
M  V30 28 2 14 7
M  V30 29 2 20 16
M  V30 30 1 1 27
M  V30 31 1 1 28
M  V30 32 1 1 29
M  V30 33 1 2 30 CFG=1
M  V30 34 1 8 31
M  V30 35 1 11 32
M  V30 36 1 14 33
M  V30 37 1 15 34
M  V30 38 1 18 35
M  V30 39 1 21 36 CFG=1
M  V30 40 1 22 37
M  V30 41 1 22 38
M  V30 42 1 23 39
M  V30 END BOND
M  V30 END CTAB
M  END
>  <Dataset>  (692) 
ChEMBL_Kinases

>  <Ligand_Instance>  (692) 
nan

>  <PDB_ID>  (692) 
nan

>  <Standardized_SMILES>  (692) 
C[C@@H](Oc1nc(-c2cnn(C(F)F)c2)cc2ncsc12)[C@H]1CNC(=O)O1

>  <Name>  (692) 
nan

>  <Pocket>  (692) 
nan

>  <ATP_Site>  (692) 
nan

>  <Peripheral>  (692) 
nan

>  <Num_H_Atoms_ProtBoundConf>  (692) 
nan

>  <Num_Resolved_Atoms>  (692) 
nan

>  <Num_Not_Resolved_Atoms>  (692) 
nan

$$$$
CHEMBL4075992
     RDKit          3D

  0  0  0  0  0  0  0  0  0  0999 V3000
M  V30 BEGIN CTAB
M  V30 COUNTS 56 59 0 0 0
M  V30 BEGIN ATOM
M  V30 1 C 4.809657 -1.762920 3.503034 0
M  V30 2 O 4.685753 -0.616767 2.682555 0
M  V30 3 C 5.241821 0.606642 2.941068 0
M  V30 4 C 6.000863 0.789964 4.093202 0
M  V30 5 C 6.586751 2.006046 4.404886 0
M  V30 6 C 6.430190 3.100279 3.558584 0
M  V30 7 C 5.676777 2.931257 2.407951 0
M  V30 8 C 5.100787 1.714845 2.112944 0
M  V30 9 C 4.287368 1.480013 0.899302 0
M  V30 10 N 2.881641 1.430182 1.157918 0
M  V30 11 C 1.905266 1.214883 0.145016 0
M  V30 12 O 2.439179 1.075694 -0.995409 0
M  V30 13 C 0.472326 1.165824 0.418815 0
M  V30 14 C -0.040846 1.328304 1.687994 0
M  V30 15 C -1.404235 1.273980 1.899709 0
M  V30 16 C -2.191568 1.052197 0.783308 0
M  V30 17 C -1.732698 0.884429 -0.494818 0
M  V30 18 N -2.547772 0.646993 -1.623667 0
M  V30 19 C -3.980017 0.490639 -1.703792 0
M  V30 20 C -4.317106 -0.806116 -1.010856 0
M  V30 21 N -4.653103 -1.197512 0.215983 0
M  V30 22 N -4.819589 -2.498196 0.181686 0
M  V30 23 C -4.605687 -3.010490 -1.041329 0
M  V30 24 C -4.737010 -4.437801 -1.303039 0
M  V30 25 C -3.574123 -5.172205 -1.467995 0
M  V30 26 C -3.635680 -6.519732 -1.716109 0
M  V30 27 N -4.817936 -7.153736 -1.804385 0
M  V30 28 C -5.976092 -6.476456 -1.650083 0
M  V30 29 C -5.947045 -5.110503 -1.397696 0
M  V30 30 N -4.289948 -1.933761 -1.782771 0
M  V30 31 C -3.982397 -2.102973 -3.210519 0
M  V30 32 C -0.371813 0.949214 -0.638364 0
M  V30 33 H 4.809588 -1.464044 4.587412 0
M  V30 34 H 5.797443 -2.206512 3.294289 0
M  V30 35 H 3.963794 -2.431641 3.258998 0
M  V30 36 H 6.190752 0.032849 4.812815 0
M  V30 37 H 7.182094 2.163668 5.301319 0
M  V30 38 H 6.891628 4.044841 3.811032 0
M  V30 39 H 5.524819 3.751419 1.716416 0
M  V30 40 H 4.557732 2.306634 0.185921 0
M  V30 41 H 4.585209 0.525100 0.415864 0
M  V30 42 H 2.591635 1.562377 2.151739 0
M  V30 43 H 0.600116 1.498358 2.529069 0
M  V30 44 H -1.811050 1.400683 2.892561 0
M  V30 45 H -3.247340 1.025684 0.984108 0
M  V30 46 H -2.078603 0.564738 -2.565905 0
M  V30 47 H -4.512172 1.304693 -1.143830 0
M  V30 48 H -4.373877 0.514122 -2.720586 0
M  V30 49 H -2.612017 -4.729653 -1.409777 0
M  V30 50 H -2.785525 -7.186757 -1.860478 0
M  V30 51 H -6.973604 -6.927384 -1.708947 0
M  V30 52 H -6.830775 -4.487523 -1.260181 0
M  V30 53 H -4.462598 -2.984315 -3.628002 0
M  V30 54 H -2.889809 -2.021721 -3.382484 0
M  V30 55 H -4.438555 -1.226650 -3.757948 0
M  V30 56 H 0.050903 0.822956 -1.633681 0
M  V30 END ATOM
M  V30 BEGIN BOND
M  V30 1 1 1 2
M  V30 2 1 2 3
M  V30 3 2 3 4
M  V30 4 1 4 5
M  V30 5 2 5 6
M  V30 6 1 6 7
M  V30 7 2 7 8
M  V30 8 1 8 9
M  V30 9 1 9 10
M  V30 10 1 10 11
M  V30 11 2 11 12
M  V30 12 1 11 13
M  V30 13 2 13 14
M  V30 14 1 14 15
M  V30 15 2 15 16
M  V30 16 1 16 17
M  V30 17 1 17 18
M  V30 18 1 18 19
M  V30 19 1 19 20
M  V30 20 2 20 21
M  V30 21 1 21 22
M  V30 22 2 22 23
M  V30 23 1 23 24
M  V30 24 2 24 25
M  V30 25 1 25 26
M  V30 26 2 26 27
M  V30 27 1 27 28
M  V30 28 2 28 29
M  V30 29 1 23 30
M  V30 30 1 30 31
M  V30 31 2 17 32
M  V30 32 1 8 3
M  V30 33 1 32 13
M  V30 34 1 30 20
M  V30 35 1 29 24
M  V30 36 1 1 33
M  V30 37 1 1 34
M  V30 38 1 1 35
M  V30 39 1 4 36
M  V30 40 1 5 37
M  V30 41 1 6 38
M  V30 42 1 7 39
M  V30 43 1 9 40
M  V30 44 1 9 41
M  V30 45 1 10 42
M  V30 46 1 14 43
M  V30 47 1 15 44
M  V30 48 1 16 45
M  V30 49 1 18 46
M  V30 50 1 19 47
M  V30 51 1 19 48
M  V30 52 1 25 49
M  V30 53 1 26 50
M  V30 54 1 28 51
M  V30 55 1 29 52
M  V30 56 1 31 53
M  V30 57 1 31 54
M  V30 58 1 31 55
M  V30 59 1 32 56
M  V30 END BOND
M  V30 END CTAB
M  END
>  <Dataset>  (693) 
ChEMBL_Kinases

>  <Ligand_Instance>  (693) 
nan

>  <PDB_ID>  (693) 
nan

>  <Standardized_SMILES>  (693) 
COc1ccccc1CNC(=O)c1cccc(NCc2nnc(-c3ccncc3)n2C)c1

>  <Name>  (693) 
nan

>  <Pocket>  (693) 
nan

>  <ATP_Site>  (693) 
nan

>  <Peripheral>  (693) 
nan

>  <Num_H_Atoms_ProtBoundConf>  (693) 
nan

>  <Num_Resolved_Atoms>  (693) 
nan

>  <Num_Not_Resolved_Atoms>  (693) 
nan

$$$$
CHEMBL3622821
     RDKit          3D

  0  0  0  0  0  0  0  0  0  0999 V3000
M  V30 BEGIN CTAB
M  V30 COUNTS 46 49 0 0 0
M  V30 BEGIN ATOM
M  V30 1 C -3.741771 0.339360 -0.594639 0
M  V30 2 C -2.269753 0.031063 -0.754925 0
M  V30 3 C -1.843796 -1.102375 0.130784 0 CFG=2
M  V30 4 C -2.032560 -0.895875 1.569076 0
M  V30 5 N -0.791871 -1.251989 2.189512 0
M  V30 6 C -0.162178 -0.777605 3.386621 0
M  V30 7 O 0.946638 -1.246705 3.738862 0
M  V30 8 N -0.761105 0.215562 4.192189 0
M  V30 9 C -0.295440 0.815573 5.407983 0
M  V30 10 C 1.015476 1.546645 5.277456 0
M  V30 11 F 2.047000 0.758314 4.873989 0
M  V30 12 F 1.285407 2.062643 6.551262 0
M  V30 13 F 0.860058 2.656313 4.451585 0
M  V30 14 C -0.263965 -2.266441 1.303732 0
M  V30 15 C -0.472416 -1.598826 -0.078347 0 CFG=2
M  V30 16 C 0.587858 -0.624824 -0.192710 0
M  V30 17 C 0.534579 0.571363 0.491798 0
M  V30 18 N 1.627546 1.308691 0.229296 0
M  V30 19 C 2.414214 0.619563 -0.624250 0
M  V30 20 C 3.632720 0.897556 -1.210549 0
M  V30 21 N 4.192440 -0.002937 -2.037320 0
M  V30 22 C 3.557304 -1.164403 -2.282532 0
M  V30 23 N 3.946746 -2.190003 -3.066723 0
M  V30 24 C 2.943966 -3.110409 -2.953901 0
M  V30 25 C 1.970119 -2.631208 -2.109446 0
M  V30 26 C 2.354608 -1.389827 -1.677642 0
M  V30 27 N 1.752844 -0.530937 -0.848884 0
M  V30 28 H -3.950633 1.401193 -0.867456 0
M  V30 29 H -4.092366 0.183217 0.451155 0
M  V30 30 H -4.387266 -0.300242 -1.224537 0
M  V30 31 H -2.160087 -0.333237 -1.814804 0
M  V30 32 H -1.614392 0.920228 -0.709834 0
M  V30 33 H -2.536444 -1.977040 -0.132372 0
M  V30 34 H -2.834118 -1.546542 2.014159 0
M  V30 35 H -2.230075 0.167880 1.864812 0
M  V30 36 H -1.692359 0.559791 3.833463 0
M  V30 37 H -0.108296 -0.017591 6.154794 0
M  V30 38 H -1.027612 1.474940 5.879116 0
M  V30 39 H -0.862796 -3.187137 1.376626 0
M  V30 40 H 0.793985 -2.388162 1.520681 0
M  V30 41 H -0.521616 -2.384320 -0.854427 0
M  V30 42 H -0.139794 1.043191 1.158374 0
M  V30 43 H 4.119292 1.837192 -0.995448 0
M  V30 44 H 4.846286 -2.216754 -3.624348 0
M  V30 45 H 3.083640 -4.031934 -3.531452 0
M  V30 46 H 1.168282 -3.289425 -1.972877 0
M  V30 END ATOM
M  V30 BEGIN BOND
M  V30 1 1 1 2
M  V30 2 1 2 3
M  V30 3 1 3 4
M  V30 4 1 4 5
M  V30 5 1 5 6
M  V30 6 2 6 7
M  V30 7 1 6 8
M  V30 8 1 8 9
M  V30 9 1 9 10
M  V30 10 1 10 11
M  V30 11 1 10 12
M  V30 12 1 10 13
M  V30 13 1 5 14
M  V30 14 1 14 15
M  V30 15 1 15 16
M  V30 16 2 16 17
M  V30 17 1 17 18
M  V30 18 2 18 19
M  V30 19 1 19 20
M  V30 20 2 20 21
M  V30 21 1 21 22
M  V30 22 1 22 23
M  V30 23 1 23 24
M  V30 24 2 24 25
M  V30 25 1 25 26
M  V30 26 1 26 27
M  V30 27 1 15 3
M  V30 28 1 27 16
M  V30 29 1 27 19
M  V30 30 2 26 22
M  V30 31 1 1 28
M  V30 32 1 1 29
M  V30 33 1 1 30
M  V30 34 1 2 31
M  V30 35 1 2 32
M  V30 36 1 3 33 CFG=3
M  V30 37 1 4 34
M  V30 38 1 4 35
M  V30 39 1 8 36
M  V30 40 1 9 37
M  V30 41 1 9 38
M  V30 42 1 14 39
M  V30 43 1 14 40
M  V30 44 1 15 41 CFG=3
M  V30 45 1 17 42
M  V30 46 1 20 43
M  V30 47 1 23 44
M  V30 48 1 24 45
M  V30 49 1 25 46
M  V30 END BOND
M  V30 END CTAB
M  END
>  <Dataset>  (694) 
ChEMBL_Kinases

>  <Ligand_Instance>  (694) 
nan

>  <PDB_ID>  (694) 
nan

>  <Standardized_SMILES>  (694) 
CC[C@@H]1CN(C(=O)NCC(F)(F)F)C[C@@H]1c1cnc2cnc3[nH]ccc3n12

>  <Name>  (694) 
UPADACITINIB

>  <Pocket>  (694) 
nan

>  <ATP_Site>  (694) 
nan

>  <Peripheral>  (694) 
nan

>  <Num_H_Atoms_ProtBoundConf>  (694) 
nan

>  <Num_Resolved_Atoms>  (694) 
nan

>  <Num_Not_Resolved_Atoms>  (694) 
nan

$$$$
CHEMBL4075959
     RDKit          3D

  0  0  0  0  0  0  0  0  0  0999 V3000
M  V30 BEGIN CTAB
M  V30 COUNTS 38 41 0 0 0
M  V30 BEGIN ATOM
M  V30 1 O 0.842654 -4.680938 6.476845 0
M  V30 2 N 0.091823 -4.353006 5.539665 0 CHG=1 VAL=4
M  V30 3 O -1.195118 -4.762204 5.686891 0 CHG=-1 VAL=1
M  V30 4 C 0.634966 -3.611518 4.450598 0
M  V30 5 C -0.210269 -3.260999 3.429247 0
M  V30 6 C 0.122517 -2.543032 2.285989 0
M  V30 7 C 1.464326 -2.160255 2.211675 0
M  V30 8 C 1.892332 -1.401310 1.038252 0
M  V30 9 C 3.185276 -1.496003 0.514372 0
M  V30 10 N 3.549390 -0.775560 -0.578680 0
M  V30 11 C 2.662746 0.052590 -1.185301 0
M  V30 12 N 2.761168 0.872358 -2.271615 0
M  V30 13 C 1.565301 1.499197 -2.469485 0
M  V30 14 C 0.671902 1.102968 -1.523342 0
M  V30 15 C -0.711750 1.531265 -1.376958 0
M  V30 16 C -1.723814 0.599911 -1.131717 0
M  V30 17 C -3.036134 1.060516 -0.998690 0
M  V30 18 C -3.373312 2.397423 -1.099636 0
M  V30 19 O -4.679242 2.848413 -0.966470 0
M  V30 20 C -2.327433 3.232772 -1.338979 0
M  V30 21 C -0.998543 2.893535 -1.487777 0
M  V30 22 C 1.368840 0.207685 -0.737382 0
M  V30 23 C 1.039739 -0.536696 0.368532 0
M  V30 24 C 2.341840 -2.496463 3.222012 0
M  V30 25 C 1.951832 -3.215399 4.340723 0
M  V30 26 H -1.266872 -3.560902 3.485060 0
M  V30 27 H -0.614052 -2.314815 1.535413 0
M  V30 28 H 3.866369 -2.169798 1.028035 0
M  V30 29 H 3.605897 1.018680 -2.877216 0
M  V30 30 H 1.349283 2.207333 -3.258022 0
M  V30 31 H -1.511619 -0.463441 -1.043694 0
M  V30 32 H -3.800298 0.313970 -0.808689 0
M  V30 33 H -5.329043 2.368271 -0.364772 0
M  V30 34 H -2.533183 4.303462 -1.428846 0
M  V30 35 H -0.233456 3.635778 -1.677343 0
M  V30 36 H 0.050233 -0.470218 0.777316 0
M  V30 37 H 3.396032 -2.195841 3.163793 0
M  V30 38 H 2.604391 -3.498863 5.152378 0
M  V30 END ATOM
M  V30 BEGIN BOND
M  V30 1 2 1 2
M  V30 2 1 2 3
M  V30 3 1 2 4
M  V30 4 2 4 5
M  V30 5 1 5 6
M  V30 6 2 6 7
M  V30 7 1 7 8
M  V30 8 2 8 9
M  V30 9 1 9 10
M  V30 10 2 10 11
M  V30 11 1 11 12
M  V30 12 1 12 13
M  V30 13 2 13 14
M  V30 14 1 14 15
M  V30 15 2 15 16
M  V30 16 1 16 17
M  V30 17 2 17 18
M  V30 18 1 18 19
M  V30 19 1 18 20
M  V30 20 2 20 21
M  V30 21 1 14 22
M  V30 22 2 22 23
M  V30 23 1 7 24
M  V30 24 2 24 25
M  V30 25 1 25 4
M  V30 26 1 23 8
M  V30 27 1 22 11
M  V30 28 1 21 15
M  V30 29 1 5 26
M  V30 30 1 6 27
M  V30 31 1 9 28
M  V30 32 1 12 29
M  V30 33 1 13 30
M  V30 34 1 16 31
M  V30 35 1 17 32
M  V30 36 1 19 33
M  V30 37 1 20 34
M  V30 38 1 21 35
M  V30 39 1 23 36
M  V30 40 1 24 37
M  V30 41 1 25 38
M  V30 END BOND
M  V30 END CTAB
M  END
>  <Dataset>  (695) 
ChEMBL_Kinases

>  <Ligand_Instance>  (695) 
nan

>  <PDB_ID>  (695) 
nan

>  <Standardized_SMILES>  (695) 
O=[N+]([O-])c1ccc(-c2cnc3[nH]cc(-c4ccc(O)cc4)c3c2)cc1

>  <Name>  (695) 
nan

>  <Pocket>  (695) 
nan

>  <ATP_Site>  (695) 
nan

>  <Peripheral>  (695) 
nan

>  <Num_H_Atoms_ProtBoundConf>  (695) 
nan

>  <Num_Resolved_Atoms>  (695) 
nan

>  <Num_Not_Resolved_Atoms>  (695) 
nan

$$$$
CHEMBL4075828
     RDKit          3D

  0  0  0  0  0  0  0  0  0  0999 V3000
M  V30 BEGIN CTAB
M  V30 COUNTS 59 63 0 0 0
M  V30 BEGIN ATOM
M  V30 1 C 6.081789 -0.807646 3.775236 0
M  V30 2 C 5.763881 0.355868 2.918465 0
M  V30 3 O 6.056979 0.405254 1.686054 0
M  V30 4 N 5.104427 1.516518 3.392226 0
M  V30 5 C 4.704895 2.736520 2.747393 0
M  V30 6 C 3.775986 2.588099 1.633882 0
M  V30 7 O 3.598033 3.804444 1.262349 0
M  V30 8 N 3.071132 1.586715 0.902417 0
M  V30 9 C 2.858024 0.146315 0.837193 0 CFG=2
M  V30 10 C 3.309347 -0.102547 -0.592651 0
M  V30 11 C 2.902050 1.163676 -1.323294 0
M  V30 12 C 2.213772 1.929022 -0.224934 0 CFG=1
M  V30 13 C 0.955368 1.241693 0.097700 0
M  V30 14 C -0.427396 1.351310 -0.061680 0
M  V30 15 C -1.301389 0.407515 0.431670 0
M  V30 16 N -2.700522 0.582807 0.195854 0
M  V30 17 C -3.602798 -0.406714 0.661439 0
M  V30 18 N -4.437309 -0.470011 1.740185 0
M  V30 19 C -5.193863 -1.549051 1.968101 0
M  V30 20 C -5.218154 -2.683073 1.167151 0
M  V30 21 C -6.038766 -3.873243 1.399425 0
M  V30 22 F -6.776692 -3.655054 2.570030 0
M  V30 23 F -5.188271 -4.935779 1.676316 0
M  V30 24 F -6.894861 -4.148325 0.350679 0
M  V30 25 C -4.351059 -2.597286 0.063442 0
M  V30 26 N -4.251456 -3.707272 -0.857323 0
M  V30 27 C -3.411092 -3.742105 -2.007300 0
M  V30 28 C -1.935495 -3.539010 -1.745711 0
M  V30 29 C -1.875163 -2.706142 -3.002954 0
M  V30 30 C -3.382548 -2.573097 -2.930331 0
M  V30 31 N -3.614524 -1.496026 -0.122704 0
M  V30 32 C -0.816589 -0.687122 1.109399 0
M  V30 33 C 0.567324 -0.836965 1.293049 0
M  V30 34 C 1.384297 0.119245 0.786016 0
M  V30 35 H 5.813199 -1.787269 3.308253 0
M  V30 36 H 5.464926 -0.736769 4.701628 0
M  V30 37 H 7.146301 -0.858394 4.048751 0
M  V30 38 H 4.888674 1.413966 4.436760 0
M  V30 39 H 4.236822 3.397280 3.521810 0
M  V30 40 H 5.643816 3.260702 2.466505 0
M  V30 41 H 3.344695 -0.448794 1.582973 0
M  V30 42 H 2.640907 -0.903844 -0.996079 0
M  V30 43 H 4.365246 -0.361676 -0.682935 0
M  V30 44 H 3.844539 1.651485 -1.658297 0
M  V30 45 H 2.245781 0.982470 -2.192700 0
M  V30 46 H 2.128239 2.999676 -0.401283 0
M  V30 47 H -0.733960 2.244266 -0.601273 0
M  V30 48 H -3.086312 1.398075 -0.299736 0
M  V30 49 H -5.824200 -1.527470 2.836040 0
M  V30 50 H -4.863258 -4.551700 -0.633560 0
M  V30 51 H -3.542839 -4.676314 -2.582840 0
M  V30 52 H -1.341987 -4.479030 -1.823725 0
M  V30 53 H -1.712272 -2.934587 -0.841548 0
M  V30 54 H -1.511828 -3.249126 -3.901673 0
M  V30 55 H -1.309852 -1.756098 -2.938926 0
M  V30 56 H -3.663515 -1.615139 -2.495773 0
M  V30 57 H -3.790797 -2.771204 -3.954566 0
M  V30 58 H -1.532210 -1.404062 1.481611 0
M  V30 59 H 0.889397 -1.719913 1.833342 0
M  V30 END ATOM
M  V30 BEGIN BOND
M  V30 1 1 1 2
M  V30 2 2 2 3
M  V30 3 1 2 4
M  V30 4 1 4 5
M  V30 5 1 5 6
M  V30 6 2 6 7
M  V30 7 1 6 8
M  V30 8 1 8 9
M  V30 9 1 9 10
M  V30 10 1 10 11
M  V30 11 1 11 12
M  V30 12 1 12 13
M  V30 13 2 13 14
M  V30 14 1 14 15
M  V30 15 1 15 16
M  V30 16 1 16 17
M  V30 17 2 17 18
M  V30 18 1 18 19
M  V30 19 2 19 20
M  V30 20 1 20 21
M  V30 21 1 21 22
M  V30 22 1 21 23
M  V30 23 1 21 24
M  V30 24 1 20 25
M  V30 25 1 25 26
M  V30 26 1 26 27
M  V30 27 1 27 28
M  V30 28 1 28 29
M  V30 29 1 29 30
M  V30 30 2 25 31
M  V30 31 2 15 32
M  V30 32 1 32 33
M  V30 33 2 33 34
M  V30 34 1 12 8
M  V30 35 1 34 13
M  V30 36 1 34 9
M  V30 37 1 31 17
M  V30 38 1 30 27
M  V30 39 1 1 35
M  V30 40 1 1 36
M  V30 41 1 1 37
M  V30 42 1 4 38
M  V30 43 1 5 39
M  V30 44 1 5 40
M  V30 45 1 9 41 CFG=1
M  V30 46 1 10 42
M  V30 47 1 10 43
M  V30 48 1 11 44
M  V30 49 1 11 45
M  V30 50 1 12 46 CFG=3
M  V30 51 1 14 47
M  V30 52 1 16 48
M  V30 53 1 19 49
M  V30 54 1 26 50
M  V30 55 1 27 51
M  V30 56 1 28 52
M  V30 57 1 28 53
M  V30 58 1 29 54
M  V30 59 1 29 55
M  V30 60 1 30 56
M  V30 61 1 30 57
M  V30 62 1 32 58
M  V30 63 1 33 59
M  V30 END BOND
M  V30 END CTAB
M  END
>  <Dataset>  (696) 
ChEMBL_Kinases

>  <Ligand_Instance>  (696) 
nan

>  <PDB_ID>  (696) 
nan

>  <Standardized_SMILES>  (696) 
CC(=O)NCC(=O)N1[C@@H]2CC[C@H]1c1cc(Nc3ncc(C(F)(F)F)c(NC4CCC4)n3)ccc12

>  <Name>  (696) 
nan

>  <Pocket>  (696) 
nan

>  <ATP_Site>  (696) 
nan

>  <Peripheral>  (696) 
nan

>  <Num_H_Atoms_ProtBoundConf>  (696) 
nan

>  <Num_Resolved_Atoms>  (696) 
nan

>  <Num_Not_Resolved_Atoms>  (696) 
nan

$$$$
CHEMBL4077195
     RDKit          3D

  0  0  0  0  0  0  0  0  0  0999 V3000
M  V30 BEGIN CTAB
M  V30 COUNTS 42 44 0 0 0
M  V30 BEGIN ATOM
M  V30 1 O 0.463029 -0.550371 -0.187781 0
M  V30 2 C 0.365432 0.722194 -0.360425 0
M  V30 3 N 0.385391 1.317953 -1.602792 0
M  V30 4 C 0.543649 0.406756 -2.683244 0
M  V30 5 C 1.926017 0.278859 -2.894394 0
M  V30 6 C 2.434399 -0.535360 -3.888486 0
M  V30 7 C 1.445200 -1.178479 -4.613724 0
M  V30 8 N 0.106618 -1.091925 -4.452664 0
M  V30 9 C -0.365810 -0.272535 -3.455160 0
M  V30 10 C 0.303016 0.587296 1.038993 0
M  V30 11 C 0.358763 2.090475 1.082728 0
M  V30 12 C 0.348830 3.003871 2.187927 0
M  V30 13 C 0.398348 4.491049 2.434206 0
M  V30 14 F 1.450557 4.800175 3.262146 0
M  V30 15 F -0.787897 4.940749 2.938780 0
M  V30 16 F 0.618040 5.082253 1.206196 0
M  V30 17 C 0.275483 2.461800 3.490423 0
M  V30 18 C 0.219543 1.085640 3.564155 0
M  V30 19 C 0.243583 0.458910 2.371466 0
M  V30 20 O 0.196040 -0.959975 2.124021 0
M  V30 21 C 0.119951 -1.835859 3.201827 0
M  V30 22 C 0.052414 -3.232700 2.736351 0
M  V30 23 C -1.180537 -3.759669 2.527451 0
M  V30 24 C -1.335533 -5.075389 2.101457 0
M  V30 25 C -0.195975 -5.827378 1.897982 0
M  V30 26 F -0.319350 -7.099967 1.486862 0
M  V30 27 C 1.039890 -5.253496 2.121151 0
M  V30 28 C 1.200391 -3.951712 2.543033 0
M  V30 29 H 0.265197 2.311780 -1.352692 0
M  V30 30 H 2.749170 0.768549 -2.343060 0
M  V30 31 H 3.479253 -0.688086 -4.117135 0
M  V30 32 H 1.720217 -1.845880 -5.426837 0
M  V30 33 H -1.375122 -0.052513 -3.151854 0
M  V30 34 H 0.424005 3.015503 0.404450 0
M  V30 35 H 0.251075 2.791926 4.501752 0
M  V30 36 H 0.160827 0.316154 4.314485 0
M  V30 37 H 0.984772 -1.715513 3.908641 0
M  V30 38 H -0.775549 -1.658072 3.857141 0
M  V30 39 H -2.079211 -3.205372 2.675257 0
M  V30 40 H -2.341116 -5.482600 1.939523 0
M  V30 41 H 1.896331 -5.894770 1.945048 0
M  V30 42 H 2.195559 -3.556818 2.698509 0
M  V30 END ATOM
M  V30 BEGIN BOND
M  V30 1 2 1 2
M  V30 2 1 2 3
M  V30 3 1 3 4
M  V30 4 2 4 5
M  V30 5 1 5 6
M  V30 6 2 6 7
M  V30 7 1 7 8
M  V30 8 2 8 9
M  V30 9 1 2 10
M  V30 10 2 10 11
M  V30 11 1 11 12
M  V30 12 1 12 13
M  V30 13 1 13 14
M  V30 14 1 13 15
M  V30 15 1 13 16
M  V30 16 2 12 17
M  V30 17 1 17 18
M  V30 18 2 18 19
M  V30 19 1 19 20
M  V30 20 1 20 21
M  V30 21 1 21 22
M  V30 22 2 22 23
M  V30 23 1 23 24
M  V30 24 2 24 25
M  V30 25 1 25 26
M  V30 26 1 25 27
M  V30 27 2 27 28
M  V30 28 1 9 4
M  V30 29 1 19 10
M  V30 30 1 28 22
M  V30 31 1 3 29
M  V30 32 1 5 30
M  V30 33 1 6 31
M  V30 34 1 7 32
M  V30 35 1 9 33
M  V30 36 1 11 34
M  V30 37 1 17 35
M  V30 38 1 18 36
M  V30 39 1 21 37
M  V30 40 1 21 38
M  V30 41 1 23 39
M  V30 42 1 24 40
M  V30 43 1 27 41
M  V30 44 1 28 42
M  V30 END BOND
M  V30 END CTAB
M  END
>  <Dataset>  (697) 
ChEMBL_Kinases

>  <Ligand_Instance>  (697) 
nan

>  <PDB_ID>  (697) 
nan

>  <Standardized_SMILES>  (697) 
O=C(Nc1cccnc1)c1cc(C(F)(F)F)ccc1OCc1ccc(F)cc1

>  <Name>  (697) 
nan

>  <Pocket>  (697) 
nan

>  <ATP_Site>  (697) 
nan

>  <Peripheral>  (697) 
nan

>  <Num_H_Atoms_ProtBoundConf>  (697) 
nan

>  <Num_Resolved_Atoms>  (697) 
nan

>  <Num_Not_Resolved_Atoms>  (697) 
nan

$$$$
CHEMBL4075720
     RDKit          3D

  0  0  0  0  0  0  0  0  0  0999 V3000
M  V30 BEGIN CTAB
M  V30 COUNTS 56 60 0 0 0
M  V30 BEGIN ATOM
M  V30 1 C 2.213381 -3.102598 1.898062 0
M  V30 2 N 3.430118 -2.946315 1.149284 0
M  V30 3 C 4.371968 -2.045278 1.758092 0
M  V30 4 C 4.485090 -0.723544 1.070752 0
M  V30 5 N 4.768906 -0.800074 -0.320294 0
M  V30 6 C 4.496424 0.357128 -1.078415 0
M  V30 7 C 3.119053 0.850635 -1.103703 0
M  V30 8 C 2.614122 1.765592 -0.198283 0
M  V30 9 C 1.300960 2.187839 -0.282002 0
M  V30 10 C 0.541733 1.651809 -1.302341 0
M  V30 11 N -0.839232 2.043036 -1.456473 0
M  V30 12 C -1.686161 1.185809 -0.711392 0
M  V30 13 O -1.034919 0.298529 -0.100821 0
M  V30 14 C -3.126699 1.329067 -0.669552 0
M  V30 15 N -3.775761 2.296630 -1.342933 0
M  V30 16 N -5.079436 2.209228 -1.138976 0
M  V30 17 C -5.237079 1.157015 -0.315967 0
M  V30 18 C -4.037598 0.561316 0.014596 0
M  V30 19 N -3.793729 -0.542610 0.835162 0
M  V30 20 C -4.761826 -1.316299 1.529739 0
M  V30 21 N -6.035021 -0.967648 1.394848 0
M  V30 22 C -7.049468 -1.581105 1.971336 0
M  V30 23 N -6.785489 -2.637888 2.754817 0
M  V30 24 C -5.533751 -3.038641 2.931941 0
M  V30 25 S -4.718457 -4.395794 3.888553 0
M  V30 26 C -2.994764 -3.990885 3.398219 0
M  V30 27 C -3.157693 -2.867477 2.553023 0
M  V30 28 C -4.408349 -2.383919 2.312221 0
M  V30 29 C 0.982429 0.730849 -2.245076 0
M  V30 30 C 2.305804 0.338650 -2.119183 0
M  V30 31 C 4.332781 -2.040900 -0.856070 0
M  V30 32 C 3.050138 -2.441915 -0.179342 0
M  V30 33 H 1.305888 -3.031814 1.245133 0
M  V30 34 H 2.133225 -4.105367 2.380261 0
M  V30 35 H 2.150125 -2.275542 2.630721 0
M  V30 36 H 5.325331 -2.570970 1.884213 0
M  V30 37 H 3.986786 -1.841317 2.786730 0
M  V30 38 H 5.325331 -0.172807 1.544367 0
M  V30 39 H 3.582282 -0.104351 1.308583 0
M  V30 40 H 5.113726 1.196618 -0.641170 0
M  V30 41 H 4.875595 0.244318 -2.112752 0
M  V30 42 H 3.238780 2.153673 0.574971 0
M  V30 43 H 0.857239 2.901916 0.401720 0
M  V30 44 H -1.255288 2.838149 -2.021231 0
M  V30 45 H -5.790792 2.849617 -1.555040 0
M  V30 46 H -6.235975 0.893938 -0.009366 0
M  V30 47 H -2.778025 -0.830804 0.949460 0
M  V30 48 H -8.104263 -1.348288 1.902563 0
M  V30 49 H -2.155541 -4.522636 3.718813 0
M  V30 50 H -2.236440 -2.483062 2.162014 0
M  V30 51 H 0.349190 0.349792 -3.013861 0
M  V30 52 H 2.679790 -0.374085 -2.833416 0
M  V30 53 H 5.110848 -2.799027 -0.543884 0
M  V30 54 H 4.302154 -2.119448 -1.955861 0
M  V30 55 H 2.517896 -3.200845 -0.762664 0
M  V30 56 H 2.368169 -1.593765 0.042720 0
M  V30 END ATOM
M  V30 BEGIN BOND
M  V30 1 1 1 2
M  V30 2 1 2 3
M  V30 3 1 3 4
M  V30 4 1 4 5
M  V30 5 1 5 6
M  V30 6 1 6 7
M  V30 7 2 7 8
M  V30 8 1 8 9
M  V30 9 2 9 10
M  V30 10 1 10 11
M  V30 11 1 11 12
M  V30 12 2 12 13
M  V30 13 1 12 14
M  V30 14 2 14 15
M  V30 15 1 15 16
M  V30 16 1 16 17
M  V30 17 2 17 18
M  V30 18 1 18 19
M  V30 19 1 19 20
M  V30 20 2 20 21
M  V30 21 1 21 22
M  V30 22 2 22 23
M  V30 23 1 23 24
M  V30 24 1 24 25
M  V30 25 1 25 26
M  V30 26 2 26 27
M  V30 27 1 27 28
M  V30 28 1 10 29
M  V30 29 2 29 30
M  V30 30 1 5 31
M  V30 31 1 31 32
M  V30 32 1 32 2
M  V30 33 1 30 7
M  V30 34 1 18 14
M  V30 35 1 28 20
M  V30 36 2 28 24
M  V30 37 1 1 33
M  V30 38 1 1 34
M  V30 39 1 1 35
M  V30 40 1 3 36
M  V30 41 1 3 37
M  V30 42 1 4 38
M  V30 43 1 4 39
M  V30 44 1 6 40
M  V30 45 1 6 41
M  V30 46 1 8 42
M  V30 47 1 9 43
M  V30 48 1 11 44
M  V30 49 1 16 45
M  V30 50 1 17 46
M  V30 51 1 19 47
M  V30 52 1 22 48
M  V30 53 1 26 49
M  V30 54 1 27 50
M  V30 55 1 29 51
M  V30 56 1 30 52
M  V30 57 1 31 53
M  V30 58 1 31 54
M  V30 59 1 32 55
M  V30 60 1 32 56
M  V30 END BOND
M  V30 END CTAB
M  END
>  <Dataset>  (698) 
ChEMBL_Kinases

>  <Ligand_Instance>  (698) 
nan

>  <PDB_ID>  (698) 
nan

>  <Standardized_SMILES>  (698) 
CN1CCN(Cc2ccc(NC(=O)c3n[nH]cc3Nc3ncnc4sccc34)cc2)CC1

>  <Name>  (698) 
nan

>  <Pocket>  (698) 
nan

>  <ATP_Site>  (698) 
nan

>  <Peripheral>  (698) 
nan

>  <Num_H_Atoms_ProtBoundConf>  (698) 
nan

>  <Num_Resolved_Atoms>  (698) 
nan

>  <Num_Not_Resolved_Atoms>  (698) 
nan

$$$$
CHEMBL4075702
     RDKit          3D

  0  0  0  0  0  0  0  0  0  0999 V3000
M  V30 BEGIN CTAB
M  V30 COUNTS 38 40 0 0 0
M  V30 BEGIN ATOM
M  V30 1 C -0.256422 -4.069256 3.850838 0
M  V30 2 S 0.248398 -2.328480 4.110975 0
M  V30 3 C 0.997053 -1.677076 2.613029 0
M  V30 4 C 2.334013 -1.726415 2.274385 0
M  V30 5 Cl 3.620082 -2.446528 3.244473 0
M  V30 6 C 2.420646 -1.105521 1.050118 0
M  V30 7 C 3.566750 -0.912656 0.306692 0
M  V30 8 Cl 5.162068 -1.435903 0.797215 0
M  V30 9 C 3.434450 -0.263616 -0.900861 0
M  V30 10 C 2.146744 0.134671 -1.250446 0
M  V30 11 C 2.020431 0.826429 -2.542471 0
M  V30 12 N 0.766810 1.289620 -3.028439 0
M  V30 13 O 2.997302 1.058023 -3.305561 0
M  V30 14 N 1.046492 -0.067700 -0.503595 0
M  V30 15 C 1.170431 -0.692263 0.659537 0
M  V30 16 N 0.294305 -1.046920 1.626995 0
M  V30 17 C -1.129205 -0.796166 1.605557 0
M  V30 18 C -1.741581 -0.792214 0.255896 0
M  V30 19 C -2.493328 0.507254 -0.044775 0
M  V30 20 C -1.664762 1.734628 0.210189 0
M  V30 21 N -1.054090 1.663277 1.505752 0
M  V30 22 C -1.481722 0.530945 2.278721 0
M  V30 23 H -0.127850 -4.352709 2.769805 0
M  V30 24 H -1.361551 -4.137066 4.037907 0
M  V30 25 H 0.330061 -4.773845 4.450319 0
M  V30 26 H 4.262932 -0.064915 -1.552343 0
M  V30 27 H 0.428312 1.008446 -3.974715 0
M  V30 28 H -0.073699 1.868322 -2.816140 0
M  V30 29 H -1.590877 -1.572001 2.284302 0
M  V30 30 H -1.098265 -1.096084 -0.580937 0
M  V30 31 H -2.565568 -1.559157 0.252550 0
M  V30 32 H -3.384155 0.568387 0.620879 0
M  V30 33 H -2.854838 0.491681 -1.078121 0
M  V30 34 H -0.966851 1.977852 -0.591690 0
M  V30 35 H -2.408232 2.577963 0.247272 0
M  V30 36 H -0.029790 1.711110 1.452494 0
M  V30 37 H -0.937259 0.618450 3.263140 0
M  V30 38 H -2.552516 0.528300 2.483234 0
M  V30 END ATOM
M  V30 BEGIN BOND
M  V30 1 1 1 2
M  V30 2 1 2 3
M  V30 3 2 3 4
M  V30 4 1 4 5
M  V30 5 1 4 6
M  V30 6 2 6 7
M  V30 7 1 7 8
M  V30 8 1 7 9
M  V30 9 2 9 10
M  V30 10 1 10 11
M  V30 11 1 11 12
M  V30 12 2 11 13
M  V30 13 1 10 14
M  V30 14 2 14 15
M  V30 15 1 15 16
M  V30 16 1 16 17
M  V30 17 1 17 18
M  V30 18 1 18 19
M  V30 19 1 19 20
M  V30 20 1 20 21
M  V30 21 1 21 22
M  V30 22 1 16 3
M  V30 23 1 22 17
M  V30 24 1 15 6
M  V30 25 1 1 23
M  V30 26 1 1 24
M  V30 27 1 1 25
M  V30 28 1 9 26
M  V30 29 1 12 27
M  V30 30 1 12 28
M  V30 31 1 17 29
M  V30 32 1 18 30
M  V30 33 1 18 31
M  V30 34 1 19 32
M  V30 35 1 19 33
M  V30 36 1 20 34
M  V30 37 1 20 35
M  V30 38 1 21 36
M  V30 39 1 22 37
M  V30 40 1 22 38
M  V30 END BOND
M  V30 END CTAB
M  END
>  <Dataset>  (699) 
ChEMBL_Kinases

>  <Ligand_Instance>  (699) 
nan

>  <PDB_ID>  (699) 
nan

>  <Standardized_SMILES>  (699) 
CSc1c(Cl)c2c(Cl)cc(C(N)=O)nc2n1C1CCCNC1

>  <Name>  (699) 
nan

>  <Pocket>  (699) 
nan

>  <ATP_Site>  (699) 
nan

>  <Peripheral>  (699) 
nan

>  <Num_H_Atoms_ProtBoundConf>  (699) 
nan

>  <Num_Resolved_Atoms>  (699) 
nan

>  <Num_Not_Resolved_Atoms>  (699) 
nan

$$$$
CHEMBL4075648
     RDKit          3D

  0  0  0  0  0  0  0  0  0  0999 V3000
M  V30 BEGIN CTAB
M  V30 COUNTS 24 26 0 0 0
M  V30 BEGIN ATOM
M  V30 1 Cl -1.299594 -0.540829 3.049343 0
M  V30 2 C -0.140581 -1.665999 2.323048 0
M  V30 3 C 0.207157 -2.739365 3.122434 0
M  V30 4 N 1.089181 -3.670985 2.673842 0
M  V30 5 C 1.630367 -3.555150 1.448094 0
M  V30 6 C 1.302844 -2.487946 0.617423 0
M  V30 7 C 0.407373 -1.533305 1.060672 0
M  V30 8 C -0.040635 -0.355472 0.314220 0
M  V30 9 C -1.105700 -0.176984 -0.548853 0
M  V30 10 N -1.117239 1.099533 -1.001339 0
M  V30 11 C -0.072311 1.745290 -0.439985 0
M  V30 12 C 0.418109 3.052691 -0.525675 0
M  V30 13 N 1.520149 3.448635 0.165504 0
M  V30 14 C 2.195702 2.592562 0.971201 0
M  V30 15 C 1.739261 1.279969 1.084251 0
M  V30 16 C 0.616671 0.858078 0.386645 0
M  V30 17 H -0.174794 -2.920477 4.124918 0
M  V30 18 H 2.339225 -4.280567 1.055282 0
M  V30 19 H 1.692292 -2.329897 -0.367928 0
M  V30 20 H -1.800508 -0.964911 -0.797442 0
M  V30 21 H -1.802523 1.533029 -1.667454 0
M  V30 22 H -0.078416 3.767716 -1.147619 0
M  V30 23 H 3.069225 2.860184 1.535124 0
M  V30 24 H 2.256883 0.575943 1.718307 0
M  V30 END ATOM
M  V30 BEGIN BOND
M  V30 1 1 1 2
M  V30 2 2 2 3
M  V30 3 1 3 4
M  V30 4 2 4 5
M  V30 5 1 5 6
M  V30 6 2 6 7
M  V30 7 1 7 8
M  V30 8 2 8 9
M  V30 9 1 9 10
M  V30 10 1 10 11
M  V30 11 2 11 12
M  V30 12 1 12 13
M  V30 13 2 13 14
M  V30 14 1 14 15
M  V30 15 2 15 16
M  V30 16 1 7 2
M  V30 17 1 16 8
M  V30 18 1 16 11
M  V30 19 1 3 17
M  V30 20 1 5 18
M  V30 21 1 6 19
M  V30 22 1 9 20
M  V30 23 1 10 21
M  V30 24 1 12 22
M  V30 25 1 14 23
M  V30 26 1 15 24
M  V30 END BOND
M  V30 END CTAB
M  END
>  <Dataset>  (700) 
ChEMBL_Kinases

>  <Ligand_Instance>  (700) 
nan

>  <PDB_ID>  (700) 
nan

>  <Standardized_SMILES>  (700) 
Clc1cnccc1-c1c[nH]c2cnccc12

>  <Name>  (700) 
nan

>  <Pocket>  (700) 
nan

>  <ATP_Site>  (700) 
nan

>  <Peripheral>  (700) 
nan

>  <Num_H_Atoms_ProtBoundConf>  (700) 
nan

>  <Num_Resolved_Atoms>  (700) 
nan

>  <Num_Not_Resolved_Atoms>  (700) 
nan

$$$$
CHEMBL3884583
     RDKit          3D

  0  0  0  0  0  0  0  0  0  0999 V3000
M  V30 BEGIN CTAB
M  V30 COUNTS 39 42 0 0 0
M  V30 BEGIN ATOM
M  V30 1 C -0.873952 -6.615592 1.040885 0
M  V30 2 O -0.705649 -5.596669 0.067453 0
M  V30 3 C -0.457579 -4.309457 0.524273 0
M  V30 4 C -0.370711 -3.992675 1.864654 0
M  V30 5 C -0.120478 -2.688166 2.270966 0
M  V30 6 C 0.046125 -1.684445 1.349932 0
M  V30 7 C -0.034259 -1.965319 0.004000 0
M  V30 8 C -0.283622 -3.268410 -0.374488 0
M  V30 9 N 0.168363 -0.794341 -0.627605 0
M  V30 10 C 0.366331 0.178518 0.244298 0
M  V30 11 C 0.611126 1.523710 0.158853 0
M  V30 12 C 0.689496 2.094876 -1.106860 0
M  V30 13 O 0.531930 1.367039 -2.269828 0
M  V30 14 C 0.624224 2.011391 -3.511696 0
M  V30 15 C 0.936743 3.456896 -1.221186 0
M  V30 16 N 1.106914 4.263158 -0.143708 0
M  V30 17 C 1.039317 3.751692 1.113310 0
M  V30 18 C 0.792735 2.395517 1.208183 0
M  V30 19 C 0.716592 1.836875 2.461691 0
M  V30 20 C 0.471898 0.487978 2.582701 0
M  V30 21 C 0.407191 0.000207 3.943119 0
M  V30 22 N 0.522120 0.892022 5.077366 0
M  V30 23 O 0.324734 -0.620559 5.012031 0
M  V30 24 C 0.296943 -0.343498 1.507320 0
M  V30 25 H 0.084484 -6.786929 1.572277 0
M  V30 26 H -1.643275 -6.321298 1.787430 0
M  V30 27 H -1.175022 -7.578202 0.568298 0
M  V30 28 H -0.508511 -4.816828 2.572821 0
M  V30 29 H -0.077998 -2.579329 3.335338 0
M  V30 30 H -0.348782 -3.499650 -1.435872 0
M  V30 31 H 0.149203 -0.780892 -1.647681 0
M  V30 32 H 0.408399 1.352082 -4.364541 0
M  V30 33 H 1.612715 2.529270 -3.592579 0
M  V30 34 H -0.124222 2.850490 -3.608567 0
M  V30 35 H 1.013687 3.983283 -2.161059 0
M  V30 36 H 1.169226 4.360312 1.996537 0
M  V30 37 H 0.856462 2.492320 3.310477 0
M  V30 38 H 0.178343 1.892748 5.114603 0
M  V30 39 H 0.185723 1.881073 5.122967 0
M  V30 END ATOM
M  V30 BEGIN BOND
M  V30 1 1 1 2
M  V30 2 1 2 3
M  V30 3 2 3 4
M  V30 4 1 4 5
M  V30 5 2 5 6
M  V30 6 1 6 7
M  V30 7 2 7 8
M  V30 8 1 7 9
M  V30 9 1 9 10
M  V30 10 2 10 11
M  V30 11 1 11 12
M  V30 12 1 12 13
M  V30 13 1 13 14
M  V30 14 2 12 15
M  V30 15 1 15 16
M  V30 16 2 16 17
M  V30 17 1 17 18
M  V30 18 2 18 19
M  V30 19 1 19 20
M  V30 20 1 20 21
M  V30 21 1 21 22
M  V30 22 2 21 23
M  V30 23 2 20 24
M  V30 24 1 8 3
M  V30 25 1 24 10
M  V30 26 1 24 6
M  V30 27 1 18 11
M  V30 28 1 1 25
M  V30 29 1 1 26
M  V30 30 1 1 27
M  V30 31 1 4 28
M  V30 32 1 5 29
M  V30 33 1 8 30
M  V30 34 1 9 31
M  V30 35 1 14 32
M  V30 36 1 14 33
M  V30 37 1 14 34
M  V30 38 1 15 35
M  V30 39 1 17 36
M  V30 40 1 19 37
M  V30 41 1 22 38
M  V30 42 1 22 39
M  V30 END BOND
M  V30 END CTAB
M  END
>  <Dataset>  (701) 
ChEMBL_Kinases

>  <Ligand_Instance>  (701) 
nan

>  <PDB_ID>  (701) 
nan

>  <Standardized_SMILES>  (701) 
COc1ccc2c(c1)[nH]c1c3c(OC)cncc3cc(C(N)=O)c21

>  <Name>  (701) 
nan

>  <Pocket>  (701) 
nan

>  <ATP_Site>  (701) 
nan

>  <Peripheral>  (701) 
nan

>  <Num_H_Atoms_ProtBoundConf>  (701) 
nan

>  <Num_Resolved_Atoms>  (701) 
nan

>  <Num_Not_Resolved_Atoms>  (701) 
nan

$$$$
CHEMBL4075449
     RDKit          3D

  0  0  0  0  0  0  0  0  0  0999 V3000
M  V30 BEGIN CTAB
M  V30 COUNTS 51 55 0 0 0
M  V30 BEGIN ATOM
M  V30 1 C 2.463291 -5.766694 1.220984 0
M  V30 2 C 2.397248 -5.050014 0.123047 0
M  V30 3 C 1.457998 -3.939936 0.019965 0
M  V30 4 O 1.109710 -4.225201 1.172498 0
M  V30 5 N 1.368490 -3.149859 -1.158935 0
M  V30 6 C 0.441521 -2.072528 -1.229327 0
M  V30 7 C 0.823349 -0.792789 -0.826148 0
M  V30 8 C -0.076134 0.301815 -0.883610 0
M  V30 9 N 0.514300 1.518926 -0.522620 0
M  V30 10 C 1.035979 1.935515 -1.721482 0
M  V30 11 O 1.044327 1.436993 -2.904105 0
M  V30 12 C 1.724751 3.148255 -1.778577 0
M  V30 13 C 1.904328 3.949377 -0.676471 0
M  V30 14 C 1.361197 3.483682 0.498202 0
M  V30 15 C 1.511954 4.247752 1.632149 0
M  V30 16 N 0.979534 3.790122 2.779443 0
M  V30 17 C 0.310535 2.598518 2.803983 0
M  V30 18 C -0.201529 2.205985 4.018377 0
M  V30 19 C -0.873279 1.006764 4.037858 0
M  V30 20 C -1.063110 0.182475 2.927132 0
M  V30 21 C -1.807141 -1.038878 3.194035 0
M  V30 22 C -2.793956 -1.181154 4.120652 0
M  V30 23 N -3.216145 -2.452881 4.048120 0
M  V30 24 N -2.559894 -3.140613 3.129099 0
M  V30 25 C -1.683405 -2.273694 2.592864 0
M  V30 26 C -0.505117 0.687562 1.781396 0
M  V30 27 C 0.167905 1.849340 1.670537 0
M  V30 28 C 0.699806 2.303394 0.516497 0
M  V30 29 C -1.391788 0.072917 -1.364964 0
M  V30 30 C -1.756489 -1.197886 -1.760560 0
M  V30 31 C -0.852200 -2.210561 -1.683769 0
M  V30 32 C -1.249428 -3.593569 -2.114531 0
M  V30 33 H 3.140908 -6.610842 1.368965 0
M  V30 34 H 1.913194 -5.686200 2.133789 0
M  V30 35 H 3.067953 -5.336730 -0.668063 0
M  V30 36 H 2.021656 -3.433669 -1.921364 0
M  V30 37 H 1.836773 -0.700063 -0.473412 0
M  V30 38 H 2.186821 3.590139 -2.671481 0
M  V30 39 H 2.424315 4.886625 -0.669670 0
M  V30 40 H 2.045860 5.186731 1.586037 0
M  V30 41 H -0.060662 2.834050 4.879337 0
M  V30 42 H -1.260444 0.737254 5.017328 0
M  V30 43 H -3.204977 -0.437950 4.817413 0
M  V30 44 H -2.762434 -4.147029 2.941009 0
M  V30 45 H -0.994080 -2.527330 1.809132 0
M  V30 46 H -0.746614 -0.047557 1.089044 0
M  V30 47 H -1.996661 0.969051 -1.368938 0
M  V30 48 H -2.771992 -1.307666 -2.117594 0
M  V30 49 H -0.782712 -3.730293 -3.124231 0
M  V30 50 H -0.758445 -4.317531 -1.444290 0
M  V30 51 H -2.337366 -3.680830 -2.120090 0
M  V30 END ATOM
M  V30 BEGIN BOND
M  V30 1 2 1 2
M  V30 2 1 2 3
M  V30 3 2 3 4
M  V30 4 1 3 5
M  V30 5 1 5 6
M  V30 6 2 6 7
M  V30 7 1 7 8
M  V30 8 1 8 9
M  V30 9 1 9 10
M  V30 10 2 10 11
M  V30 11 1 10 12
M  V30 12 2 12 13
M  V30 13 1 13 14
M  V30 14 2 14 15
M  V30 15 1 15 16
M  V30 16 2 16 17
M  V30 17 1 17 18
M  V30 18 2 18 19
M  V30 19 1 19 20
M  V30 20 1 20 21
M  V30 21 1 21 22
M  V30 22 2 22 23
M  V30 23 1 23 24
M  V30 24 1 24 25
M  V30 25 2 20 26
M  V30 26 1 26 27
M  V30 27 2 27 28
M  V30 28 2 8 29
M  V30 29 1 29 30
M  V30 30 2 30 31
M  V30 31 1 31 32
M  V30 32 1 31 6
M  V30 33 1 28 9
M  V30 34 1 28 14
M  V30 35 1 27 17
M  V30 36 2 25 21
M  V30 37 1 1 33
M  V30 38 1 1 34
M  V30 39 1 2 35
M  V30 40 1 5 36
M  V30 41 1 7 37
M  V30 42 1 12 38
M  V30 43 1 13 39
M  V30 44 1 15 40
M  V30 45 1 18 41
M  V30 46 1 19 42
M  V30 47 1 22 43
M  V30 48 1 24 44
M  V30 49 1 25 45
M  V30 50 1 26 46
M  V30 51 1 29 47
M  V30 52 1 30 48
M  V30 53 1 32 49
M  V30 54 1 32 50
M  V30 55 1 32 51
M  V30 END BOND
M  V30 END CTAB
M  END
>  <Dataset>  (702) 
ChEMBL_Kinases

>  <Ligand_Instance>  (702) 
nan

>  <PDB_ID>  (702) 
nan

>  <Standardized_SMILES>  (702) 
C=CC(=O)Nc1cc(-n2c(=O)ccc3cnc4ccc(-c5cn[nH]c5)cc4c32)ccc1C

>  <Name>  (702) 
nan

>  <Pocket>  (702) 
nan

>  <ATP_Site>  (702) 
nan

>  <Peripheral>  (702) 
nan

>  <Num_H_Atoms_ProtBoundConf>  (702) 
nan

>  <Num_Resolved_Atoms>  (702) 
nan

>  <Num_Not_Resolved_Atoms>  (702) 
nan

$$$$
CHEMBL3884616
     RDKit          3D

  0  0  0  0  0  0  0  0  0  0999 V3000
M  V30 BEGIN CTAB
M  V30 COUNTS 54 57 0 0 0
M  V30 BEGIN ATOM
M  V30 1 C 5.818146 3.035042 4.448668 0
M  V30 2 C 6.563194 2.732589 3.384558 0
M  V30 3 C 6.278266 1.658990 2.393754 0
M  V30 4 O 5.780166 0.699409 1.738749 0
M  V30 5 O 5.751914 0.613810 1.663913 0
M  V30 6 C 4.581905 -0.055205 2.048488 0
M  V30 7 C 4.880780 -1.057931 2.943932 0
M  V30 8 C 3.871865 -1.828250 3.440538 0
M  V30 9 C 2.520297 -1.663608 3.093825 0
M  V30 10 C 2.335629 -0.616978 2.178488 0
M  V30 11 C 3.298763 0.204099 1.630454 0
M  V30 12 N 3.085903 1.249927 0.714016 0
M  V30 13 C 1.842626 1.670774 0.176563 0
M  V30 14 N 0.645550 1.127555 0.415337 0
M  V30 15 C -0.530332 1.516116 -0.063322 0
M  V30 16 N -1.605802 0.702650 0.383326 0
M  V30 17 C -2.221820 -0.172067 -0.581001 0
M  V30 18 C -1.846004 -0.045380 -1.902935 0
M  V30 19 C -2.445249 -0.876199 -2.823139 0
M  V30 20 C -3.392394 -1.825685 -2.524581 0
M  V30 21 C -3.739213 -1.918156 -1.173215 0
M  V30 22 N -4.708505 -2.886633 -0.807776 0
M  V30 23 C -5.779279 -3.480847 -1.582327 0
M  V30 24 C -5.400668 -4.951175 -1.716262 0
M  V30 25 O -5.449793 -5.500517 -0.435706 0
M  V30 26 C -4.428243 -4.989195 0.354773 0
M  V30 27 C -4.685000 -3.481046 0.544434 0
M  V30 28 C -3.167327 -1.109697 -0.220071 0
M  V30 29 N -0.564111 2.574283 -0.887057 0
M  V30 30 C 0.565830 3.234390 -1.227832 0
M  V30 31 C 1.726501 2.749417 -0.677075 0
M  V30 32 Cl 3.189615 3.623997 -1.143454 0
M  V30 33 H 6.424323 3.862790 4.845141 0
M  V30 34 H 4.958084 2.383316 4.500209 0
M  V30 35 H 7.479678 3.041207 2.872446 0
M  V30 36 H 5.851101 -1.322156 3.317993 0
M  V30 37 H 4.038287 -2.645414 4.159538 0
M  V30 38 H 1.679437 -2.239714 3.451257 0
M  V30 39 H 1.304535 -0.475493 1.901406 0
M  V30 40 H 3.859768 1.811046 0.346091 0
M  V30 41 H -1.946018 0.723343 1.354126 0
M  V30 42 H -1.100050 0.667170 -2.282955 0
M  V30 43 H -2.172263 -0.800200 -3.853604 0
M  V30 44 H -3.875103 -2.481462 -3.219913 0
M  V30 45 H -5.905335 -2.978882 -2.565122 0
M  V30 46 H -6.698193 -3.439320 -0.970922 0
M  V30 47 H -6.089501 -5.454486 -2.414061 0
M  V30 48 H -4.320235 -5.024441 -2.042375 0
M  V30 49 H -4.452819 -5.467880 1.332439 0
M  V30 50 H -3.435818 -5.109212 -0.174685 0
M  V30 51 H -3.909125 -3.065953 1.183650 0
M  V30 52 H -5.701882 -3.384281 0.944081 0
M  V30 53 H -3.397243 -1.138534 0.826800 0
M  V30 54 H 0.526120 4.080627 -1.890903 0
M  V30 END ATOM
M  V30 BEGIN BOND
M  V30 1 2 1 2
M  V30 2 1 2 3
M  V30 3 2 3 4
M  V30 4 1 3 5
M  V30 5 1 5 6
M  V30 6 2 6 7
M  V30 7 1 7 8
M  V30 8 2 8 9
M  V30 9 1 9 10
M  V30 10 2 10 11
M  V30 11 1 11 12
M  V30 12 1 12 13
M  V30 13 2 13 14
M  V30 14 1 14 15
M  V30 15 1 15 16
M  V30 16 1 16 17
M  V30 17 2 17 18
M  V30 18 1 18 19
M  V30 19 2 19 20
M  V30 20 1 20 21
M  V30 21 1 21 22
M  V30 22 1 22 23
M  V30 23 1 23 24
M  V30 24 1 24 25
M  V30 25 1 25 26
M  V30 26 1 26 27
M  V30 27 2 21 28
M  V30 28 2 15 29
M  V30 29 1 29 30
M  V30 30 2 30 31
M  V30 31 1 31 32
M  V30 32 1 11 6
M  V30 33 1 31 13
M  V30 34 1 28 17
M  V30 35 1 27 22
M  V30 36 1 1 33
M  V30 37 1 1 34
M  V30 38 1 2 35
M  V30 39 1 7 36
M  V30 40 1 8 37
M  V30 41 1 9 38
M  V30 42 1 10 39
M  V30 43 1 12 40
M  V30 44 1 16 41
M  V30 45 1 18 42
M  V30 46 1 19 43
M  V30 47 1 20 44
M  V30 48 1 23 45
M  V30 49 1 23 46
M  V30 50 1 24 47
M  V30 51 1 24 48
M  V30 52 1 26 49
M  V30 53 1 26 50
M  V30 54 1 27 51
M  V30 55 1 27 52
M  V30 56 1 28 53
M  V30 57 1 30 54
M  V30 END BOND
M  V30 END CTAB
M  END
>  <Dataset>  (703) 
ChEMBL_Kinases

>  <Ligand_Instance>  (703) 
nan

>  <PDB_ID>  (703) 
nan

>  <Standardized_SMILES>  (703) 
C=CC(=O)Oc1ccccc1Nc1nc(Nc2cccc(N3CCOCC3)c2)ncc1Cl

>  <Name>  (703) 
nan

>  <Pocket>  (703) 
nan

>  <ATP_Site>  (703) 
nan

>  <Peripheral>  (703) 
nan

>  <Num_H_Atoms_ProtBoundConf>  (703) 
nan

>  <Num_Resolved_Atoms>  (703) 
nan

>  <Num_Not_Resolved_Atoms>  (703) 
nan

$$$$
CHEMBL3884642
     RDKit          3D

  0  0  0  0  0  0  0  0  0  0999 V3000
M  V30 BEGIN CTAB
M  V30 COUNTS 41 43 0 0 0
M  V30 BEGIN ATOM
M  V30 1 C -0.737151 -3.481596 0.128546 0
M  V30 2 C -0.721594 -2.915550 -1.077222 0
M  V30 3 C 0.236078 -1.953862 -1.611941 0
M  V30 4 O 0.064992 -1.550935 -2.769796 0
M  V30 5 N 1.339706 -1.469787 -0.867528 0
M  V30 6 C 2.335042 -0.550922 -1.254706 0
M  V30 7 C 2.454799 0.069331 -2.474873 0
M  V30 8 C 3.447066 0.958510 -2.830228 0
M  V30 9 C 4.421053 1.261968 -1.872647 0
M  V30 10 C 4.320111 0.650351 -0.639384 0
M  V30 11 C 3.308721 -0.230105 -0.335219 0
M  V30 12 O 3.416703 -0.713818 0.960919 0
M  V30 13 C 2.473481 -0.531356 1.957207 0
M  V30 14 N 1.270570 0.106721 2.019238 0
M  V30 15 C 0.542749 0.130453 3.140585 0
M  V30 16 N -0.668016 0.857444 2.953350 0
M  V30 17 C -1.872969 0.232089 2.554675 0
M  V30 18 C -2.075401 -1.095715 2.321573 0
M  V30 19 N -3.357001 -1.271321 1.962392 0
M  V30 20 N -3.925102 -0.060260 1.977972 0
M  V30 21 C -5.316395 0.286244 1.660713 0
M  V30 22 F -5.984757 0.429327 2.853389 0
M  V30 23 F -5.346262 1.484045 0.944805 0
M  V30 24 C -3.058036 0.903461 2.335579 0
M  V30 25 N 0.942142 -0.474938 4.296022 0
M  V30 26 C 2.131053 -1.124188 4.289530 0
M  V30 27 C 2.901347 -1.157861 3.128883 0
M  V30 28 Cl 4.408294 -2.053110 3.336964 0
M  V30 29 H 0.029698 -3.242086 0.854077 0
M  V30 30 H -0.254915 -3.558914 1.080213 0
M  V30 31 H -1.555657 -3.270392 -1.661372 0
M  V30 32 H 1.368970 -1.889023 0.088261 0
M  V30 33 H 1.745881 -0.122611 -3.238958 0
M  V30 34 H 3.489349 1.416698 -3.808678 0
M  V30 35 H 5.201204 1.960107 -2.150086 0
M  V30 36 H 5.111687 0.947922 0.023600 0
M  V30 37 H -0.602986 1.882760 3.131353 0
M  V30 38 H -1.306874 -1.817845 2.424794 0
M  V30 39 H -5.807883 -0.505036 1.061288 0
M  V30 40 H -3.221065 1.955033 2.435445 0
M  V30 41 H 2.404204 -1.587285 5.226345 0
M  V30 END ATOM
M  V30 BEGIN BOND
M  V30 1 2 1 2
M  V30 2 1 2 3
M  V30 3 2 3 4
M  V30 4 1 3 5
M  V30 5 1 5 6
M  V30 6 2 6 7
M  V30 7 1 7 8
M  V30 8 2 8 9
M  V30 9 1 9 10
M  V30 10 2 10 11
M  V30 11 1 11 12
M  V30 12 1 12 13
M  V30 13 2 13 14
M  V30 14 1 14 15
M  V30 15 1 15 16
M  V30 16 1 16 17
M  V30 17 1 17 18
M  V30 18 2 18 19
M  V30 19 1 19 20
M  V30 20 1 20 21
M  V30 21 1 21 22
M  V30 22 1 21 23
M  V30 23 1 20 24
M  V30 24 2 15 25
M  V30 25 1 25 26
M  V30 26 2 26 27
M  V30 27 1 27 28
M  V30 28 1 11 6
M  V30 29 1 27 13
M  V30 30 2 24 17
M  V30 31 1 1 29
M  V30 32 1 1 30
M  V30 33 1 2 31
M  V30 34 1 5 32
M  V30 35 1 7 33
M  V30 36 1 8 34
M  V30 37 1 9 35
M  V30 38 1 10 36
M  V30 39 1 16 37
M  V30 40 1 18 38
M  V30 41 1 21 39
M  V30 42 1 24 40
M  V30 43 1 26 41
M  V30 END BOND
M  V30 END CTAB
M  END
>  <Dataset>  (704) 
ChEMBL_Kinases

>  <Ligand_Instance>  (704) 
nan

>  <PDB_ID>  (704) 
nan

>  <Standardized_SMILES>  (704) 
C=CC(=O)Nc1ccccc1Oc1nc(Nc2cnn(C(F)F)c2)ncc1Cl

>  <Name>  (704) 
nan

>  <Pocket>  (704) 
nan

>  <ATP_Site>  (704) 
nan

>  <Peripheral>  (704) 
nan

>  <Num_H_Atoms_ProtBoundConf>  (704) 
nan

>  <Num_Resolved_Atoms>  (704) 
nan

>  <Num_Not_Resolved_Atoms>  (704) 
nan

$$$$
CHEMBL4075373
     RDKit          3D

  0  0  0  0  0  0  0  0  0  0999 V3000
M  V30 BEGIN CTAB
M  V30 COUNTS 64 66 0 0 0
M  V30 BEGIN ATOM
M  V30 1 C 2.570352 0.064012 6.705315 0
M  V30 2 C 2.884314 0.285584 5.245675 0
M  V30 3 C 3.229103 -1.125521 4.719986 0
M  V30 4 C 1.858885 0.933751 4.419337 0
M  V30 5 C 2.254152 1.152316 2.987556 0
M  V30 6 C 2.571724 -0.036525 2.206635 0
M  V30 7 C 1.765007 -0.366388 1.169997 0
M  V30 8 C 0.562795 0.431894 0.788682 0
M  V30 9 C -0.195217 -0.409245 -0.216869 0
M  V30 10 C -1.343980 -1.045320 0.574875 0
M  V30 11 O -2.156413 0.031592 0.954958 0
M  V30 12 C -0.837302 0.417950 -1.280072 0
M  V30 13 O -1.594485 -0.284075 -2.223806 0
M  V30 14 C -1.172212 -1.239590 -3.087413 0
M  V30 15 O 0.008072 -1.621322 -3.143616 0
M  V30 16 C -2.126235 -1.873452 -4.012639 0
M  V30 17 C -3.485724 -1.598386 -4.117514 0
M  V30 18 N -4.044666 -2.368663 -5.070416 0
M  V30 19 C -5.439965 -2.370167 -5.470383 0
M  V30 20 C -3.074854 -3.145364 -5.593436 0
M  V30 21 C -3.045388 -4.120276 -6.589041 0
M  V30 22 C -1.890910 -4.786228 -6.945243 0
M  V30 23 C -0.722883 -4.470088 -6.286167 0
M  V30 24 C -0.683161 -3.506774 -5.282748 0
M  V30 25 C -1.865509 -2.856594 -4.950739 0
M  V30 26 O 0.709598 -1.371097 -0.668165 0
M  V30 27 C 1.793665 -1.475023 0.193566 0
M  V30 28 O 2.691063 -2.352238 0.192079 0
M  V30 29 C 1.304418 2.222740 4.959372 0
M  V30 30 C 0.580053 2.142322 6.262290 0
M  V30 31 C 0.321063 2.846345 3.956134 0
M  V30 32 H 1.538031 -0.189150 6.898688 0
M  V30 33 H 3.146007 -0.877014 7.034211 0
M  V30 34 H 3.032215 0.835488 7.357777 0
M  V30 35 H 3.844262 0.886642 5.247466 0
M  V30 36 H 2.412726 -1.558020 4.135885 0
M  V30 37 H 4.230449 -1.146655 4.262037 0
M  V30 38 H 3.336116 -1.848340 5.593387 0
M  V30 39 H 0.960630 0.193882 4.416942 0
M  V30 40 H 1.493236 1.744120 2.431382 0
M  V30 41 H 3.222890 1.750271 3.044960 0
M  V30 42 H 3.344751 -0.782169 2.198207 0
M  V30 43 H 0.849382 1.372123 0.274014 0
M  V30 44 H -0.064078 0.683387 1.668322 0
M  V30 45 H -1.977147 -1.658844 -0.131050 0
M  V30 46 H -0.993553 -1.658607 1.409254 0
M  V30 47 H -3.102200 -0.096828 0.723830 0
M  V30 48 H -1.537902 1.115873 -0.754695 0
M  V30 49 H -0.103387 1.120993 -1.772852 0
M  V30 50 H -4.061111 -0.878914 -3.540821 0
M  V30 51 H -6.009112 -3.199261 -4.965050 0
M  V30 52 H -5.534409 -2.573396 -6.552398 0
M  V30 53 H -5.949745 -1.422847 -5.225547 0
M  V30 54 H -4.013561 -4.320984 -7.072170 0
M  V30 55 H -1.988652 -5.518960 -7.727735 0
M  V30 56 H 0.174208 -4.992489 -6.568002 0
M  V30 57 H 0.238643 -3.274529 -4.780383 0
M  V30 58 H 2.140542 2.971636 4.994733 0
M  V30 59 H 1.192372 2.145001 7.145988 0
M  V30 60 H -0.110416 1.264013 6.249706 0
M  V30 61 H -0.079415 3.078602 6.394101 0
M  V30 62 H -0.307159 3.557125 4.564967 0
M  V30 63 H -0.371204 2.104146 3.565853 0
M  V30 64 H 0.831696 3.482156 3.214516 0
M  V30 END ATOM
M  V30 BEGIN BOND
M  V30 1 1 1 2
M  V30 2 1 2 3
M  V30 3 1 2 4
M  V30 4 1 4 5
M  V30 5 1 5 6
M  V30 6 2 6 7
M  V30 7 1 7 8
M  V30 8 1 8 9
M  V30 9 1 9 10
M  V30 10 1 10 11
M  V30 11 1 9 12
M  V30 12 1 12 13
M  V30 13 1 13 14
M  V30 14 2 14 15
M  V30 15 1 14 16
M  V30 16 2 16 17
M  V30 17 1 17 18
M  V30 18 1 18 19
M  V30 19 1 18 20
M  V30 20 2 20 21
M  V30 21 1 21 22
M  V30 22 2 22 23
M  V30 23 1 23 24
M  V30 24 2 24 25
M  V30 25 1 9 26
M  V30 26 1 26 27
M  V30 27 2 27 28
M  V30 28 1 4 29
M  V30 29 1 29 30
M  V30 30 1 29 31
M  V30 31 1 27 7
M  V30 32 1 25 16
M  V30 33 1 25 20
M  V30 34 1 1 32
M  V30 35 1 1 33
M  V30 36 1 1 34
M  V30 37 1 2 35
M  V30 38 1 3 36
M  V30 39 1 3 37
M  V30 40 1 3 38
M  V30 41 1 4 39
M  V30 42 1 5 40
M  V30 43 1 5 41
M  V30 44 1 6 42
M  V30 45 1 8 43
M  V30 46 1 8 44
M  V30 47 1 10 45
M  V30 48 1 10 46
M  V30 49 1 11 47
M  V30 50 1 12 48
M  V30 51 1 12 49
M  V30 52 1 17 50
M  V30 53 1 19 51
M  V30 54 1 19 52
M  V30 55 1 19 53
M  V30 56 1 21 54
M  V30 57 1 22 55
M  V30 58 1 23 56
M  V30 59 1 24 57
M  V30 60 1 29 58
M  V30 61 1 30 59
M  V30 62 1 30 60
M  V30 63 1 30 61
M  V30 64 1 31 62
M  V30 65 1 31 63
M  V30 66 1 31 64
M  V30 END BOND
M  V30 END CTAB
M  END
>  <Dataset>  (705) 
ChEMBL_Kinases

>  <Ligand_Instance>  (705) 
nan

>  <PDB_ID>  (705) 
nan

>  <Standardized_SMILES>  (705) 
CC(C)C(C/C=C1\CC(CO)(COC(=O)c2cn(C)c3ccccc23)OC1=O)C(C)C

>  <Name>  (705) 
nan

>  <Pocket>  (705) 
nan

>  <ATP_Site>  (705) 
nan

>  <Peripheral>  (705) 
nan

>  <Num_H_Atoms_ProtBoundConf>  (705) 
nan

>  <Num_Resolved_Atoms>  (705) 
nan

>  <Num_Not_Resolved_Atoms>  (705) 
nan

$$$$
CHEMBL3627996
     RDKit          3D

  0  0  0  0  0  0  0  0  0  0999 V3000
M  V30 BEGIN CTAB
M  V30 COUNTS 35 39 0 0 0
M  V30 BEGIN ATOM
M  V30 1 O 1.560932 -4.445344 3.627145 0
M  V30 2 C 0.381417 -4.011915 3.855834 0
M  V30 3 C -0.101133 -2.882341 3.061525 0
M  V30 4 C -1.332604 -2.296099 3.175626 0
M  V30 5 N -1.381701 -1.299108 2.272387 0
M  V30 6 C -0.195306 -1.252307 1.592240 0
M  V30 7 C 0.629295 -2.240861 2.071534 0
M  V30 8 C 1.911663 -2.409654 1.540852 0
M  V30 9 C 2.352999 -1.578679 0.529238 0
M  V30 10 C 1.525848 -0.580341 0.042191 0
M  V30 11 C 1.689684 0.378318 -0.939598 0
M  V30 12 C 2.787634 0.614455 -1.748918 0
M  V30 13 C 2.653626 1.657575 -2.649663 0
M  V30 14 C 1.502974 2.418256 -2.741535 0
M  V30 15 C 0.426287 2.152373 -1.915881 0
M  V30 16 C 0.530590 1.113437 -1.003104 0
M  V30 17 N -0.333142 0.631185 -0.089987 0
M  V30 18 C 0.244230 -0.411749 0.572660 0
M  V30 19 C -1.649489 1.102831 0.176621 0
M  V30 20 C -2.624305 0.124069 0.686716 0
M  V30 21 C -2.504392 -0.404969 2.040933 0
M  V30 22 H -0.234803 -4.460186 4.604397 0
M  V30 23 H -2.138215 -2.556167 3.850332 0
M  V30 24 H 2.552875 -3.188812 1.923305 0
M  V30 25 H 3.345406 -1.710229 0.119413 0
M  V30 26 H 3.689305 0.021253 -1.679609 0
M  V30 27 H 3.527803 1.839160 -3.288053 0
M  V30 28 H 1.439593 3.238239 -3.472116 0
M  V30 29 H -0.493900 2.716654 -1.948289 0
M  V30 30 H -2.049990 1.569932 -0.748285 0
M  V30 31 H -1.558294 1.961481 0.902314 0
M  V30 32 H -2.684597 -0.738288 -0.032290 0
M  V30 33 H -3.632007 0.597360 0.622275 0
M  V30 34 H -3.422193 -0.992319 2.255969 0
M  V30 35 H -2.521929 0.451337 2.763108 0
M  V30 END ATOM
M  V30 BEGIN BOND
M  V30 1 2 1 2
M  V30 2 1 2 3
M  V30 3 2 3 4
M  V30 4 1 4 5
M  V30 5 1 5 6
M  V30 6 2 6 7
M  V30 7 1 7 8
M  V30 8 2 8 9
M  V30 9 1 9 10
M  V30 10 1 10 11
M  V30 11 2 11 12
M  V30 12 1 12 13
M  V30 13 2 13 14
M  V30 14 1 14 15
M  V30 15 2 15 16
M  V30 16 1 16 17
M  V30 17 1 17 18
M  V30 18 1 17 19
M  V30 19 1 19 20
M  V30 20 1 20 21
M  V30 21 1 7 3
M  V30 22 2 18 10
M  V30 23 1 21 5
M  V30 24 1 18 6
M  V30 25 1 16 11
M  V30 26 1 2 22
M  V30 27 1 4 23
M  V30 28 1 8 24
M  V30 29 1 9 25
M  V30 30 1 12 26
M  V30 31 1 13 27
M  V30 32 1 14 28
M  V30 33 1 15 29
M  V30 34 1 19 30
M  V30 35 1 19 31
M  V30 36 1 20 32
M  V30 37 1 20 33
M  V30 38 1 21 34
M  V30 39 1 21 35
M  V30 END BOND
M  V30 END CTAB
M  END
>  <Dataset>  (706) 
ChEMBL_Kinases

>  <Ligand_Instance>  (706) 
nan

>  <PDB_ID>  (706) 
nan

>  <Standardized_SMILES>  (706) 
O=Cc1cn2c3c1ccc1c4ccccc4n(c13)CCC2

>  <Name>  (706) 
nan

>  <Pocket>  (706) 
nan

>  <ATP_Site>  (706) 
nan

>  <Peripheral>  (706) 
nan

>  <Num_H_Atoms_ProtBoundConf>  (706) 
nan

>  <Num_Resolved_Atoms>  (706) 
nan

>  <Num_Not_Resolved_Atoms>  (706) 
nan

$$$$
CHEMBL3884569
     RDKit          3D

  0  0  0  0  0  0  0  0  0  0999 V3000
M  V30 BEGIN CTAB
M  V30 COUNTS 58 61 0 0 0
M  V30 BEGIN ATOM
M  V30 1 C 8.107319 0.971139 2.669841 0
M  V30 2 C 7.728762 1.496038 1.516677 0
M  V30 3 C 6.593213 0.982434 0.764515 0
M  V30 4 O 6.245124 1.506709 -0.347336 0
M  V30 5 O 5.871710 -0.112431 1.280820 0
M  V30 6 C 4.800887 -0.514404 0.469148 0
M  V30 7 C 4.999839 -1.462841 -0.509010 0
M  V30 8 C 3.893159 -1.810856 -1.272941 0
M  V30 9 C 2.654349 -1.226300 -1.053531 0
M  V30 10 C 2.481035 -0.265104 -0.053326 0
M  V30 11 C 3.581538 0.070230 0.695550 0
M  V30 12 N 3.334671 1.033941 1.699480 0
M  V30 13 C 2.161868 1.685825 2.108403 0
M  V30 14 N 0.893353 1.492604 1.732725 0
M  V30 15 C -0.161241 2.187002 2.170311 0
M  V30 16 N -1.505875 1.971899 1.785310 0
M  V30 17 C -2.153103 0.986637 0.997611 0
M  V30 18 C -3.445896 1.074983 0.477940 0
M  V30 19 C -3.990264 0.059259 -0.260254 0
M  V30 20 C -3.321107 -1.104579 -0.542568 0
M  V30 21 N -3.928476 -2.136833 -1.306775 0
M  V30 22 C -5.309494 -2.185529 -1.744289 0
M  V30 23 C -5.979853 -3.285340 -0.965197 0
M  V30 24 N -5.177765 -4.416110 -0.670380 0
M  V30 25 C -5.055614 -4.701945 0.737701 0
M  V30 26 C -3.991075 -4.589073 -1.426019 0
M  V30 27 C -3.271345 -3.318910 -1.785857 0
M  V30 28 C -2.049907 -1.239350 -0.054862 0
M  V30 29 C -1.514250 -0.202106 0.690541 0
M  V30 30 N 0.040313 3.166631 3.062519 0
M  V30 31 C 1.258752 3.451663 3.511224 0
M  V30 32 C 2.296295 2.717781 3.036501 0
M  V30 33 Cl 3.877667 3.168295 3.689696 0
M  V30 34 H 7.286689 0.238385 2.593358 0
M  V30 35 H 8.958603 1.394189 3.186313 0
M  V30 36 H 8.280354 2.348580 1.097519 0
M  V30 37 H 6.001625 -1.857847 -0.601085 0
M  V30 38 H 4.107118 -2.559360 -2.026610 0
M  V30 39 H 1.916704 -1.627037 -1.747298 0
M  V30 40 H 1.469970 0.061923 -0.058433 0
M  V30 41 H 4.230499 1.275491 2.212820 0
M  V30 42 H -2.243594 2.651544 2.119805 0
M  V30 43 H -3.984375 2.009654 0.703911 0
M  V30 44 H -4.993944 0.282112 -0.589415 0
M  V30 45 H -5.876608 -1.251419 -1.504328 0
M  V30 46 H -5.359588 -2.399591 -2.835288 0
M  V30 47 H -6.873557 -3.637303 -1.533476 0
M  V30 48 H -6.319249 -2.855610 0.003006 0
M  V30 49 H -5.833196 -4.100339 1.249903 0
M  V30 50 H -4.033900 -4.551575 1.123359 0
M  V30 51 H -5.370247 -5.763292 0.894153 0
M  V30 52 H -3.278280 -5.198026 -0.813856 0
M  V30 53 H -4.222243 -5.219151 -2.315014 0
M  V30 54 H -2.183442 -3.339014 -1.583554 0
M  V30 55 H -3.320495 -3.251150 -2.915985 0
M  V30 56 H -1.432503 -2.091486 -0.204444 0
M  V30 57 H -0.517389 -0.304058 1.092305 0
M  V30 58 H 1.371066 4.255170 4.235432 0
M  V30 END ATOM
M  V30 BEGIN BOND
M  V30 1 2 1 2
M  V30 2 1 2 3
M  V30 3 2 3 4
M  V30 4 1 3 5
M  V30 5 1 5 6
M  V30 6 2 6 7
M  V30 7 1 7 8
M  V30 8 2 8 9
M  V30 9 1 9 10
M  V30 10 2 10 11
M  V30 11 1 11 12
M  V30 12 1 12 13
M  V30 13 2 13 14
M  V30 14 1 14 15
M  V30 15 1 15 16
M  V30 16 1 16 17
M  V30 17 2 17 18
M  V30 18 1 18 19
M  V30 19 2 19 20
M  V30 20 1 20 21
M  V30 21 1 21 22
M  V30 22 1 22 23
M  V30 23 1 23 24
M  V30 24 1 24 25
M  V30 25 1 24 26
M  V30 26 1 26 27
M  V30 27 1 20 28
M  V30 28 2 28 29
M  V30 29 2 15 30
M  V30 30 1 30 31
M  V30 31 2 31 32
M  V30 32 1 32 33
M  V30 33 1 11 6
M  V30 34 1 32 13
M  V30 35 1 29 17
M  V30 36 1 27 21
M  V30 37 1 1 34
M  V30 38 1 1 35
M  V30 39 1 2 36
M  V30 40 1 7 37
M  V30 41 1 8 38
M  V30 42 1 9 39
M  V30 43 1 10 40
M  V30 44 1 12 41
M  V30 45 1 16 42
M  V30 46 1 18 43
M  V30 47 1 19 44
M  V30 48 1 22 45
M  V30 49 1 22 46
M  V30 50 1 23 47
M  V30 51 1 23 48
M  V30 52 1 25 49
M  V30 53 1 25 50
M  V30 54 1 25 51
M  V30 55 1 26 52
M  V30 56 1 26 53
M  V30 57 1 27 54
M  V30 58 1 27 55
M  V30 59 1 28 56
M  V30 60 1 29 57
M  V30 61 1 31 58
M  V30 END BOND
M  V30 END CTAB
M  END
>  <Dataset>  (707) 
ChEMBL_Kinases

>  <Ligand_Instance>  (707) 
nan

>  <PDB_ID>  (707) 
nan

>  <Standardized_SMILES>  (707) 
C=CC(=O)Oc1ccccc1Nc1nc(Nc2ccc(N3CCN(C)CC3)cc2)ncc1Cl

>  <Name>  (707) 
nan

>  <Pocket>  (707) 
nan

>  <ATP_Site>  (707) 
nan

>  <Peripheral>  (707) 
nan

>  <Num_H_Atoms_ProtBoundConf>  (707) 
nan

>  <Num_Resolved_Atoms>  (707) 
nan

>  <Num_Not_Resolved_Atoms>  (707) 
nan

$$$$
CHEMBL3660018
     RDKit          3D

  0  0  0  0  0  0  0  0  0  0999 V3000
M  V30 BEGIN CTAB
M  V30 COUNTS 51 55 0 0 0
M  V30 BEGIN ATOM
M  V30 1 C -1.558605 -2.390879 -2.895389 0
M  V30 2 O -0.672638 -2.312331 -1.772207 0
M  V30 3 C -0.152952 -3.448479 -1.169169 0
M  V30 4 O -0.570798 -4.506602 -1.747062 0
M  V30 5 C 0.751615 -3.215309 -0.015205 0 CFG=2
M  V30 6 C 2.008200 -2.507308 -0.482824 0
M  V30 7 C 2.566738 -1.820671 0.768086 0 CFG=1
M  V30 8 O 1.759883 -0.669656 0.924127 0
M  V30 9 C 2.226901 0.624858 0.964704 0
M  V30 10 C 3.519144 1.070622 0.867725 0
M  V30 11 C 3.855812 2.407128 0.923901 0
M  V30 12 C 2.896732 3.386406 1.083299 0
M  V30 13 C 1.589721 2.960155 1.183022 0
M  V30 14 C 0.648397 3.960255 1.341997 0
M  V30 15 C -0.667604 3.579778 1.445576 0
M  V30 16 C -0.999514 2.225266 1.387731 0
M  V30 17 C -2.417775 1.854417 1.501800 0
M  V30 18 N -3.459542 2.691775 1.659755 0
M  V30 19 N -4.573438 1.988586 1.721722 0
M  V30 20 C -4.224852 0.695305 1.601112 0
M  V30 21 C -5.081499 -0.400327 1.611647 0
M  V30 22 C -4.527606 -1.658145 1.473297 0
M  V30 23 C -3.159618 -1.757895 1.332750 0
M  V30 24 C -2.379121 -0.619390 1.332537 0
M  V30 25 N -2.890404 0.595650 1.463857 0
M  V30 26 N -0.057059 1.278137 1.232188 0
M  V30 27 C 1.242876 1.606738 1.126725 0
M  V30 28 C 2.240594 -2.735387 1.933309 0
M  V30 29 C 2.205932 -4.179770 1.557633 0
M  V30 30 N 1.233747 -4.489290 0.533770 0
M  V30 31 H -1.045872 -2.590243 -3.837354 0
M  V30 32 H -2.353246 -3.150561 -2.731150 0
M  V30 33 H -2.038399 -1.395943 -2.963992 0
M  V30 34 H 0.244000 -2.679150 0.811642 0
M  V30 35 H 1.758626 -1.769067 -1.270644 0
M  V30 36 H 2.799130 -3.228173 -0.800087 0
M  V30 37 H 3.634627 -1.627279 0.675583 0
M  V30 38 H 4.263906 0.305625 0.743639 0
M  V30 39 H 4.900780 2.658722 0.838212 0
M  V30 40 H 3.227796 4.398531 1.118386 0
M  V30 41 H 0.904506 5.006756 1.386729 0
M  V30 42 H -1.441523 4.318059 1.570683 0
M  V30 43 H -6.154274 -0.290837 1.723952 0
M  V30 44 H -5.150667 -2.556984 1.474128 0
M  V30 45 H -2.727837 -2.749972 1.224118 0
M  V30 46 H -1.329242 -0.729375 1.222429 0
M  V30 47 H 1.359590 -2.425578 2.500525 0
M  V30 48 H 3.106574 -2.622755 2.642200 0
M  V30 49 H 1.913872 -4.743414 2.459285 0
M  V30 50 H 3.237528 -4.548526 1.310749 0
M  V30 51 H 1.784560 -4.920180 -0.264788 0
M  V30 END ATOM
M  V30 BEGIN BOND
M  V30 1 1 1 2
M  V30 2 1 2 3
M  V30 3 2 3 4
M  V30 4 1 3 5
M  V30 5 1 5 6
M  V30 6 1 6 7
M  V30 7 1 7 8
M  V30 8 1 8 9
M  V30 9 2 9 10
M  V30 10 1 10 11
M  V30 11 2 11 12
M  V30 12 1 12 13
M  V30 13 2 13 14
M  V30 14 1 14 15
M  V30 15 2 15 16
M  V30 16 1 16 17
M  V30 17 2 17 18
M  V30 18 1 18 19
M  V30 19 2 19 20
M  V30 20 1 20 21
M  V30 21 2 21 22
M  V30 22 1 22 23
M  V30 23 2 23 24
M  V30 24 1 24 25
M  V30 25 1 16 26
M  V30 26 2 26 27
M  V30 27 1 7 28
M  V30 28 1 28 29
M  V30 29 1 29 30
M  V30 30 1 30 5
M  V30 31 1 27 9
M  V30 32 1 27 13
M  V30 33 1 25 17
M  V30 34 1 25 20
M  V30 35 1 1 31
M  V30 36 1 1 32
M  V30 37 1 1 33
M  V30 38 1 5 34 CFG=1
M  V30 39 1 6 35
M  V30 40 1 6 36
M  V30 41 1 7 37 CFG=3
M  V30 42 1 10 38
M  V30 43 1 11 39
M  V30 44 1 12 40
M  V30 45 1 14 41
M  V30 46 1 15 42
M  V30 47 1 21 43
M  V30 48 1 22 44
M  V30 49 1 23 45
M  V30 50 1 24 46
M  V30 51 1 28 47
M  V30 52 1 28 48
M  V30 53 1 29 49
M  V30 54 1 29 50
M  V30 55 1 30 51
M  V30 END BOND
M  V30 END CTAB
M  END
>  <Dataset>  (708) 
ChEMBL_Kinases

>  <Ligand_Instance>  (708) 
nan

>  <PDB_ID>  (708) 
nan

>  <Standardized_SMILES>  (708) 
COC(=O)[C@@H]1C[C@@H](Oc2cccc3ccc(-c4nnc5ccccn45)nc23)CCN1

>  <Name>  (708) 
nan

>  <Pocket>  (708) 
nan

>  <ATP_Site>  (708) 
nan

>  <Peripheral>  (708) 
nan

>  <Num_H_Atoms_ProtBoundConf>  (708) 
nan

>  <Num_Resolved_Atoms>  (708) 
nan

>  <Num_Not_Resolved_Atoms>  (708) 
nan

$$$$
CHEMBL3660017
     RDKit          3D

  0  0  0  0  0  0  0  0  0  0999 V3000
M  V30 BEGIN CTAB
M  V30 COUNTS 42 46 0 0 0
M  V30 BEGIN ATOM
M  V30 1 C 0.872272 -4.867443 -1.467178 0
M  V30 2 C 1.716750 -3.986330 -0.820982 0
M  V30 3 C 1.304767 -2.763845 -0.276753 0
M  V30 4 O 2.190882 -2.035667 0.299357 0
M  V30 5 C 3.119566 -1.330483 0.872898 0 CFG=1
M  V30 6 C 3.267965 0.124434 0.451802 0
M  V30 7 C 3.709686 0.826593 1.691983 0
M  V30 8 N 3.374331 0.021181 2.823880 0
M  V30 9 C 2.851661 -1.236198 2.388694 0
M  V30 10 C -0.028371 -2.414518 -0.391688 0
M  V30 11 N -0.475855 -1.248712 0.115103 0
M  V30 12 C -1.780589 -0.884726 0.014065 0
M  V30 13 C -2.314846 0.364611 0.545097 0
M  V30 14 N -3.589326 0.787137 0.481545 0
M  V30 15 N -3.697650 1.965443 1.070061 0
M  V30 16 C -2.491547 2.320958 1.522889 0
M  V30 17 C -2.134913 3.474884 2.201735 0
M  V30 18 C -0.804232 3.582058 2.552824 0
M  V30 19 C 0.113139 2.590273 2.241052 0
M  V30 20 C -0.343300 1.460302 1.552512 0
M  V30 21 N -1.642965 1.330890 1.196748 0
M  V30 22 C -2.632194 -1.758051 -0.629696 0
M  V30 23 C -2.266287 -2.967938 -1.177571 0
M  V30 24 C -0.914720 -3.270682 -1.034266 0
M  V30 25 C -0.435946 -4.458753 -1.545744 0
M  V30 26 H 1.239335 -5.801269 -1.871092 0
M  V30 27 H 2.769482 -4.303498 -0.751746 0
M  V30 28 H 4.139228 -1.834921 0.830174 0
M  V30 29 H 4.115095 0.166831 -0.291732 0
M  V30 30 H 2.387708 0.537821 -0.045972 0
M  V30 31 H 3.238896 1.831234 1.815560 0
M  V30 32 H 4.805121 0.980332 1.695135 0
M  V30 33 H 2.677926 0.470475 3.480664 0
M  V30 34 H 1.769641 -1.362731 2.593162 0
M  V30 35 H 3.363742 -2.046537 2.940693 0
M  V30 36 H -2.858972 4.244737 2.441186 0
M  V30 37 H -0.465547 4.473600 3.091028 0
M  V30 38 H 1.140336 2.735706 2.544783 0
M  V30 39 H 0.372057 0.679906 1.305544 0
M  V30 40 H -3.684179 -1.467457 -0.712636 0
M  V30 41 H -2.966563 -3.618387 -1.671877 0
M  V30 42 H -1.146689 -5.103804 -2.039529 0
M  V30 END ATOM
M  V30 BEGIN BOND
M  V30 1 2 1 2
M  V30 2 1 2 3
M  V30 3 1 3 4
M  V30 4 1 4 5
M  V30 5 1 5 6
M  V30 6 1 6 7
M  V30 7 1 7 8
M  V30 8 1 8 9
M  V30 9 2 3 10
M  V30 10 1 10 11
M  V30 11 2 11 12
M  V30 12 1 12 13
M  V30 13 2 13 14
M  V30 14 1 14 15
M  V30 15 2 15 16
M  V30 16 1 16 17
M  V30 17 2 17 18
M  V30 18 1 18 19
M  V30 19 2 19 20
M  V30 20 1 20 21
M  V30 21 1 12 22
M  V30 22 2 22 23
M  V30 23 1 23 24
M  V30 24 2 24 25
M  V30 25 1 25 1
M  V30 26 1 9 5
M  V30 27 1 24 10
M  V30 28 1 21 13
M  V30 29 1 21 16
M  V30 30 1 1 26
M  V30 31 1 2 27
M  V30 32 1 5 28 CFG=1
M  V30 33 1 6 29
M  V30 34 1 6 30
M  V30 35 1 7 31
M  V30 36 1 7 32
M  V30 37 1 8 33
M  V30 38 1 9 34
M  V30 39 1 9 35
M  V30 40 1 17 36
M  V30 41 1 18 37
M  V30 42 1 19 38
M  V30 43 1 20 39
M  V30 44 1 22 40
M  V30 45 1 23 41
M  V30 46 1 25 42
M  V30 END BOND
M  V30 END CTAB
M  END
>  <Dataset>  (709) 
ChEMBL_Kinases

>  <Ligand_Instance>  (709) 
nan

>  <PDB_ID>  (709) 
nan

>  <Standardized_SMILES>  (709) 
c1cc(O[C@H]2CCNC2)c2nc(-c3nnc4ccccn34)ccc2c1

>  <Name>  (709) 
nan

>  <Pocket>  (709) 
nan

>  <ATP_Site>  (709) 
nan

>  <Peripheral>  (709) 
nan

>  <Num_H_Atoms_ProtBoundConf>  (709) 
nan

>  <Num_Resolved_Atoms>  (709) 
nan

>  <Num_Not_Resolved_Atoms>  (709) 
nan

$$$$
CHEMBL4077117
     RDKit          3D

  0  0  0  0  0  0  0  0  0  0999 V3000
M  V30 BEGIN CTAB
M  V30 COUNTS 36 38 0 0 0
M  V30 BEGIN ATOM
M  V30 1 C 0.841611 -4.192067 3.533997 0
M  V30 2 O 0.855310 -3.460690 2.329954 0
M  V30 3 C 0.996118 -4.040084 1.075855 0
M  V30 4 C 1.140670 -5.403201 0.843812 0
M  V30 5 C 1.273537 -5.871480 -0.447319 0
M  V30 6 C 1.263483 -4.993373 -1.507210 0
M  V30 7 C 1.119739 -3.635420 -1.279823 0
M  V30 8 C 0.987111 -3.164279 0.003924 0
M  V30 9 N 0.844176 -1.756330 0.151058 0
M  V30 10 C 0.832428 -0.832199 -0.947293 0
M  V30 11 C 0.668988 0.577864 -0.502948 0
M  V30 12 N -0.444227 1.308936 -0.312168 0
M  V30 13 C -0.128927 2.549581 0.096456 0
M  V30 14 C -1.001654 3.675020 0.422532 0
M  V30 15 C -1.910980 4.312067 -0.401393 0
M  V30 16 C -2.654757 5.366596 0.083724 0
M  V30 17 N -2.539146 5.817996 1.345201 0
M  V30 18 C -1.666570 5.224934 2.175457 0
M  V30 19 C -0.911958 4.173739 1.723893 0
M  V30 20 N 1.225949 2.579802 0.158273 0
M  V30 21 N 1.713966 1.401138 -0.199617 0
M  V30 22 H 1.510708 -5.074206 3.452680 0
M  V30 23 H 1.266293 -3.597192 4.382515 0
M  V30 24 H -0.183479 -4.521347 3.828059 0
M  V30 25 H 1.143377 -6.057552 1.703331 0
M  V30 26 H 1.383522 -6.960721 -0.552406 0
M  V30 27 H 1.377570 -5.504479 -2.466065 0
M  V30 28 H 1.123713 -3.028016 -2.172065 0
M  V30 29 H 0.741688 -1.372180 1.115481 0
M  V30 30 H 1.724299 -0.881343 -1.586638 0
M  V30 31 H -0.041443 -1.021420 -1.635783 0
M  V30 32 H -1.960849 3.906694 -1.403225 0
M  V30 33 H -3.344939 5.806267 -0.636896 0
M  V30 34 H -1.563347 5.585636 3.209822 0
M  V30 35 H -0.225751 3.729818 2.425670 0
M  V30 36 H 2.757438 1.224619 -0.215859 0
M  V30 END ATOM
M  V30 BEGIN BOND
M  V30 1 1 1 2
M  V30 2 1 2 3
M  V30 3 2 3 4
M  V30 4 1 4 5
M  V30 5 2 5 6
M  V30 6 1 6 7
M  V30 7 2 7 8
M  V30 8 1 8 9
M  V30 9 1 9 10
M  V30 10 1 10 11
M  V30 11 2 11 12
M  V30 12 1 12 13
M  V30 13 1 13 14
M  V30 14 2 14 15
M  V30 15 1 15 16
M  V30 16 2 16 17
M  V30 17 1 17 18
M  V30 18 2 18 19
M  V30 19 2 13 20
M  V30 20 1 20 21
M  V30 21 1 8 3
M  V30 22 1 21 11
M  V30 23 1 19 14
M  V30 24 1 1 22
M  V30 25 1 1 23
M  V30 26 1 1 24
M  V30 27 1 4 25
M  V30 28 1 5 26
M  V30 29 1 6 27
M  V30 30 1 7 28
M  V30 31 1 9 29
M  V30 32 1 10 30
M  V30 33 1 10 31
M  V30 34 1 15 32
M  V30 35 1 16 33
M  V30 36 1 18 34
M  V30 37 1 19 35
M  V30 38 1 21 36
M  V30 END BOND
M  V30 END CTAB
M  END
>  <Dataset>  (710) 
ChEMBL_Kinases

>  <Ligand_Instance>  (710) 
nan

>  <PDB_ID>  (710) 
nan

>  <Standardized_SMILES>  (710) 
COc1ccccc1NCc1nc(-c2ccncc2)n[nH]1

>  <Name>  (710) 
nan

>  <Pocket>  (710) 
nan

>  <ATP_Site>  (710) 
nan

>  <Peripheral>  (710) 
nan

>  <Num_H_Atoms_ProtBoundConf>  (710) 
nan

>  <Num_Resolved_Atoms>  (710) 
nan

>  <Num_Not_Resolved_Atoms>  (710) 
nan

$$$$
CHEMBL4077032
     RDKit          3D

  0  0  0  0  0  0  0  0  0  0999 V3000
M  V30 BEGIN CTAB
M  V30 COUNTS 51 55 0 0 0
M  V30 BEGIN ATOM
M  V30 1 C 0.052789 -5.868497 0.624985 0
M  V30 2 C 0.960454 -5.117407 1.569392 0 CFG=1
M  V30 3 C 1.806333 -4.096337 0.842399 0
M  V30 4 N 1.024341 -2.947515 0.435548 0
M  V30 5 C 1.001124 -2.422772 -0.909006 0
M  V30 6 O 1.749296 -3.082278 -1.693943 0
M  V30 7 C 0.138970 -1.262124 -1.085592 0
M  V30 8 N 0.402981 0.051852 -1.328050 0
M  V30 9 C -0.607878 0.939123 -1.448314 0
M  V30 10 N -0.172488 2.268565 -1.697319 0
M  V30 11 C 0.008917 2.849929 -0.399365 0
M  V30 12 C 1.175074 2.666574 0.321506 0
M  V30 13 C 1.108665 3.341837 1.549313 0
M  V30 14 C 2.188635 3.343383 2.568330 0
M  V30 15 C 2.413926 1.991010 3.270693 0
M  V30 16 C 3.429335 2.591088 2.314067 0
M  V30 17 N -0.109067 3.905456 1.507794 0
M  V30 18 N -0.744308 3.628895 0.395803 0
M  V30 19 C -1.917630 0.540089 -1.329114 0
M  V30 20 C -2.918144 1.499541 -1.464611 0
M  V30 21 C -4.209342 1.040022 -1.336770 0
M  V30 22 Cl -5.551520 2.148052 -1.483500 0
M  V30 23 C -4.557707 -0.266647 -1.092346 0
M  V30 24 C -3.522152 -1.194760 -0.964183 0
M  V30 25 C -2.192820 -0.797773 -1.082671 0
M  V30 26 N -1.143338 -1.632735 -0.973073 0
M  V30 27 C 0.250935 -2.360416 1.524928 0
M  V30 28 C 0.519571 -3.108367 2.785516 0
M  V30 29 N 0.133417 -4.492433 2.580372 0
M  V30 30 H 0.582665 -6.145305 -0.314739 0
M  V30 31 H -0.780014 -5.168907 0.343453 0
M  V30 32 H -0.416610 -6.751088 1.089324 0
M  V30 33 H 1.628144 -5.838745 2.060408 0
M  V30 34 H 2.657951 -3.769355 1.469222 0
M  V30 35 H 2.214865 -4.578192 -0.055350 0
M  V30 36 H 0.023086 2.848476 -2.553651 0
M  V30 37 H 2.042822 2.084682 0.008444 0
M  V30 38 H 2.132910 4.185390 3.265344 0
M  V30 39 H 2.641499 2.035221 4.352360 0
M  V30 40 H 1.778251 1.157593 2.962695 0
M  V30 41 H 4.369582 2.976048 2.739696 0
M  V30 42 H 3.589995 2.068116 1.344444 0
M  V30 43 H -0.469020 4.496455 2.303759 0
M  V30 44 H -2.674243 2.528006 -1.654417 0
M  V30 45 H -5.545872 -0.684767 -0.976597 0
M  V30 46 H -3.610465 -2.266073 -0.768069 0
M  V30 47 H 0.552172 -1.284772 1.675511 0
M  V30 48 H -0.811990 -2.428696 1.263145 0
M  V30 49 H -0.157116 -2.700750 3.569476 0
M  V30 50 H 1.565617 -2.995538 3.142660 0
M  V30 51 H 0.215105 -5.049862 3.454754 0
M  V30 END ATOM
M  V30 BEGIN BOND
M  V30 1 1 1 2
M  V30 2 1 2 3
M  V30 3 1 3 4
M  V30 4 1 4 5
M  V30 5 2 5 6
M  V30 6 1 5 7
M  V30 7 2 7 8
M  V30 8 1 8 9
M  V30 9 1 9 10
M  V30 10 1 10 11
M  V30 11 1 11 12
M  V30 12 2 12 13
M  V30 13 1 13 14
M  V30 14 1 14 15
M  V30 15 1 15 16
M  V30 16 1 13 17
M  V30 17 1 17 18
M  V30 18 2 9 19
M  V30 19 1 19 20
M  V30 20 2 20 21
M  V30 21 1 21 22
M  V30 22 1 21 23
M  V30 23 2 23 24
M  V30 24 1 24 25
M  V30 25 2 25 26
M  V30 26 1 4 27
M  V30 27 1 27 28
M  V30 28 1 28 29
M  V30 29 1 29 2
M  V30 30 1 26 7
M  V30 31 2 18 11
M  V30 32 1 25 19
M  V30 33 1 16 14
M  V30 34 1 1 30
M  V30 35 1 1 31
M  V30 36 1 1 32
M  V30 37 1 2 33 CFG=1
M  V30 38 1 3 34
M  V30 39 1 3 35
M  V30 40 1 10 36
M  V30 41 1 12 37
M  V30 42 1 14 38
M  V30 43 1 15 39
M  V30 44 1 15 40
M  V30 45 1 16 41
M  V30 46 1 16 42
M  V30 47 1 17 43
M  V30 48 1 20 44
M  V30 49 1 23 45
M  V30 50 1 24 46
M  V30 51 1 27 47
M  V30 52 1 27 48
M  V30 53 1 28 49
M  V30 54 1 28 50
M  V30 55 1 29 51
M  V30 END BOND
M  V30 END CTAB
M  END
>  <Dataset>  (711) 
ChEMBL_Kinases

>  <Ligand_Instance>  (711) 
nan

>  <PDB_ID>  (711) 
nan

>  <Standardized_SMILES>  (711) 
C[C@H]1CN(C(=O)c2nc(Nc3cc(C4CC4)[nH]n3)c3cc(Cl)ccc3n2)CCN1

>  <Name>  (711) 
nan

>  <Pocket>  (711) 
nan

>  <ATP_Site>  (711) 
nan

>  <Peripheral>  (711) 
nan

>  <Num_H_Atoms_ProtBoundConf>  (711) 
nan

>  <Num_Resolved_Atoms>  (711) 
nan

>  <Num_Not_Resolved_Atoms>  (711) 
nan

$$$$
CHEMBL4077018
     RDKit          3D

  0  0  0  0  0  0  0  0  0  0999 V3000
M  V30 BEGIN CTAB
M  V30 COUNTS 69 73 0 0 0
M  V30 BEGIN ATOM
M  V30 1 C 2.955315 5.846471 7.310588 0
M  V30 2 C 2.629585 5.950692 6.011075 0
M  V30 3 C 3.286265 5.398401 4.828535 0
M  V30 4 O 3.006193 5.476617 3.595778 0
M  V30 5 N 4.484847 4.596508 4.951518 0
M  V30 6 C 4.858886 4.219111 3.605575 0
M  V30 7 C 5.702550 4.962016 2.769063 0
M  V30 8 C 5.973430 4.485813 1.511875 0
M  V30 9 C 5.427842 3.282103 1.051614 0
M  V30 10 C 4.593224 2.528162 1.852635 0
M  V30 11 C 4.056195 1.286835 1.314174 0
M  V30 12 O 4.387700 1.005025 0.124233 0
M  V30 13 N 3.217447 0.470366 2.103205 0
M  V30 14 C 2.562227 -0.762618 1.851961 0
M  V30 15 C 1.279980 -0.581708 1.363384 0
M  V30 16 C 0.481966 -1.690987 1.050166 0
M  V30 17 C 0.981416 -2.985936 1.231072 0
M  V30 18 N 0.171300 -4.137672 0.910841 0
M  V30 19 C -1.171135 -3.790862 0.561527 0
M  V30 20 C -1.683363 -3.394591 -0.643817 0
M  V30 21 C -3.013826 -3.109569 -0.759329 0
M  V30 22 C -3.554131 -2.681747 -2.029105 0
M  V30 23 C -3.720830 -3.139248 -3.301951 0
M  V30 24 C -3.238612 -4.471515 -3.600261 0
M  V30 25 C -3.714475 -5.644237 -3.012804 0
M  V30 26 C -3.136499 -6.833771 -3.417692 0
M  V30 27 C -2.130658 -6.911625 -4.357207 0
M  V30 28 F -1.654767 -8.138024 -4.661583 0
M  V30 29 C -1.691757 -5.727237 -4.910762 0
M  V30 30 C -2.233208 -4.509875 -4.543805 0
M  V30 31 N -4.334803 -2.204707 -4.070722 0
M  V30 32 C -4.553000 -1.141050 -3.248880 0
M  V30 33 S -5.357403 0.360801 -3.830946 0
M  V30 34 C -7.145659 0.208293 -3.590255 0
M  V30 35 N -4.082612 -1.418415 -2.003205 0
M  V30 36 C -4.217800 -0.399236 -0.955716 0
M  V30 37 C -3.805831 -3.237757 0.376342 0
M  V30 38 C -3.285157 -3.642723 1.609250 0
M  V30 39 N -1.961858 -3.908775 1.655290 0
M  V30 40 C 2.277802 -3.147069 1.724955 0
M  V30 41 C 3.050973 -2.043154 2.028674 0
M  V30 42 C 4.355545 3.045113 3.093357 0
M  V30 43 H 2.258205 6.379181 7.970780 0
M  V30 44 H 3.846602 5.249721 7.422260 0
M  V30 45 H 1.753852 6.511883 5.642787 0
M  V30 46 H 4.900696 4.402097 5.891473 0
M  V30 47 H 6.081903 5.881451 3.201880 0
M  V30 48 H 6.625896 5.068198 0.877071 0
M  V30 49 H 5.707534 2.996510 0.036042 0
M  V30 50 H 2.937759 0.688820 3.084437 0
M  V30 51 H 0.812044 0.379094 1.192790 0
M  V30 52 H -0.524206 -1.525472 0.666394 0
M  V30 53 H 0.614145 -5.058512 0.962271 0
M  V30 54 H -0.960373 -3.338845 -1.428532 0
M  V30 55 H -4.501515 -5.553156 -2.281414 0
M  V30 56 H -3.566994 -7.703099 -2.908104 0
M  V30 57 H -0.907560 -5.804518 -5.641305 0
M  V30 58 H -1.827973 -3.619715 -5.030395 0
M  V30 59 H -7.585917 -0.672009 -4.070944 0
M  V30 60 H -7.418771 0.164623 -2.513020 0
M  V30 61 H -7.634473 1.108485 -4.049825 0
M  V30 62 H -3.443784 -0.550607 -0.165299 0
M  V30 63 H -5.246653 -0.362331 -0.552210 0
M  V30 64 H -4.009956 0.601073 -1.387360 0
M  V30 65 H -4.872634 -3.018291 0.316403 0
M  V30 66 H -3.940311 -3.734576 2.486947 0
M  V30 67 H 2.701685 -4.138061 1.879615 0
M  V30 68 H 4.059905 -2.086531 2.413217 0
M  V30 69 H 3.696430 2.460592 3.739719 0
M  V30 END ATOM
M  V30 BEGIN BOND
M  V30 1 2 1 2
M  V30 2 1 2 3
M  V30 3 2 3 4
M  V30 4 1 3 5
M  V30 5 1 5 6
M  V30 6 2 6 7
M  V30 7 1 7 8
M  V30 8 2 8 9
M  V30 9 1 9 10
M  V30 10 1 10 11
M  V30 11 2 11 12
M  V30 12 1 11 13
M  V30 13 1 13 14
M  V30 14 2 14 15
M  V30 15 1 15 16
M  V30 16 2 16 17
M  V30 17 1 17 18
M  V30 18 1 18 19
M  V30 19 2 19 20
M  V30 20 1 20 21
M  V30 21 1 21 22
M  V30 22 2 22 23
M  V30 23 1 23 24
M  V30 24 2 24 25
M  V30 25 1 25 26
M  V30 26 2 26 27
M  V30 27 1 27 28
M  V30 28 1 27 29
M  V30 29 2 29 30
M  V30 30 1 23 31
M  V30 31 2 31 32
M  V30 32 1 32 33
M  V30 33 1 33 34
M  V30 34 1 32 35
M  V30 35 1 35 36
M  V30 36 2 21 37
M  V30 37 1 37 38
M  V30 38 2 38 39
M  V30 39 1 17 40
M  V30 40 2 40 41
M  V30 41 2 10 42
M  V30 42 1 42 6
M  V30 43 1 41 14
M  V30 44 1 39 19
M  V30 45 1 35 22
M  V30 46 1 30 24
M  V30 47 1 1 43
M  V30 48 1 1 44
M  V30 49 1 2 45
M  V30 50 1 5 46
M  V30 51 1 7 47
M  V30 52 1 8 48
M  V30 53 1 9 49
M  V30 54 1 13 50
M  V30 55 1 15 51
M  V30 56 1 16 52
M  V30 57 1 18 53
M  V30 58 1 20 54
M  V30 59 1 25 55
M  V30 60 1 26 56
M  V30 61 1 29 57
M  V30 62 1 30 58
M  V30 63 1 34 59
M  V30 64 1 34 60
M  V30 65 1 34 61
M  V30 66 1 36 62
M  V30 67 1 36 63
M  V30 68 1 36 64
M  V30 69 1 37 65
M  V30 70 1 38 66
M  V30 71 1 40 67
M  V30 72 1 41 68
M  V30 73 1 42 69
M  V30 END BOND
M  V30 END CTAB
M  END
>  <Dataset>  (712) 
ChEMBL_Kinases

>  <Ligand_Instance>  (712) 
nan

>  <PDB_ID>  (712) 
nan

>  <Standardized_SMILES>  (712) 
C=CC(=O)Nc1cccc(C(=O)Nc2ccc(Nc3cc(-c4c(-c5ccc(F)cc5)nc(SC)n4C)ccn3)cc2)c1

>  <Name>  (712) 
nan

>  <Pocket>  (712) 
nan

>  <ATP_Site>  (712) 
nan

>  <Peripheral>  (712) 
nan

>  <Num_H_Atoms_ProtBoundConf>  (712) 
nan

>  <Num_Resolved_Atoms>  (712) 
nan

>  <Num_Not_Resolved_Atoms>  (712) 
nan

$$$$
CHEMBL4077010
     RDKit          3D

  0  0  0  0  0  0  0  0  0  0999 V3000
M  V30 BEGIN CTAB
M  V30 COUNTS 27 29 0 0 0
M  V30 BEGIN ATOM
M  V30 1 C -2.322128 -2.512195 2.295735 0
M  V30 2 N -1.352127 -1.672920 1.575267 0
M  V30 3 C -0.006589 -1.734019 1.609141 0
M  V30 4 C 0.511572 -0.754974 0.776733 0
M  V30 5 C 1.924046 -0.465854 0.514420 0
M  V30 6 C 2.685289 -0.447226 1.680052 0
M  V30 7 C 4.048300 -0.180262 1.541641 0
M  V30 8 N 4.607163 0.051654 0.318312 0
M  V30 9 C 3.824586 0.019962 -0.760505 0
M  V30 10 C 2.473651 -0.234037 -0.724321 0
M  V30 11 C -0.566694 -0.088669 0.228997 0
M  V30 12 C -0.645398 0.947476 -0.643715 0
M  V30 13 C -1.898415 1.387136 -0.998010 0
M  V30 14 N -3.011066 0.824846 -0.509245 0
M  V30 15 C -2.993552 -0.201637 0.356121 0
M  V30 16 C -1.729146 -0.667471 0.732338 0
M  V30 17 H -2.633580 -1.965931 3.230416 0
M  V30 18 H -1.832400 -3.433373 2.632818 0
M  V30 19 H -3.177085 -2.747146 1.662502 0
M  V30 20 H 0.583107 -2.428288 2.186893 0
M  V30 21 H 2.304949 -0.621968 2.673759 0
M  V30 22 H 4.689009 -0.155252 2.433917 0
M  V30 23 H 4.265360 0.205034 -1.746079 0
M  V30 24 H 1.806851 -0.268215 -1.575367 0
M  V30 25 H 0.199093 1.453589 -1.081587 0
M  V30 26 H -2.004914 2.211371 -1.691638 0
M  V30 27 H -3.904222 -0.665993 0.759640 0
M  V30 END ATOM
M  V30 BEGIN BOND
M  V30 1 1 1 2
M  V30 2 1 2 3
M  V30 3 2 3 4
M  V30 4 1 4 5
M  V30 5 2 5 6
M  V30 6 1 6 7
M  V30 7 2 7 8
M  V30 8 1 8 9
M  V30 9 2 9 10
M  V30 10 1 4 11
M  V30 11 2 11 12
M  V30 12 1 12 13
M  V30 13 2 13 14
M  V30 14 1 14 15
M  V30 15 2 15 16
M  V30 16 1 16 2
M  V30 17 1 10 5
M  V30 18 1 16 11
M  V30 19 1 1 17
M  V30 20 1 1 18
M  V30 21 1 1 19
M  V30 22 1 3 20
M  V30 23 1 6 21
M  V30 24 1 7 22
M  V30 25 1 9 23
M  V30 26 1 10 24
M  V30 27 1 12 25
M  V30 28 1 13 26
M  V30 29 1 15 27
M  V30 END BOND
M  V30 END CTAB
M  END
>  <Dataset>  (713) 
ChEMBL_Kinases

>  <Ligand_Instance>  (713) 
nan

>  <PDB_ID>  (713) 
nan

>  <Standardized_SMILES>  (713) 
Cn1cc(-c2ccncc2)c2ccncc21

>  <Name>  (713) 
nan

>  <Pocket>  (713) 
nan

>  <ATP_Site>  (713) 
nan

>  <Peripheral>  (713) 
nan

>  <Num_H_Atoms_ProtBoundConf>  (713) 
nan

>  <Num_Resolved_Atoms>  (713) 
nan

>  <Num_Not_Resolved_Atoms>  (713) 
nan

$$$$
CHEMBL3660016
     RDKit          3D

  0  0  0  0  0  0  0  0  0  0999 V3000
M  V30 BEGIN CTAB
M  V30 COUNTS 42 46 0 0 0
M  V30 BEGIN ATOM
M  V30 1 C 1.720516 -3.659396 -2.357133 0
M  V30 2 C 2.531646 -2.636244 -1.922141 0
M  V30 3 C 2.198717 -1.739757 -0.899095 0
M  V30 4 O 3.095772 -0.787927 -0.586169 0
M  V30 5 C 3.111123 0.200717 0.374888 0 CFG=2
M  V30 6 C 2.865485 1.531844 -0.370316 0
M  V30 7 C 4.272011 1.740524 -0.948299 0
M  V30 8 N 5.185226 1.293473 0.055036 0
M  V30 9 C 4.482631 0.415729 0.975081 0
M  V30 10 C 0.970034 -1.937357 -0.324013 0
M  V30 11 N 0.421632 -1.305540 0.571506 0
M  V30 12 C -0.322815 -0.874831 1.404344 0
M  V30 13 C -1.211334 -0.360996 2.398021 0
M  V30 14 N -0.402005 0.079637 3.398614 0
M  V30 15 N -1.179600 0.621400 4.353557 0
M  V30 16 C -2.464188 0.514095 3.935300 0
M  V30 17 C -3.723079 0.866216 4.373572 0
M  V30 18 C -4.882384 0.616246 3.623528 0
M  V30 19 C -4.747110 -0.010123 2.393705 0
M  V30 20 C -3.493118 -0.359601 1.962437 0
M  V30 21 N -2.449502 -0.087190 2.740026 0
M  V30 22 C -1.215513 -1.964754 0.964497 0
M  V30 23 C -1.092056 -2.976296 -0.020122 0
M  V30 24 C 0.114625 -2.968489 -0.739302 0
M  V30 25 C 0.480755 -3.837293 -1.757373 0
M  V30 26 H 1.986649 -4.339971 -3.141211 0
M  V30 27 H 3.484252 -2.531937 -2.412914 0
M  V30 28 H 2.371214 0.100192 1.185332 0
M  V30 29 H 2.602967 2.295632 0.361697 0
M  V30 30 H 2.190080 1.410917 -1.220258 0
M  V30 31 H 4.377267 2.805702 -1.234913 0
M  V30 32 H 4.370220 1.056691 -1.837237 0
M  V30 33 H 5.610456 2.129246 0.516456 0
M  V30 34 H 4.468820 0.942627 1.942309 0
M  V30 35 H 5.029154 -0.546359 1.122414 0
M  V30 36 H -3.713718 1.357254 5.359241 0
M  V30 37 H -5.835877 0.938220 4.070365 0
M  V30 38 H -5.643741 -0.196400 1.825726 0
M  V30 39 H -3.492311 -0.794240 0.984198 0
M  V30 40 H -2.235659 -2.375097 1.320609 0
M  V30 41 H -1.712574 -3.806414 -0.396519 0
M  V30 42 H -0.259775 -4.612696 -2.013732 0
M  V30 END ATOM
M  V30 BEGIN BOND
M  V30 1 2 1 2
M  V30 2 1 2 3
M  V30 3 1 3 4
M  V30 4 1 4 5
M  V30 5 1 5 6
M  V30 6 1 6 7
M  V30 7 1 7 8
M  V30 8 1 8 9
M  V30 9 2 3 10
M  V30 10 1 10 11
M  V30 11 2 11 12
M  V30 12 1 12 13
M  V30 13 2 13 14
M  V30 14 1 14 15
M  V30 15 2 15 16
M  V30 16 1 16 17
M  V30 17 2 17 18
M  V30 18 1 18 19
M  V30 19 2 19 20
M  V30 20 1 20 21
M  V30 21 1 12 22
M  V30 22 2 22 23
M  V30 23 1 23 24
M  V30 24 2 24 25
M  V30 25 1 25 1
M  V30 26 1 9 5
M  V30 27 1 24 10
M  V30 28 1 21 13
M  V30 29 1 21 16
M  V30 30 1 1 26
M  V30 31 1 2 27
M  V30 32 1 5 28 CFG=1
M  V30 33 1 6 29
M  V30 34 1 6 30
M  V30 35 1 7 31
M  V30 36 1 7 32
M  V30 37 1 8 33
M  V30 38 1 9 34
M  V30 39 1 9 35
M  V30 40 1 17 36
M  V30 41 1 18 37
M  V30 42 1 19 38
M  V30 43 1 20 39
M  V30 44 1 22 40
M  V30 45 1 23 41
M  V30 46 1 25 42
M  V30 END BOND
M  V30 END CTAB
M  END
>  <Dataset>  (714) 
ChEMBL_Kinases

>  <Ligand_Instance>  (714) 
nan

>  <PDB_ID>  (714) 
nan

>  <Standardized_SMILES>  (714) 
c1cc(O[C@@H]2CCNC2)c2nc(-c3nnc4ccccn34)ccc2c1

>  <Name>  (714) 
nan

>  <Pocket>  (714) 
nan

>  <ATP_Site>  (714) 
nan

>  <Peripheral>  (714) 
nan

>  <Num_H_Atoms_ProtBoundConf>  (714) 
nan

>  <Num_Resolved_Atoms>  (714) 
nan

>  <Num_Not_Resolved_Atoms>  (714) 
nan

$$$$
CHEMBL4076947
     RDKit          3D

  0  0  0  0  0  0  0  0  0  0999 V3000
M  V30 BEGIN CTAB
M  V30 COUNTS 38 41 0 0 0
M  V30 BEGIN ATOM
M  V30 1 C -0.612013 -4.402889 4.334216 0
M  V30 2 C -0.305020 -3.890618 2.998768 0
M  V30 3 C 0.945354 -3.503258 2.539704 0
M  V30 4 C 1.127150 -3.017928 1.253596 0
M  V30 5 N 2.445710 -2.619198 0.826070 0
M  V30 6 C 2.468539 -2.062686 -0.500219 0
M  V30 7 N 3.059679 -2.520256 -1.609933 0
M  V30 8 C 2.971316 -1.868473 -2.792922 0
M  V30 9 C 2.254869 -0.688357 -2.896387 0
M  V30 10 C 1.642650 -0.209532 -1.761601 0
M  V30 11 N 0.889890 0.873842 -1.540856 0
M  V30 12 C 0.480785 0.957941 -0.257234 0
M  V30 13 C -0.357520 2.043510 0.228946 0
M  V30 14 C -0.792376 2.135118 1.526513 0
M  V30 15 Cl -0.400428 0.997522 2.740955 0
M  V30 16 C -1.596843 3.180438 1.951093 0
M  V30 17 C -1.967702 4.151268 1.039213 0
M  V30 18 C -2.814643 5.250954 1.474773 0
M  V30 19 N -3.497401 6.111150 1.831435 0
M  V30 20 C -1.549018 4.085801 -0.261411 0
M  V30 21 C -0.739450 3.035030 -0.691044 0
M  V30 22 Cl -0.267815 3.050833 -2.356062 0
M  V30 23 N 1.014225 -0.118692 0.297393 0
M  V30 24 C 1.732341 -0.873955 -0.554115 0
M  V30 25 N 0.026583 -2.939643 0.463462 0
M  V30 26 C -1.178284 -3.307003 0.887672 0
M  V30 27 N -1.317619 -3.768061 2.128702 0
M  V30 28 H -0.702043 -5.503761 4.383500 0
M  V30 29 H -1.589237 -3.949120 4.672947 0
M  V30 30 H 0.211463 -4.102636 5.021014 0
M  V30 31 H 1.780439 -3.602418 3.247483 0
M  V30 32 H 3.239429 -2.761124 1.482651 0
M  V30 33 H 3.503241 -2.362761 -3.596152 0
M  V30 34 H 2.211764 -0.209673 -3.847065 0
M  V30 35 H -1.959052 3.290569 2.951258 0
M  V30 36 H -1.862306 4.865705 -0.938719 0
M  V30 37 H 0.915999 -0.390053 1.276216 0
M  V30 38 H -1.937937 -3.178722 0.128318 0
M  V30 END ATOM
M  V30 BEGIN BOND
M  V30 1 1 1 2
M  V30 2 2 2 3
M  V30 3 1 3 4
M  V30 4 1 4 5
M  V30 5 1 5 6
M  V30 6 2 6 7
M  V30 7 1 7 8
M  V30 8 2 8 9
M  V30 9 1 9 10
M  V30 10 1 10 11
M  V30 11 2 11 12
M  V30 12 1 12 13
M  V30 13 2 13 14
M  V30 14 1 14 15
M  V30 15 1 14 16
M  V30 16 2 16 17
M  V30 17 1 17 18
M  V30 18 3 18 19
M  V30 19 1 17 20
M  V30 20 2 20 21
M  V30 21 1 21 22
M  V30 22 1 12 23
M  V30 23 1 23 24
M  V30 24 2 4 25
M  V30 25 1 25 26
M  V30 26 2 26 27
M  V30 27 1 27 2
M  V30 28 1 24 6
M  V30 29 2 24 10
M  V30 30 1 21 13
M  V30 31 1 1 28
M  V30 32 1 1 29
M  V30 33 1 1 30
M  V30 34 1 3 31
M  V30 35 1 5 32
M  V30 36 1 8 33
M  V30 37 1 9 34
M  V30 38 1 16 35
M  V30 39 1 20 36
M  V30 40 1 23 37
M  V30 41 1 26 38
M  V30 END BOND
M  V30 END CTAB
M  END
>  <Dataset>  (715) 
ChEMBL_Kinases

>  <Ligand_Instance>  (715) 
nan

>  <PDB_ID>  (715) 
nan

>  <Standardized_SMILES>  (715) 
Cc1cc(Nc2nccc3nc(-c4c(Cl)cc(C#N)cc4Cl)[nH]c23)ncn1

>  <Name>  (715) 
nan

>  <Pocket>  (715) 
nan

>  <ATP_Site>  (715) 
nan

>  <Peripheral>  (715) 
nan

>  <Num_H_Atoms_ProtBoundConf>  (715) 
nan

>  <Num_Resolved_Atoms>  (715) 
nan

>  <Num_Not_Resolved_Atoms>  (715) 
nan

$$$$
CHEMBL3660015
     RDKit          3D

  0  0  0  0  0  0  0  0  0  0999 V3000
M  V30 BEGIN CTAB
M  V30 COUNTS 41 44 0 0 0
M  V30 BEGIN ATOM
M  V30 1 N -3.000214 -4.932960 0.925356 0
M  V30 2 C -2.070753 -4.495899 -0.108653 0
M  V30 3 C -1.367698 -3.218076 0.297601 0
M  V30 4 C -0.403681 -2.798735 -0.817278 0
M  V30 5 O 0.260330 -1.616608 -0.464431 0
M  V30 6 C 1.197427 -0.963022 -1.239481 0
M  V30 7 C 1.626927 -1.377652 -2.490779 0
M  V30 8 C 2.577009 -0.633703 -3.174555 0
M  V30 9 C 3.108102 0.521188 -2.629549 0
M  V30 10 C 2.681707 0.934948 -1.384628 0
M  V30 11 C 3.173826 2.085294 -0.778921 0
M  V30 12 C 2.764998 2.526869 0.471072 0
M  V30 13 C 1.818420 1.749108 1.106468 0
M  V30 14 C 1.347744 2.161910 2.425896 0
M  V30 15 N 1.732318 3.243999 3.129111 0
M  V30 16 N 1.099166 3.296185 4.272749 0
M  V30 17 C 0.271951 2.237763 4.352973 0
M  V30 18 C -0.586664 1.888402 5.376580 0
M  V30 19 C -1.317049 0.735894 5.173840 0
M  V30 20 C -1.167379 0.010430 4.008483 0
M  V30 21 C -0.278365 0.419758 3.008375 0
M  V30 22 N 0.438211 1.548082 3.204279 0
M  V30 23 N 1.348429 0.637271 0.511406 0
M  V30 24 C 1.736626 0.201403 -0.696311 0
M  V30 25 H -2.462447 -5.323312 1.730573 0
M  V30 26 H -3.613443 -4.130548 1.189358 0
M  V30 27 H -1.359468 -5.308091 -0.280239 0
M  V30 28 H -2.648730 -4.323886 -1.021928 0
M  V30 29 H -2.102454 -2.389242 0.358617 0
M  V30 30 H -0.885006 -3.300004 1.275862 0
M  V30 31 H -1.065215 -2.613101 -1.698565 0
M  V30 32 H 0.307894 -3.609964 -1.063689 0
M  V30 33 H 1.192495 -2.287467 -2.892825 0
M  V30 34 H 2.881196 -0.996369 -4.147326 0
M  V30 35 H 3.850147 1.108712 -3.155460 0
M  V30 36 H 3.914414 2.686533 -1.285157 0
M  V30 37 H 3.163114 3.425209 0.920583 0
M  V30 38 H -0.670573 2.489558 6.273984 0
M  V30 39 H -2.005313 0.398078 5.921857 0
M  V30 40 H -1.733766 -0.901960 3.827815 0
M  V30 41 H -0.201399 -0.182043 2.122021 0
M  V30 END ATOM
M  V30 BEGIN BOND
M  V30 1 1 1 2
M  V30 2 1 2 3
M  V30 3 1 3 4
M  V30 4 1 4 5
M  V30 5 1 5 6
M  V30 6 2 6 7
M  V30 7 1 7 8
M  V30 8 2 8 9
M  V30 9 1 9 10
M  V30 10 2 10 11
M  V30 11 1 11 12
M  V30 12 2 12 13
M  V30 13 1 13 14
M  V30 14 2 14 15
M  V30 15 1 15 16
M  V30 16 2 16 17
M  V30 17 1 17 18
M  V30 18 2 18 19
M  V30 19 1 19 20
M  V30 20 2 20 21
M  V30 21 1 21 22
M  V30 22 1 13 23
M  V30 23 2 23 24
M  V30 24 1 24 6
M  V30 25 1 24 10
M  V30 26 1 22 14
M  V30 27 1 22 17
M  V30 28 1 1 25
M  V30 29 1 1 26
M  V30 30 1 2 27
M  V30 31 1 2 28
M  V30 32 1 3 29
M  V30 33 1 3 30
M  V30 34 1 4 31
M  V30 35 1 4 32
M  V30 36 1 7 33
M  V30 37 1 8 34
M  V30 38 1 9 35
M  V30 39 1 11 36
M  V30 40 1 12 37
M  V30 41 1 18 38
M  V30 42 1 19 39
M  V30 43 1 20 40
M  V30 44 1 21 41
M  V30 END BOND
M  V30 END CTAB
M  END
>  <Dataset>  (716) 
ChEMBL_Kinases

>  <Ligand_Instance>  (716) 
nan

>  <PDB_ID>  (716) 
nan

>  <Standardized_SMILES>  (716) 
NCCCOc1cccc2ccc(-c3nnc4ccccn34)nc12

>  <Name>  (716) 
nan

>  <Pocket>  (716) 
nan

>  <ATP_Site>  (716) 
nan

>  <Peripheral>  (716) 
nan

>  <Num_H_Atoms_ProtBoundConf>  (716) 
nan

>  <Num_Resolved_Atoms>  (716) 
nan

>  <Num_Not_Resolved_Atoms>  (716) 
nan

$$$$
CHEMBL4076439
     RDKit          3D

  0  0  0  0  0  0  0  0  0  0999 V3000
M  V30 BEGIN CTAB
M  V30 COUNTS 42 45 0 0 0
M  V30 BEGIN ATOM
M  V30 1 N 1.298554 -5.392778 2.088388 0
M  V30 2 C 2.024435 -4.943672 0.942853 0
M  V30 3 C 2.165957 -3.600818 0.653025 0
M  V30 4 C 2.865225 -3.189431 -0.450109 0
M  V30 5 N 3.022984 -1.831080 -0.769823 0
M  V30 6 C 2.532536 -0.674926 -0.104399 0
M  V30 7 C 3.453991 0.254159 0.381902 0
M  V30 8 C 3.044152 1.398300 1.034701 0
M  V30 9 Cl 4.194919 2.567668 1.647470 0
M  V30 10 C 1.688659 1.608536 1.199377 0
M  V30 11 N 0.766269 0.717991 0.734562 0
M  V30 12 C 1.180871 -0.411647 0.089670 0
M  V30 13 O 0.336595 -1.237069 -0.341875 0
M  V30 14 C -0.585575 1.130867 1.012637 0
M  V30 15 C -1.349895 1.319446 -0.278942 0
M  V30 16 C -2.635839 2.078876 -0.013149 0
M  V30 17 C -3.361798 1.496110 1.167264 0
M  V30 18 C -2.800005 0.172112 1.599572 0
M  V30 19 C -1.339498 0.155030 1.867993 0
M  V30 20 N -0.376966 2.388491 1.707413 0
M  V30 21 C 1.003417 2.726119 1.847468 0
M  V30 22 O 1.442477 3.758713 2.408664 0
M  V30 23 N 3.426689 -4.087291 -1.270677 0
M  V30 24 C 3.293650 -5.399092 -0.995575 0
M  V30 25 N 2.608074 -5.810122 0.086246 0
M  V30 26 H 0.587987 -4.721595 2.496126 0
M  V30 27 H 1.487897 -6.347306 2.477939 0
M  V30 28 H 1.701632 -2.917993 1.337324 0
M  V30 29 H 3.559978 -1.493243 -1.597098 0
M  V30 30 H 4.508751 0.064733 0.239393 0
M  V30 31 H -1.667716 0.313711 -0.623849 0
M  V30 32 H -0.746651 1.835586 -1.048121 0
M  V30 33 H -2.339633 3.130284 0.227277 0
M  V30 34 H -3.253172 2.057498 -0.936473 0
M  V30 35 H -3.472532 2.219004 2.016428 0
M  V30 36 H -4.409909 1.302080 0.848734 0
M  V30 37 H -3.326755 -0.122570 2.533882 0
M  V30 38 H -3.121446 -0.564831 0.815969 0
M  V30 39 H -1.092085 0.308552 2.937219 0
M  V30 40 H -0.986230 -0.871112 1.596973 0
M  V30 41 H -1.179058 2.987393 2.069873 0
M  V30 42 H 3.713954 -6.167227 -1.604544 0
M  V30 END ATOM
M  V30 BEGIN BOND
M  V30 1 1 1 2
M  V30 2 2 2 3
M  V30 3 1 3 4
M  V30 4 1 4 5
M  V30 5 1 5 6
M  V30 6 2 6 7
M  V30 7 1 7 8
M  V30 8 1 8 9
M  V30 9 2 8 10
M  V30 10 1 10 11
M  V30 11 1 11 12
M  V30 12 2 12 13
M  V30 13 1 11 14
M  V30 14 1 14 15
M  V30 15 1 15 16
M  V30 16 1 16 17
M  V30 17 1 17 18
M  V30 18 1 18 19
M  V30 19 1 14 20
M  V30 20 1 20 21
M  V30 21 2 21 22
M  V30 22 2 4 23
M  V30 23 1 23 24
M  V30 24 2 24 25
M  V30 25 1 25 2
M  V30 26 1 12 6
M  V30 27 1 19 14
M  V30 28 1 21 10
M  V30 29 1 1 26
M  V30 30 1 1 27
M  V30 31 1 3 28
M  V30 32 1 5 29
M  V30 33 1 7 30
M  V30 34 1 15 31
M  V30 35 1 15 32
M  V30 36 1 16 33
M  V30 37 1 16 34
M  V30 38 1 17 35
M  V30 39 1 17 36
M  V30 40 1 18 37
M  V30 41 1 18 38
M  V30 42 1 19 39
M  V30 43 1 19 40
M  V30 44 1 20 41
M  V30 45 1 24 42
M  V30 END BOND
M  V30 END CTAB
M  END
>  <Dataset>  (717) 
ChEMBL_Kinases

>  <Ligand_Instance>  (717) 
nan

>  <PDB_ID>  (717) 
nan

>  <Standardized_SMILES>  (717) 
Nc1cc(Nc2cc(Cl)c3n(c2=O)C2(CCCCC2)NC3=O)ncn1

>  <Name>  (717) 
nan

>  <Pocket>  (717) 
nan

>  <ATP_Site>  (717) 
nan

>  <Peripheral>  (717) 
nan

>  <Num_H_Atoms_ProtBoundConf>  (717) 
nan

>  <Num_Resolved_Atoms>  (717) 
nan

>  <Num_Not_Resolved_Atoms>  (717) 
nan

$$$$
CHEMBL3660013
     RDKit          3D

  0  0  0  0  0  0  0  0  0  0999 V3000
M  V30 BEGIN CTAB
M  V30 COUNTS 57 60 0 0 0
M  V30 BEGIN ATOM
M  V30 1 C 0.201630 -1.072339 4.645931 0
M  V30 2 C 0.670855 -1.275908 3.202443 0
M  V30 3 C 1.029954 -2.764710 3.092414 0
M  V30 4 C 1.904141 -0.434315 3.016302 0
M  V30 5 C 2.472939 -0.524987 1.654159 0
M  V30 6 N 1.652452 -0.001582 0.577865 0
M  V30 7 C 2.281418 -0.407068 -0.638418 0
M  V30 8 C 1.641172 -0.010023 -1.914953 0
M  V30 9 C 1.479188 1.444317 -2.178027 0
M  V30 10 N 0.864677 1.570326 -3.516422 0
M  V30 11 C 0.506526 0.808841 0.785588 0
M  V30 12 C 0.989222 1.974729 1.392673 0
M  V30 13 C 0.124346 3.026613 1.733608 0
M  V30 14 C -1.227466 2.922514 1.471384 0
M  V30 15 C -1.694738 1.777473 0.876620 0
M  V30 16 C -3.015186 1.541815 0.574974 0
M  V30 17 C -3.370775 0.343286 -0.012485 0
M  V30 18 C -2.469574 -0.679683 -0.332916 0
M  V30 19 C -2.992877 -1.895024 -0.943308 0
M  V30 20 N -4.287226 -2.081122 -1.255906 0
M  V30 21 N -4.426904 -3.279765 -1.787209 0
M  V30 22 C -3.226791 -3.890816 -1.826306 0
M  V30 23 C -2.763746 -5.116817 -2.256001 0
M  V30 24 C -1.434830 -5.469710 -2.159347 0
M  V30 25 C -0.598617 -4.520918 -1.607020 0
M  V30 26 C -1.007886 -3.288281 -1.165641 0
M  V30 27 N -2.319830 -3.008139 -1.289615 0
M  V30 28 N -1.154063 -0.438705 -0.030248 0
M  V30 29 C -0.841155 0.760130 0.550127 0
M  V30 30 H 1.106399 -0.850793 5.242912 0
M  V30 31 H -0.539853 -0.253116 4.699662 0
M  V30 32 H -0.245052 -2.033952 4.991621 0
M  V30 33 H -0.140290 -1.042907 2.527552 0
M  V30 34 H 1.575253 -3.037485 4.021313 0
M  V30 35 H 1.586659 -2.987761 2.183442 0
M  V30 36 H 0.035156 -3.284312 3.084729 0
M  V30 37 H 2.680017 -0.801135 3.732656 0
M  V30 38 H 1.703550 0.614249 3.348032 0
M  V30 39 H 2.835145 -1.564854 1.473579 0
M  V30 40 H 3.384309 0.155101 1.647073 0
M  V30 41 H 3.390554 -0.195859 -0.662609 0
M  V30 42 H 2.262351 -1.543944 -0.636961 0
M  V30 43 H 2.329338 -0.399505 -2.732256 0
M  V30 44 H 0.705085 -0.593710 -2.087568 0
M  V30 45 H 2.435640 1.992712 -2.234705 0
M  V30 46 H 0.864440 1.975234 -1.435872 0
M  V30 47 H 1.510637 1.344529 -4.273237 0
M  V30 48 H -0.026624 1.074089 -3.579325 0
M  V30 49 H 1.999973 2.290720 1.693585 0
M  V30 50 H 0.375299 3.965807 2.200199 0
M  V30 51 H -1.985889 3.664283 1.687626 0
M  V30 52 H -3.759403 2.298800 0.798908 0
M  V30 53 H -4.438556 0.237349 -0.221539 0
M  V30 54 H -3.556530 -5.739552 -2.661794 0
M  V30 55 H -1.144057 -6.445855 -2.511634 0
M  V30 56 H 0.453286 -4.798493 -1.528764 0
M  V30 57 H -0.321681 -2.563525 -0.735800 0
M  V30 END ATOM
M  V30 BEGIN BOND
M  V30 1 1 1 2
M  V30 2 1 2 3
M  V30 3 1 2 4
M  V30 4 1 4 5
M  V30 5 1 5 6
M  V30 6 1 6 7
M  V30 7 1 7 8
M  V30 8 1 8 9
M  V30 9 1 9 10
M  V30 10 1 6 11
M  V30 11 2 11 12
M  V30 12 1 12 13
M  V30 13 2 13 14
M  V30 14 1 14 15
M  V30 15 2 15 16
M  V30 16 1 16 17
M  V30 17 2 17 18
M  V30 18 1 18 19
M  V30 19 2 19 20
M  V30 20 1 20 21
M  V30 21 2 21 22
M  V30 22 1 22 23
M  V30 23 2 23 24
M  V30 24 1 24 25
M  V30 25 2 25 26
M  V30 26 1 26 27
M  V30 27 1 18 28
M  V30 28 2 28 29
M  V30 29 1 29 11
M  V30 30 1 29 15
M  V30 31 1 27 19
M  V30 32 1 27 22
M  V30 33 1 1 30
M  V30 34 1 1 31
M  V30 35 1 1 32
M  V30 36 1 2 33
M  V30 37 1 3 34
M  V30 38 1 3 35
M  V30 39 1 3 36
M  V30 40 1 4 37
M  V30 41 1 4 38
M  V30 42 1 5 39
M  V30 43 1 5 40
M  V30 44 1 7 41
M  V30 45 1 7 42
M  V30 46 1 8 43
M  V30 47 1 8 44
M  V30 48 1 9 45
M  V30 49 1 9 46
M  V30 50 1 10 47
M  V30 51 1 10 48
M  V30 52 1 12 49
M  V30 53 1 13 50
M  V30 54 1 14 51
M  V30 55 1 16 52
M  V30 56 1 17 53
M  V30 57 1 23 54
M  V30 58 1 24 55
M  V30 59 1 25 56
M  V30 60 1 26 57
M  V30 END BOND
M  V30 END CTAB
M  END
>  <Dataset>  (718) 
ChEMBL_Kinases

>  <Ligand_Instance>  (718) 
nan

>  <PDB_ID>  (718) 
nan

>  <Standardized_SMILES>  (718) 
CC(C)CCN(CCCN)c1cccc2ccc(-c3nnc4ccccn34)nc12

>  <Name>  (718) 
nan

>  <Pocket>  (718) 
nan

>  <ATP_Site>  (718) 
nan

>  <Peripheral>  (718) 
nan

>  <Num_H_Atoms_ProtBoundConf>  (718) 
nan

>  <Num_Resolved_Atoms>  (718) 
nan

>  <Num_Not_Resolved_Atoms>  (718) 
nan

$$$$
CHEMBL3660012
     RDKit          3D

  0  0  0  0  0  0  0  0  0  0999 V3000
M  V30 BEGIN CTAB
M  V30 COUNTS 42 45 0 0 0
M  V30 BEGIN ATOM
M  V30 1 N -0.459376 -4.640460 0.923300 0
M  V30 2 C -0.487385 -3.232404 1.140503 0
M  V30 3 C -1.186710 -2.459583 0.077987 0
M  V30 4 C -0.514919 -2.694411 -1.257868 0
M  V30 5 N 0.862914 -2.402517 -1.346298 0
M  V30 6 C 1.521407 -1.205294 -1.063022 0
M  V30 7 C 2.633724 -1.685731 -2.005991 0
M  V30 8 C 3.881222 -1.074485 -2.412664 0
M  V30 9 C 4.076444 0.181276 -1.817656 0
M  V30 10 C 3.152526 0.699306 -0.963635 0
M  V30 11 C 3.275338 1.890754 -0.321193 0
M  V30 12 C 2.252758 2.220065 0.534827 0
M  V30 13 C 1.120645 1.403991 0.771085 0
M  V30 14 C 0.272058 1.947958 1.825285 0
M  V30 15 N 0.294896 3.217893 2.241311 0
M  V30 16 N -0.539580 3.414597 3.233125 0
M  V30 17 C -1.169021 2.265530 3.534259 0
M  V30 18 C -2.100727 1.905676 4.477754 0
M  V30 19 C -2.545010 0.620621 4.571143 0
M  V30 20 C -2.016148 -0.291322 3.679675 0
M  V30 21 C -1.089500 0.159007 2.769736 0
M  V30 22 N -0.638543 1.406380 2.651139 0
M  V30 23 N 1.088701 0.232456 0.075446 0
M  V30 24 C 2.119256 -0.125920 -0.808561 0
M  V30 25 H -0.492360 -5.208814 1.799676 0
M  V30 26 H -1.165156 -4.903908 0.211528 0
M  V30 27 H 0.591826 -2.889777 1.175126 0
M  V30 28 H -0.857107 -3.028880 2.158992 0
M  V30 29 H -2.253076 -2.875596 -0.003786 0
M  V30 30 H -1.335608 -1.387805 0.243935 0
M  V30 31 H -0.787187 -3.719060 -1.546662 0
M  V30 32 H -1.098745 -2.073955 -2.045909 0
M  V30 33 H 1.077626 -3.368347 -1.615243 0
M  V30 34 H 2.873709 -2.599720 -2.674131 0
M  V30 35 H 4.736689 -1.276753 -3.042865 0
M  V30 36 H 4.928347 0.841703 -1.957914 0
M  V30 37 H 4.143970 2.465098 -0.532650 0
M  V30 38 H 2.459250 3.199477 0.995920 0
M  V30 39 H -2.430345 2.719335 5.116930 0
M  V30 40 H -3.278167 0.445226 5.338018 0
M  V30 41 H -2.378308 -1.307416 3.764333 0
M  V30 42 H -0.675435 -0.576732 2.136726 0
M  V30 END ATOM
M  V30 BEGIN BOND
M  V30 1 1 1 2
M  V30 2 1 2 3
M  V30 3 1 3 4
M  V30 4 1 4 5
M  V30 5 1 5 6
M  V30 6 2 6 7
M  V30 7 1 7 8
M  V30 8 2 8 9
M  V30 9 1 9 10
M  V30 10 2 10 11
M  V30 11 1 11 12
M  V30 12 2 12 13
M  V30 13 1 13 14
M  V30 14 2 14 15
M  V30 15 1 15 16
M  V30 16 2 16 17
M  V30 17 1 17 18
M  V30 18 2 18 19
M  V30 19 1 19 20
M  V30 20 2 20 21
M  V30 21 1 21 22
M  V30 22 1 13 23
M  V30 23 2 23 24
M  V30 24 1 24 6
M  V30 25 1 24 10
M  V30 26 1 22 14
M  V30 27 1 22 17
M  V30 28 1 1 25
M  V30 29 1 1 26
M  V30 30 1 2 27
M  V30 31 1 2 28
M  V30 32 1 3 29
M  V30 33 1 3 30
M  V30 34 1 4 31
M  V30 35 1 4 32
M  V30 36 1 5 33
M  V30 37 1 7 34
M  V30 38 1 8 35
M  V30 39 1 9 36
M  V30 40 1 11 37
M  V30 41 1 12 38
M  V30 42 1 18 39
M  V30 43 1 19 40
M  V30 44 1 20 41
M  V30 45 1 21 42
M  V30 END BOND
M  V30 END CTAB
M  END
>  <Dataset>  (719) 
ChEMBL_Kinases

>  <Ligand_Instance>  (719) 
nan

>  <PDB_ID>  (719) 
nan

>  <Standardized_SMILES>  (719) 
NCCCNc1cccc2ccc(-c3nnc4ccccn34)nc12

>  <Name>  (719) 
nan

>  <Pocket>  (719) 
nan

>  <ATP_Site>  (719) 
nan

>  <Peripheral>  (719) 
nan

>  <Num_H_Atoms_ProtBoundConf>  (719) 
nan

>  <Num_Resolved_Atoms>  (719) 
nan

>  <Num_Not_Resolved_Atoms>  (719) 
nan

$$$$
CHEMBL4076860
     RDKit          3D

  0  0  0  0  0  0  0  0  0  0999 V3000
M  V30 BEGIN CTAB
M  V30 COUNTS 54 58 0 0 0
M  V30 BEGIN ATOM
M  V30 1 C 0.271834 -3.208242 5.287308 0
M  V30 2 C 1.126169 -2.507063 4.255020 0
M  V30 3 C 1.254121 -3.346010 2.968071 0 CFG=2
M  V30 4 C 2.079102 -2.700552 1.922860 0
M  V30 5 N 1.385823 -2.379936 0.697151 0
M  V30 6 C 1.797697 -2.363283 -0.692656 0
M  V30 7 O 2.973557 -2.686218 -0.899835 0
M  V30 8 C 0.689219 -1.953553 -1.565788 0
M  V30 9 N 0.674685 -0.629136 -1.795357 0
M  V30 10 C -0.259800 -0.015330 -2.537447 0
M  V30 11 N -0.224249 1.418966 -2.718686 0
M  V30 12 C -0.243845 2.184073 -1.488011 0
M  V30 13 C 0.515368 1.896929 -0.312800 0
M  V30 14 C 0.119734 2.907331 0.619418 0
M  V30 15 C 0.768163 2.852411 1.952875 0
M  V30 16 C 1.082262 4.192411 2.629693 0
M  V30 17 C -0.001546 3.301751 3.178380 0
M  V30 18 N -0.748890 3.639732 0.014922 0
M  V30 19 N -1.043019 3.308237 -1.244716 0
M  V30 20 C -1.246445 -0.854349 -3.079193 0
M  V30 21 C -2.226732 -0.234331 -3.850989 0
M  V30 22 C -3.201202 -1.054365 -4.384054 0
M  V30 23 Cl -4.442075 -0.275171 -5.333954 0
M  V30 24 C -3.214418 -2.405200 -4.169282 0
M  V30 25 C -2.233443 -3.008041 -3.397670 0
M  V30 26 C -1.248246 -2.215688 -2.856872 0
M  V30 27 N -0.266747 -2.791221 -2.083947 0
M  V30 28 C 0.000304 -2.015874 1.044401 0
M  V30 29 C -0.624866 -3.310761 1.446368 0
M  V30 30 N -0.008658 -3.871590 2.607346 0
M  V30 31 H -0.564631 -2.570859 5.654398 0
M  V30 32 H -0.215374 -4.127915 4.884456 0
M  V30 33 H 0.849883 -3.535590 6.188036 0
M  V30 34 H 0.779123 -1.486725 4.018820 0
M  V30 35 H 2.142964 -2.358440 4.730069 0
M  V30 36 H 1.861145 -4.246693 3.317823 0
M  V30 37 H 3.038872 -3.260891 1.716686 0
M  V30 38 H 2.423952 -1.717023 2.346597 0
M  V30 39 H -0.189494 1.889292 -3.663209 0
M  V30 40 H 1.221555 1.073801 -0.267717 0
M  V30 41 H 1.516893 2.050931 2.160404 0
M  V30 42 H 2.039707 4.229006 3.230017 0
M  V30 43 H 0.787203 5.097470 2.098523 0
M  V30 44 H -1.076626 3.628524 3.067128 0
M  V30 45 H 0.212312 2.842709 4.163697 0
M  V30 46 H -1.187056 4.463183 0.515901 0
M  V30 47 H -2.206550 0.818002 -4.015214 0
M  V30 48 H -3.955117 -3.081437 -4.555165 0
M  V30 49 H -2.231173 -4.089715 -3.203078 0
M  V30 50 H -0.500458 -1.602508 0.134439 0
M  V30 51 H -0.079074 -1.283343 1.845877 0
M  V30 52 H -0.412578 -4.028098 0.592353 0
M  V30 53 H -1.726882 -3.224001 1.541279 0
M  V30 54 H -0.141495 -4.879062 2.694024 0
M  V30 END ATOM
M  V30 BEGIN BOND
M  V30 1 1 1 2
M  V30 2 1 2 3
M  V30 3 1 3 4
M  V30 4 1 4 5
M  V30 5 1 5 6
M  V30 6 2 6 7
M  V30 7 1 6 8
M  V30 8 2 8 9
M  V30 9 1 9 10
M  V30 10 1 10 11
M  V30 11 1 11 12
M  V30 12 1 12 13
M  V30 13 2 13 14
M  V30 14 1 14 15
M  V30 15 1 15 16
M  V30 16 1 16 17
M  V30 17 1 14 18
M  V30 18 1 18 19
M  V30 19 2 10 20
M  V30 20 1 20 21
M  V30 21 2 21 22
M  V30 22 1 22 23
M  V30 23 1 22 24
M  V30 24 2 24 25
M  V30 25 1 25 26
M  V30 26 2 26 27
M  V30 27 1 5 28
M  V30 28 1 28 29
M  V30 29 1 29 30
M  V30 30 1 30 3
M  V30 31 1 27 8
M  V30 32 2 19 12
M  V30 33 1 26 20
M  V30 34 1 17 15
M  V30 35 1 1 31
M  V30 36 1 1 32
M  V30 37 1 1 33
M  V30 38 1 2 34
M  V30 39 1 2 35
M  V30 40 1 3 36 CFG=1
M  V30 41 1 4 37
M  V30 42 1 4 38
M  V30 43 1 11 39
M  V30 44 1 13 40
M  V30 45 1 15 41
M  V30 46 1 16 42
M  V30 47 1 16 43
M  V30 48 1 17 44
M  V30 49 1 17 45
M  V30 50 1 18 46
M  V30 51 1 21 47
M  V30 52 1 24 48
M  V30 53 1 25 49
M  V30 54 1 28 50
M  V30 55 1 28 51
M  V30 56 1 29 52
M  V30 57 1 29 53
M  V30 58 1 30 54
M  V30 END BOND
M  V30 END CTAB
M  END
>  <Dataset>  (720) 
ChEMBL_Kinases

>  <Ligand_Instance>  (720) 
nan

>  <PDB_ID>  (720) 
nan

>  <Standardized_SMILES>  (720) 
CC[C@@H]1CN(C(=O)c2nc(Nc3cc(C4CC4)[nH]n3)c3cc(Cl)ccc3n2)CCN1

>  <Name>  (720) 
nan

>  <Pocket>  (720) 
nan

>  <ATP_Site>  (720) 
nan

>  <Peripheral>  (720) 
nan

>  <Num_H_Atoms_ProtBoundConf>  (720) 
nan

>  <Num_Resolved_Atoms>  (720) 
nan

>  <Num_Not_Resolved_Atoms>  (720) 
nan

$$$$
CHEMBL3660011
     RDKit          3D

  0  0  0  0  0  0  0  0  0  0999 V3000
M  V30 BEGIN CTAB
M  V30 COUNTS 57 60 0 0 0
M  V30 BEGIN ATOM
M  V30 1 C 1.433806 -0.263904 4.837612 0
M  V30 2 C 2.809598 0.326892 5.010551 0
M  V30 3 C 3.502329 -0.422165 6.129123 0
M  V30 4 C 2.785114 1.785750 5.380403 0
M  V30 5 O 3.573659 0.080304 3.843180 0
M  V30 6 C 3.183557 0.547691 2.618612 0
M  V30 7 O 2.128887 1.152120 2.823176 0
M  V30 8 N 3.771423 0.426798 1.352226 0
M  V30 9 C 3.454628 0.848414 0.044698 0
M  V30 10 C 2.242872 0.311611 -0.634644 0
M  V30 11 C 0.920457 0.527932 0.001732 0
M  V30 12 N -0.173989 -0.008208 -0.844741 0
M  V30 13 C -0.690749 0.467989 -2.081545 0
M  V30 14 C -0.176232 1.624367 -2.632390 0
M  V30 15 C -0.631931 2.175147 -3.826779 0
M  V30 16 C -1.653453 1.553960 -4.520860 0
M  V30 17 C -2.154621 0.402243 -3.956160 0
M  V30 18 C -3.174070 -0.276659 -4.585035 0
M  V30 19 C -3.680541 -1.426685 -4.028899 0
M  V30 20 C -3.238904 -1.977812 -2.853207 0
M  V30 21 C -3.865982 -3.203203 -2.375763 0
M  V30 22 N -4.859887 -3.885362 -2.967818 0
M  V30 23 N -5.141057 -4.931137 -2.221844 0
M  V30 24 C -4.346568 -4.970061 -1.122796 0
M  V30 25 C -4.284657 -5.861321 -0.085658 0
M  V30 26 C -3.352867 -5.642914 0.920554 0
M  V30 27 C -2.530595 -4.540561 0.834130 0
M  V30 28 C -2.679069 -3.708932 -0.254358 0
M  V30 29 N -3.561496 -3.882559 -1.242862 0
M  V30 30 N -2.241377 -1.293089 -2.259736 0
M  V30 31 C -1.726840 -0.165432 -2.781250 0
M  V30 32 H 1.157152 -0.845856 5.737353 0
M  V30 33 H 1.399409 -0.928816 3.941117 0
M  V30 34 H 0.707147 0.573773 4.749515 0
M  V30 35 H 4.553251 -0.063924 6.139566 0
M  V30 36 H 3.401249 -1.515845 5.998394 0
M  V30 37 H 3.022190 -0.075738 7.070230 0
M  V30 38 H 3.508973 2.408836 4.845735 0
M  V30 39 H 2.973970 1.918271 6.471701 0
M  V30 40 H 1.760896 2.180601 5.138865 0
M  V30 41 H 4.653738 -0.125853 1.513284 0
M  V30 42 H 4.355282 0.648736 -0.603698 0
M  V30 43 H 3.356563 1.976395 -0.020465 0
M  V30 44 H 2.334009 -0.830117 -0.764129 0
M  V30 45 H 2.287034 0.728434 -1.686702 0
M  V30 46 H 0.811287 -0.053989 0.961418 0
M  V30 47 H 0.739926 1.591182 0.219949 0
M  V30 48 H -0.690026 -0.886547 -0.528660 0
M  V30 49 H 0.604454 2.229646 -2.216453 0
M  V30 50 H -0.249344 3.077931 -4.283216 0
M  V30 51 H -2.093954 1.877903 -5.452668 0
M  V30 52 H -3.574546 0.094708 -5.513839 0
M  V30 53 H -4.486199 -1.926629 -4.565003 0
M  V30 54 H -4.944631 -6.717564 -0.046879 0
M  V30 55 H -3.335167 -6.373884 1.727120 0
M  V30 56 H -1.812638 -4.386658 1.624885 0
M  V30 57 H -2.019453 -2.859960 -0.285981 0
M  V30 END ATOM
M  V30 BEGIN BOND
M  V30 1 1 1 2
M  V30 2 1 2 3
M  V30 3 1 2 4
M  V30 4 1 2 5
M  V30 5 1 5 6
M  V30 6 2 6 7
M  V30 7 1 6 8
M  V30 8 1 8 9
M  V30 9 1 9 10
M  V30 10 1 10 11
M  V30 11 1 11 12
M  V30 12 1 12 13
M  V30 13 2 13 14
M  V30 14 1 14 15
M  V30 15 2 15 16
M  V30 16 1 16 17
M  V30 17 2 17 18
M  V30 18 1 18 19
M  V30 19 2 19 20
M  V30 20 1 20 21
M  V30 21 2 21 22
M  V30 22 1 22 23
M  V30 23 2 23 24
M  V30 24 1 24 25
M  V30 25 2 25 26
M  V30 26 1 26 27
M  V30 27 2 27 28
M  V30 28 1 28 29
M  V30 29 1 20 30
M  V30 30 2 30 31
M  V30 31 1 31 13
M  V30 32 1 31 17
M  V30 33 1 29 21
M  V30 34 1 29 24
M  V30 35 1 1 32
M  V30 36 1 1 33
M  V30 37 1 1 34
M  V30 38 1 3 35
M  V30 39 1 3 36
M  V30 40 1 3 37
M  V30 41 1 4 38
M  V30 42 1 4 39
M  V30 43 1 4 40
M  V30 44 1 8 41
M  V30 45 1 9 42
M  V30 46 1 9 43
M  V30 47 1 10 44
M  V30 48 1 10 45
M  V30 49 1 11 46
M  V30 50 1 11 47
M  V30 51 1 12 48
M  V30 52 1 14 49
M  V30 53 1 15 50
M  V30 54 1 16 51
M  V30 55 1 18 52
M  V30 56 1 19 53
M  V30 57 1 25 54
M  V30 58 1 26 55
M  V30 59 1 27 56
M  V30 60 1 28 57
M  V30 END BOND
M  V30 END CTAB
M  END
>  <Dataset>  (721) 
ChEMBL_Kinases

>  <Ligand_Instance>  (721) 
nan

>  <PDB_ID>  (721) 
nan

>  <Standardized_SMILES>  (721) 
CC(C)(C)OC(=O)NCCCNc1cccc2ccc(-c3nnc4ccccn34)nc12

>  <Name>  (721) 
nan

>  <Pocket>  (721) 
nan

>  <ATP_Site>  (721) 
nan

>  <Peripheral>  (721) 
nan

>  <Num_H_Atoms_ProtBoundConf>  (721) 
nan

>  <Num_Resolved_Atoms>  (721) 
nan

>  <Num_Not_Resolved_Atoms>  (721) 
nan

$$$$
CHEMBL4076767
     RDKit          3D

  0  0  0  0  0  0  0  0  0  0999 V3000
M  V30 BEGIN CTAB
M  V30 COUNTS 61 65 0 0 0
M  V30 BEGIN ATOM
M  V30 1 C 0.752819 3.042145 3.381620 0
M  V30 2 O 0.370775 1.813509 2.855345 0
M  V30 3 C 1.152616 0.885603 2.207973 0
M  V30 4 C 2.499591 0.939198 1.925055 0
M  V30 5 C 3.162882 -0.067708 1.265956 0
M  V30 6 N 4.556316 0.042580 1.013500 0
M  V30 7 C 5.437693 1.071117 1.535741 0
M  V30 8 C 6.436662 0.346367 2.442056 0
M  V30 9 O 6.244270 -1.032545 2.407184 0
M  V30 10 C 6.295105 -1.572787 1.132524 0
M  V30 11 C 5.313148 -0.870860 0.181029 0
M  V30 12 C 2.495187 -1.200498 0.849662 0
M  V30 13 C 1.127415 -1.240170 1.144095 0
M  V30 14 C 0.446657 -0.237875 1.804967 0
M  V30 15 N -0.946181 -0.407100 2.036918 0
M  V30 16 C -1.826124 -1.471699 1.707125 0
M  V30 17 N -2.462466 -1.500499 0.539846 0
M  V30 18 C -3.302014 -2.496594 0.208801 0
M  V30 19 N -3.983238 -2.526813 -1.047291 0
M  V30 20 C -3.792606 -1.487019 -2.014259 0
M  V30 21 C -4.187097 -0.118293 -1.505884 0
M  V30 22 C -4.433937 0.761738 -2.714520 0
M  V30 23 C -3.643448 0.264088 -3.882302 0
M  V30 24 C -2.296440 -0.291534 -3.527567 0
M  V30 25 C -2.368915 -1.400060 -2.523450 0
M  V30 26 C -3.470386 -3.491520 1.146133 0
M  V30 27 C -4.263770 -4.635555 1.091750 0
M  V30 28 C -4.101341 -5.326364 2.272056 0
M  V30 29 N -3.224024 -4.620726 3.039090 0
M  V30 30 C -2.849123 -3.517934 2.354508 0
M  V30 31 N -2.031138 -2.471970 2.581645 0
M  V30 32 H 0.024156 3.855167 3.204595 0
M  V30 33 H 0.785993 2.927270 4.500736 0
M  V30 34 H 1.775882 3.299245 3.091093 0
M  V30 35 H 2.953960 1.850877 2.278803 0
M  V30 36 H 6.068659 1.496534 0.724506 0
M  V30 37 H 4.945712 1.895311 2.040358 0
M  V30 38 H 6.210676 0.657056 3.491251 0
M  V30 39 H 7.480549 0.630857 2.245836 0
M  V30 40 H 5.943962 -2.626032 1.220928 0
M  V30 41 H 7.299105 -1.620121 0.701291 0
M  V30 42 H 4.723017 -1.598093 -0.373765 0
M  V30 43 H 5.972159 -0.265650 -0.510925 0
M  V30 44 H 2.917277 -2.038659 0.332950 0
M  V30 45 H 0.578577 -2.127254 0.823795 0
M  V30 46 H -1.527684 0.305204 2.523132 0
M  V30 47 H -4.621066 -3.334900 -1.226456 0
M  V30 48 H -4.443287 -1.719403 -2.908483 0
M  V30 49 H -3.311613 0.331727 -0.971891 0
M  V30 50 H -5.084987 -0.166607 -0.856975 0
M  V30 51 H -5.519104 0.647825 -2.962635 0
M  V30 52 H -4.209223 1.838327 -2.479268 0
M  V30 53 H -3.450868 1.132561 -4.564902 0
M  V30 54 H -4.201984 -0.469072 -4.510836 0
M  V30 55 H -1.602581 0.528233 -3.220981 0
M  V30 56 H -1.867427 -0.719196 -4.460802 0
M  V30 57 H -1.708288 -1.119186 -1.678222 0
M  V30 58 H -1.982147 -2.358626 -2.898705 0
M  V30 59 H -4.916535 -4.991165 0.306954 0
M  V30 60 H -4.522465 -6.264717 2.662872 0
M  V30 61 H -2.847131 -4.818350 4.001870 0
M  V30 END ATOM
M  V30 BEGIN BOND
M  V30 1 1 1 2
M  V30 2 1 2 3
M  V30 3 2 3 4
M  V30 4 1 4 5
M  V30 5 1 5 6
M  V30 6 1 6 7
M  V30 7 1 7 8
M  V30 8 1 8 9
M  V30 9 1 9 10
M  V30 10 1 10 11
M  V30 11 2 5 12
M  V30 12 1 12 13
M  V30 13 2 13 14
M  V30 14 1 14 15
M  V30 15 1 15 16
M  V30 16 2 16 17
M  V30 17 1 17 18
M  V30 18 1 18 19
M  V30 19 1 19 20
M  V30 20 1 20 21
M  V30 21 1 21 22
M  V30 22 1 22 23
M  V30 23 1 23 24
M  V30 24 1 24 25
M  V30 25 2 18 26
M  V30 26 1 26 27
M  V30 27 2 27 28
M  V30 28 1 28 29
M  V30 29 1 29 30
M  V30 30 2 30 31
M  V30 31 1 14 3
M  V30 32 1 31 16
M  V30 33 1 11 6
M  V30 34 1 25 20
M  V30 35 1 30 26
M  V30 36 1 1 32
M  V30 37 1 1 33
M  V30 38 1 1 34
M  V30 39 1 4 35
M  V30 40 1 7 36
M  V30 41 1 7 37
M  V30 42 1 8 38
M  V30 43 1 8 39
M  V30 44 1 10 40
M  V30 45 1 10 41
M  V30 46 1 11 42
M  V30 47 1 11 43
M  V30 48 1 12 44
M  V30 49 1 13 45
M  V30 50 1 15 46
M  V30 51 1 19 47
M  V30 52 1 20 48
M  V30 53 1 21 49
M  V30 54 1 21 50
M  V30 55 1 22 51
M  V30 56 1 22 52
M  V30 57 1 23 53
M  V30 58 1 23 54
M  V30 59 1 24 55
M  V30 60 1 24 56
M  V30 61 1 25 57
M  V30 62 1 25 58
M  V30 63 1 27 59
M  V30 64 1 28 60
M  V30 65 1 29 61
M  V30 END BOND
M  V30 END CTAB
M  END
>  <Dataset>  (722) 
ChEMBL_Kinases

>  <Ligand_Instance>  (722) 
nan

>  <PDB_ID>  (722) 
nan

>  <Standardized_SMILES>  (722) 
COc1cc(N2CCOCC2)ccc1Nc1nc(NC2CCCCC2)c2cc[nH]c2n1

>  <Name>  (722) 
nan

>  <Pocket>  (722) 
nan

>  <ATP_Site>  (722) 
nan

>  <Peripheral>  (722) 
nan

>  <Num_H_Atoms_ProtBoundConf>  (722) 
nan

>  <Num_Resolved_Atoms>  (722) 
nan

>  <Num_Not_Resolved_Atoms>  (722) 
nan

$$$$
CHEMBL4076708
     RDKit          3D

  0  0  0  0  0  0  0  0  0  0999 V3000
M  V30 BEGIN CTAB
M  V30 COUNTS 49 53 0 0 0
M  V30 BEGIN ATOM
M  V30 1 N 0.201056 -4.085528 4.407530 0
M  V30 2 C -0.107881 -3.405744 3.140226 0
M  V30 3 C -0.917088 -2.198947 3.403001 0
M  V30 4 C -2.150686 -2.057252 2.559248 0
M  V30 5 N -1.764897 -2.533699 1.217476 0
M  V30 6 C -1.516839 -1.702644 0.073363 0
M  V30 7 N -0.240471 -1.432700 -0.336684 0
M  V30 8 C 0.021243 -0.666611 -1.418404 0
M  V30 9 N 1.414679 -0.543291 -1.603103 0
M  V30 10 C 2.079117 0.608025 -1.052759 0
M  V30 11 C 2.151323 0.691834 0.330294 0
M  V30 12 C 2.827628 1.849818 0.675600 0
M  V30 13 C 3.186895 2.449439 1.988243 0
M  V30 14 C 1.956249 2.645191 2.918349 0
M  V30 15 C 3.039050 1.667024 3.249344 0
M  V30 16 N 3.140495 2.422277 -0.503944 0
M  V30 17 N 2.705486 1.701950 -1.519214 0
M  V30 18 C -1.009065 -0.124791 -2.154754 0
M  V30 19 C -0.609587 0.635999 -3.231771 0
M  V30 20 C -1.695128 1.162502 -3.942824 0
M  V30 21 Cl -1.391440 2.159098 -5.342732 0
M  V30 22 C -3.007720 0.936937 -3.593180 0
M  V30 23 C -3.308958 0.152457 -2.484836 0
M  V30 24 C -2.291708 -0.394546 -1.744219 0
M  V30 25 N -2.497489 -1.157790 -0.667201 0
M  V30 26 C -1.692046 -3.982187 1.249477 0
M  V30 27 C -0.580870 -4.380246 2.141886 0
M  V30 28 H 1.193330 -4.014857 4.680842 0
M  V30 29 H -0.361812 -3.673636 5.165922 0
M  V30 30 H 0.896937 -3.040126 2.771534 0
M  V30 31 H -0.326811 -1.240496 3.272789 0
M  V30 32 H -1.235457 -2.189888 4.469602 0
M  V30 33 H -2.392152 -0.970823 2.439444 0
M  V30 34 H -3.041023 -2.557565 2.932825 0
M  V30 35 H 1.925315 -1.306828 -2.143490 0
M  V30 36 H 1.783352 0.036963 1.134574 0
M  V30 37 H 3.877456 3.336666 1.990187 0
M  V30 38 H 0.977976 2.293723 2.548404 0
M  V30 39 H 1.885926 3.608132 3.451281 0
M  V30 40 H 2.817065 0.592582 3.136002 0
M  V30 41 H 3.671530 1.992786 4.108993 0
M  V30 42 H 3.655523 3.312960 -0.671950 0
M  V30 43 H 0.416640 0.798974 -3.486348 0
M  V30 44 H -3.825680 1.354979 -4.159325 0
M  V30 45 H -4.342297 -0.012262 -2.227923 0
M  V30 46 H -2.678206 -4.369005 1.638257 0
M  V30 47 H -1.566646 -4.415643 0.236474 0
M  V30 48 H 0.256564 -4.767073 1.493384 0
M  V30 49 H -0.935975 -5.293589 2.705709 0
M  V30 END ATOM
M  V30 BEGIN BOND
M  V30 1 1 1 2
M  V30 2 1 2 3
M  V30 3 1 3 4
M  V30 4 1 4 5
M  V30 5 1 5 6
M  V30 6 2 6 7
M  V30 7 1 7 8
M  V30 8 1 8 9
M  V30 9 1 9 10
M  V30 10 1 10 11
M  V30 11 2 11 12
M  V30 12 1 12 13
M  V30 13 1 13 14
M  V30 14 1 14 15
M  V30 15 1 12 16
M  V30 16 1 16 17
M  V30 17 2 8 18
M  V30 18 1 18 19
M  V30 19 2 19 20
M  V30 20 1 20 21
M  V30 21 1 20 22
M  V30 22 2 22 23
M  V30 23 1 23 24
M  V30 24 2 24 25
M  V30 25 1 5 26
M  V30 26 1 26 27
M  V30 27 1 27 2
M  V30 28 1 25 6
M  V30 29 2 17 10
M  V30 30 1 24 18
M  V30 31 1 15 13
M  V30 32 1 1 28
M  V30 33 1 1 29
M  V30 34 1 2 30
M  V30 35 1 3 31
M  V30 36 1 3 32
M  V30 37 1 4 33
M  V30 38 1 4 34
M  V30 39 1 9 35
M  V30 40 1 11 36
M  V30 41 1 13 37
M  V30 42 1 14 38
M  V30 43 1 14 39
M  V30 44 1 15 40
M  V30 45 1 15 41
M  V30 46 1 16 42
M  V30 47 1 19 43
M  V30 48 1 22 44
M  V30 49 1 23 45
M  V30 50 1 26 46
M  V30 51 1 26 47
M  V30 52 1 27 48
M  V30 53 1 27 49
M  V30 END BOND
M  V30 END CTAB
M  END
>  <Dataset>  (723) 
ChEMBL_Kinases

>  <Ligand_Instance>  (723) 
nan

>  <PDB_ID>  (723) 
nan

>  <Standardized_SMILES>  (723) 
NC1CCN(c2nc(Nc3cc(C4CC4)[nH]n3)c3cc(Cl)ccc3n2)CC1

>  <Name>  (723) 
nan

>  <Pocket>  (723) 
nan

>  <ATP_Site>  (723) 
nan

>  <Peripheral>  (723) 
nan

>  <Num_H_Atoms_ProtBoundConf>  (723) 
nan

>  <Num_Resolved_Atoms>  (723) 
nan

>  <Num_Not_Resolved_Atoms>  (723) 
nan

$$$$
CHEMBL3660010
     RDKit          3D

  0  0  0  0  0  0  0  0  0  0999 V3000
M  V30 BEGIN CTAB
M  V30 COUNTS 43 47 0 0 0
M  V30 BEGIN ATOM
M  V30 1 C 2.315316 -4.839907 1.410352 0
M  V30 2 C 2.363970 -3.892983 0.433083 0
M  V30 3 C 1.756324 -2.630027 0.501914 0
M  V30 4 N 1.912275 -1.785858 -0.599229 0
M  V30 5 C 1.493084 -0.507563 -1.063698 0 CFG=2
M  V30 6 C -0.009951 -0.567919 -1.326444 0
M  V30 7 C -0.000293 -0.957699 -2.807843 0
M  V30 8 N 0.933954 0.064612 -3.304640 0
M  V30 9 C 2.044190 -0.107049 -2.390228 0
M  V30 10 C 1.058289 -2.322301 1.644487 0
M  V30 11 N 0.456885 -1.103914 1.773533 0
M  V30 12 C -0.220565 -0.799078 2.901938 0
M  V30 13 C -0.900849 0.439936 3.239181 0
M  V30 14 N -1.597929 0.677328 4.368703 0
M  V30 15 N -2.080781 1.899027 4.372442 0
M  V30 16 C -1.730023 2.540295 3.244680 0
M  V30 17 C -1.941599 3.798303 2.724239 0
M  V30 18 C -1.428008 4.172596 1.500471 0
M  V30 19 C -0.684098 3.224438 0.809567 0
M  V30 20 C -0.527369 1.999770 1.407097 0
M  V30 21 N -1.016222 1.610924 2.594130 0
M  V30 22 C -0.261884 -1.788316 3.897241 0
M  V30 23 C 0.329978 -3.016255 3.798606 0
M  V30 24 C 1.005992 -3.273345 2.631992 0
M  V30 25 C 1.613251 -4.504274 2.532050 0
M  V30 26 H 2.798955 -5.796992 1.310561 0
M  V30 27 H 2.935869 -4.193886 -0.455251 0
M  V30 28 H 2.518292 -2.131891 -1.372025 0
M  V30 29 H 1.769877 0.318486 -0.357691 0
M  V30 30 H -0.502904 0.399908 -1.250194 0
M  V30 31 H -0.512532 -1.390749 -0.806730 0
M  V30 32 H 0.546924 -1.912576 -2.926179 0
M  V30 33 H -0.981240 -0.912239 -3.275941 0
M  V30 34 H 0.507963 1.004530 -3.074368 0
M  V30 35 H 2.565632 0.890817 -2.382531 0
M  V30 36 H 2.800901 -0.817342 -2.787164 0
M  V30 37 H -2.539104 4.471682 3.343481 0
M  V30 38 H -1.628921 5.174287 1.145896 0
M  V30 39 H -0.272463 3.483718 -0.141124 0
M  V30 40 H 0.059469 1.302417 0.843656 0
M  V30 41 H -0.791845 -1.632409 4.853256 0
M  V30 42 H 0.274840 -3.749242 4.587836 0
M  V30 43 H 1.541316 -5.218641 3.339681 0
M  V30 END ATOM
M  V30 BEGIN BOND
M  V30 1 2 1 2
M  V30 2 1 2 3
M  V30 3 1 3 4
M  V30 4 1 4 5
M  V30 5 1 5 6
M  V30 6 1 6 7
M  V30 7 1 7 8
M  V30 8 1 8 9
M  V30 9 2 3 10
M  V30 10 1 10 11
M  V30 11 2 11 12
M  V30 12 1 12 13
M  V30 13 2 13 14
M  V30 14 1 14 15
M  V30 15 2 15 16
M  V30 16 1 16 17
M  V30 17 2 17 18
M  V30 18 1 18 19
M  V30 19 2 19 20
M  V30 20 1 20 21
M  V30 21 1 12 22
M  V30 22 2 22 23
M  V30 23 1 23 24
M  V30 24 2 24 25
M  V30 25 1 25 1
M  V30 26 1 9 5
M  V30 27 1 24 10
M  V30 28 1 21 13
M  V30 29 1 21 16
M  V30 30 1 1 26
M  V30 31 1 2 27
M  V30 32 1 4 28
M  V30 33 1 5 29 CFG=1
M  V30 34 1 6 30
M  V30 35 1 6 31
M  V30 36 1 7 32
M  V30 37 1 7 33
M  V30 38 1 8 34
M  V30 39 1 9 35
M  V30 40 1 9 36
M  V30 41 1 17 37
M  V30 42 1 18 38
M  V30 43 1 19 39
M  V30 44 1 20 40
M  V30 45 1 22 41
M  V30 46 1 23 42
M  V30 47 1 25 43
M  V30 END BOND
M  V30 END CTAB
M  END
>  <Dataset>  (724) 
ChEMBL_Kinases

>  <Ligand_Instance>  (724) 
nan

>  <PDB_ID>  (724) 
nan

>  <Standardized_SMILES>  (724) 
c1cc(N[C@@H]2CCNC2)c2nc(-c3nnc4ccccn34)ccc2c1

>  <Name>  (724) 
nan

>  <Pocket>  (724) 
nan

>  <ATP_Site>  (724) 
nan

>  <Peripheral>  (724) 
nan

>  <Num_H_Atoms_ProtBoundConf>  (724) 
nan

>  <Num_Resolved_Atoms>  (724) 
nan

>  <Num_Not_Resolved_Atoms>  (724) 
nan

$$$$
CHEMBL3660009
     RDKit          3D

  0  0  0  0  0  0  0  0  0  0999 V3000
M  V30 BEGIN CTAB
M  V30 COUNTS 43 47 0 0 0
M  V30 BEGIN ATOM
M  V30 1 C 2.443021 -4.606628 2.291279 0
M  V30 2 C 2.709476 -3.779346 1.245138 0
M  V30 3 C 1.937265 -2.628217 0.969420 0
M  V30 4 N 2.264106 -1.801412 -0.109435 0
M  V30 5 C 1.918572 -0.598711 -0.745139 0 CFG=1
M  V30 6 C 2.155632 0.640122 0.073705 0
M  V30 7 C 2.195664 1.689971 -1.037783 0
M  V30 8 N 2.968545 1.068836 -2.101773 0
M  V30 9 C 2.876028 -0.352941 -1.926504 0
M  V30 10 C 0.893533 -2.401162 1.831986 0
M  V30 11 N 0.062689 -1.339364 1.663940 0
M  V30 12 C -0.981264 -1.094381 2.485996 0
M  V30 13 C -1.977205 -0.024538 2.381382 0
M  V30 14 N -2.940856 0.232567 3.278500 0
M  V30 15 N -3.678884 1.238842 2.876969 0
M  V30 16 C -3.254818 1.705352 1.700860 0
M  V30 17 C -3.588324 2.700966 0.769377 0
M  V30 18 C -2.920192 2.918556 -0.408738 0
M  V30 19 C -1.855551 2.092714 -0.675407 0
M  V30 20 C -1.554961 1.126866 0.258447 0
M  V30 21 N -2.201750 0.912851 1.406768 0
M  V30 22 C -1.223915 -1.969939 3.563152 0
M  V30 23 C -0.419212 -3.079960 3.800971 0
M  V30 24 C 0.593357 -3.209517 2.897003 0
M  V30 25 C 1.396290 -4.336675 3.121166 0
M  V30 26 H 3.067655 -5.480683 2.463964 0
M  V30 27 H 3.550665 -4.051540 0.630575 0
M  V30 28 H 3.063306 -2.223086 -0.670396 0
M  V30 29 H 0.892938 -0.562816 -1.156420 0
M  V30 30 H 3.162139 0.681500 0.527032 0
M  V30 31 H 1.400307 0.924564 0.782763 0
M  V30 32 H 2.694375 2.619498 -0.735115 0
M  V30 33 H 1.182285 1.863640 -1.442016 0
M  V30 34 H 3.977328 1.356010 -1.993040 0
M  V30 35 H 3.867551 -0.794424 -1.672114 0
M  V30 36 H 2.479021 -0.916297 -2.772624 0
M  V30 37 H -4.455666 3.282873 1.107420 0
M  V30 38 H -3.256690 3.720239 -1.067626 0
M  V30 39 H -1.295465 2.227284 -1.600026 0
M  V30 40 H -0.732141 0.489062 0.019626 0
M  V30 41 H -2.047052 -1.856724 4.291643 0
M  V30 42 H -0.614227 -3.744699 4.627122 0
M  V30 43 H 1.221390 -5.018632 3.936739 0
M  V30 END ATOM
M  V30 BEGIN BOND
M  V30 1 2 1 2
M  V30 2 1 2 3
M  V30 3 1 3 4
M  V30 4 1 4 5
M  V30 5 1 5 6
M  V30 6 1 6 7
M  V30 7 1 7 8
M  V30 8 1 8 9
M  V30 9 2 3 10
M  V30 10 1 10 11
M  V30 11 2 11 12
M  V30 12 1 12 13
M  V30 13 2 13 14
M  V30 14 1 14 15
M  V30 15 2 15 16
M  V30 16 1 16 17
M  V30 17 2 17 18
M  V30 18 1 18 19
M  V30 19 2 19 20
M  V30 20 1 20 21
M  V30 21 1 12 22
M  V30 22 2 22 23
M  V30 23 1 23 24
M  V30 24 2 24 25
M  V30 25 1 25 1
M  V30 26 1 9 5
M  V30 27 1 24 10
M  V30 28 1 21 13
M  V30 29 1 21 16
M  V30 30 1 1 26
M  V30 31 1 2 27
M  V30 32 1 4 28
M  V30 33 1 5 29 CFG=3
M  V30 34 1 6 30
M  V30 35 1 6 31
M  V30 36 1 7 32
M  V30 37 1 7 33
M  V30 38 1 8 34
M  V30 39 1 9 35
M  V30 40 1 9 36
M  V30 41 1 17 37
M  V30 42 1 18 38
M  V30 43 1 19 39
M  V30 44 1 20 40
M  V30 45 1 22 41
M  V30 46 1 23 42
M  V30 47 1 25 43
M  V30 END BOND
M  V30 END CTAB
M  END
>  <Dataset>  (725) 
ChEMBL_Kinases

>  <Ligand_Instance>  (725) 
nan

>  <PDB_ID>  (725) 
nan

>  <Standardized_SMILES>  (725) 
c1cc(N[C@H]2CCNC2)c2nc(-c3nnc4ccccn34)ccc2c1

>  <Name>  (725) 
nan

>  <Pocket>  (725) 
nan

>  <ATP_Site>  (725) 
nan

>  <Peripheral>  (725) 
nan

>  <Num_H_Atoms_ProtBoundConf>  (725) 
nan

>  <Num_Resolved_Atoms>  (725) 
nan

>  <Num_Not_Resolved_Atoms>  (725) 
nan

$$$$
CHEMBL3660008
     RDKit          3D

  0  0  0  0  0  0  0  0  0  0999 V3000
M  V30 BEGIN CTAB
M  V30 COUNTS 48 52 0 0 0
M  V30 BEGIN ATOM
M  V30 1 O 0.591344 -3.267600 4.368141 0
M  V30 2 C -0.681063 -3.244949 3.805685 0
M  V30 3 C -0.521219 -3.339684 2.303660 0
M  V30 4 C -0.588097 -1.981067 1.641952 0
M  V30 5 C 0.139608 -0.918149 2.422528 0
M  V30 6 N 1.539806 -0.880655 2.121706 0
M  V30 7 C 2.467156 -0.548312 1.127335 0
M  V30 8 C 3.809013 -0.797132 1.442496 0
M  V30 9 C 4.851824 -0.532351 0.596463 0
M  V30 10 C 4.512551 0.007521 -0.618705 0
M  V30 11 C 3.198470 0.254391 -0.933732 0
M  V30 12 C 2.965141 0.802773 -2.174232 0
M  V30 13 C 1.649514 1.053760 -2.481027 0
M  V30 14 C 0.571517 0.790606 -1.628603 0
M  V30 15 C -0.727029 1.149477 -2.166731 0
M  V30 16 N -0.975238 1.671821 -3.380464 0
M  V30 17 N -2.246563 1.894314 -3.580831 0
M  V30 18 C -2.921623 1.522091 -2.484116 0
M  V30 19 C -4.253566 1.525838 -2.126915 0
M  V30 20 C -4.679692 1.080333 -0.912714 0
M  V30 21 C -3.693004 0.615176 -0.038600 0
M  V30 22 C -2.401171 0.645634 -0.469164 0
M  V30 23 N -1.958445 1.079225 -1.659255 0
M  V30 24 N 0.866106 0.254383 -0.431288 0
M  V30 25 C 2.149980 -0.010004 -0.086999 0
M  V30 26 C -0.220187 -0.871632 3.875911 0
M  V30 27 C -1.301557 -1.905078 4.108964 0
M  V30 28 H 0.682391 -4.105653 4.909445 0
M  V30 29 H -1.322598 -4.045408 4.212747 0
M  V30 30 H 0.376668 -3.919530 2.004356 0
M  V30 31 H -1.398748 -3.915477 1.940218 0
M  V30 32 H -1.642381 -1.729403 1.445252 0
M  V30 33 H -0.076885 -2.098276 0.669524 0
M  V30 34 H -0.252759 0.075064 2.025532 0
M  V30 35 H 1.890843 -1.260615 3.016187 0
M  V30 36 H 4.099602 -1.223462 2.397434 0
M  V30 37 H 5.873505 -0.736948 0.872254 0
M  V30 38 H 5.298863 0.233121 -1.319316 0
M  V30 39 H 3.766867 1.018816 -2.855733 0
M  V30 40 H 1.513845 1.493216 -3.486430 0
M  V30 41 H -4.992877 1.902139 -2.850075 0
M  V30 42 H -5.705226 1.067546 -0.599240 0
M  V30 43 H -3.981786 0.250716 0.938528 0
M  V30 44 H -1.681318 0.282601 0.235129 0
M  V30 45 H -0.662432 0.101793 4.208135 0
M  V30 46 H 0.654402 -1.047249 4.540547 0
M  V30 47 H -2.134196 -1.708207 3.405905 0
M  V30 48 H -1.705334 -1.852724 5.142862 0
M  V30 END ATOM
M  V30 BEGIN BOND
M  V30 1 1 1 2
M  V30 2 1 2 3
M  V30 3 1 3 4
M  V30 4 1 4 5
M  V30 5 1 5 6
M  V30 6 1 6 7
M  V30 7 2 7 8
M  V30 8 1 8 9
M  V30 9 2 9 10
M  V30 10 1 10 11
M  V30 11 2 11 12
M  V30 12 1 12 13
M  V30 13 2 13 14
M  V30 14 1 14 15
M  V30 15 2 15 16
M  V30 16 1 16 17
M  V30 17 2 17 18
M  V30 18 1 18 19
M  V30 19 2 19 20
M  V30 20 1 20 21
M  V30 21 2 21 22
M  V30 22 1 22 23
M  V30 23 1 14 24
M  V30 24 2 24 25
M  V30 25 1 5 26
M  V30 26 1 26 27
M  V30 27 1 27 2
M  V30 28 1 25 7
M  V30 29 1 25 11
M  V30 30 1 23 15
M  V30 31 1 23 18
M  V30 32 1 1 28
M  V30 33 1 2 29
M  V30 34 1 3 30
M  V30 35 1 3 31
M  V30 36 1 4 32
M  V30 37 1 4 33
M  V30 38 1 5 34
M  V30 39 1 6 35
M  V30 40 1 8 36
M  V30 41 1 9 37
M  V30 42 1 10 38
M  V30 43 1 12 39
M  V30 44 1 13 40
M  V30 45 1 19 41
M  V30 46 1 20 42
M  V30 47 1 21 43
M  V30 48 1 22 44
M  V30 49 1 26 45
M  V30 50 1 26 46
M  V30 51 1 27 47
M  V30 52 1 27 48
M  V30 END BOND
M  V30 END CTAB
M  END
>  <Dataset>  (726) 
ChEMBL_Kinases

>  <Ligand_Instance>  (726) 
nan

>  <PDB_ID>  (726) 
nan

>  <Standardized_SMILES>  (726) 
OC1CCC(Nc2cccc3ccc(-c4nnc5ccccn45)nc23)CC1

>  <Name>  (726) 
nan

>  <Pocket>  (726) 
nan

>  <ATP_Site>  (726) 
nan

>  <Peripheral>  (726) 
nan

>  <Num_H_Atoms_ProtBoundConf>  (726) 
nan

>  <Num_Resolved_Atoms>  (726) 
nan

>  <Num_Not_Resolved_Atoms>  (726) 
nan

$$$$
CHEMBL3660014
     RDKit          3D

  0  0  0  0  0  0  0  0  0  0999 V3000
M  V30 BEGIN CTAB
M  V30 COUNTS 45 49 0 0 0
M  V30 BEGIN ATOM
M  V30 1 C -3.161054 -4.072904 0.382347 0
M  V30 2 C -2.102990 -3.544889 -0.372712 0
M  V30 3 C -1.332306 -2.445957 0.035095 0
M  V30 4 O -0.419294 -2.222257 -0.935233 0
M  V30 5 C 0.481783 -1.195441 -1.054058 0
M  V30 6 C 0.454372 -0.738950 -2.515708 0
M  V30 7 C 1.369791 0.440384 -2.643273 0
M  V30 8 N 2.736917 0.056526 -2.344611 0
M  V30 9 C 2.827205 -1.311672 -1.895203 0
M  V30 10 C 1.898139 -1.670694 -0.785805 0
M  V30 11 C -1.627034 -1.861616 1.231354 0
M  V30 12 N -0.839255 -0.827262 1.565169 0
M  V30 13 C -1.070987 -0.216742 2.739216 0
M  V30 14 C -0.355157 0.881949 3.374198 0
M  V30 15 N -0.688825 1.500089 4.522509 0
M  V30 16 N 0.173077 2.434547 4.834748 0
M  V30 17 C 1.136948 2.489385 3.902928 0
M  V30 18 C 2.265743 3.260431 3.743428 0
M  V30 19 C 3.101611 3.080754 2.662700 0
M  V30 20 C 2.744256 2.087533 1.753226 0
M  V30 21 C 1.595335 1.374561 2.007045 0
M  V30 22 N 0.770258 1.532951 3.047153 0
M  V30 23 C -2.113976 -0.717377 3.503000 0
M  V30 24 C -2.922860 -1.777661 3.165368 0
M  V30 25 C -2.667871 -2.390937 1.959298 0
M  V30 26 C -3.445587 -3.466859 1.588937 0
M  V30 27 H -3.783588 -4.903162 0.129947 0
M  V30 28 H -2.016867 -4.143601 -1.293994 0
M  V30 29 H 0.320914 -0.336322 -0.411460 0
M  V30 30 H -0.558491 -0.395972 -2.797377 0
M  V30 31 H 0.800935 -1.597100 -3.114535 0
M  V30 32 H 1.266143 0.955923 -3.611830 0
M  V30 33 H 1.079093 1.179856 -1.852271 0
M  V30 34 H 3.237622 0.712254 -1.738491 0
M  V30 35 H 3.876360 -1.413480 -1.488593 0
M  V30 36 H 2.760269 -2.011280 -2.742479 0
M  V30 37 H 1.863486 -2.776776 -0.732267 0
M  V30 38 H 2.290298 -1.328564 0.197815 0
M  V30 39 H 2.490557 4.015997 4.483586 0
M  V30 40 H 3.984842 3.691901 2.547773 0
M  V30 41 H 3.382020 1.928418 0.901106 0
M  V30 42 H 1.402619 0.624301 1.270759 0
M  V30 43 H -2.405677 -0.301302 4.486569 0
M  V30 44 H -3.727370 -2.147885 3.778073 0
M  V30 45 H -4.242571 -3.804104 2.236697 0
M  V30 END ATOM
M  V30 BEGIN BOND
M  V30 1 2 1 2
M  V30 2 1 2 3
M  V30 3 1 3 4
M  V30 4 1 4 5
M  V30 5 1 5 6
M  V30 6 1 6 7
M  V30 7 1 7 8
M  V30 8 1 8 9
M  V30 9 1 9 10
M  V30 10 2 3 11
M  V30 11 1 11 12
M  V30 12 2 12 13
M  V30 13 1 13 14
M  V30 14 2 14 15
M  V30 15 1 15 16
M  V30 16 2 16 17
M  V30 17 1 17 18
M  V30 18 2 18 19
M  V30 19 1 19 20
M  V30 20 2 20 21
M  V30 21 1 21 22
M  V30 22 1 13 23
M  V30 23 2 23 24
M  V30 24 1 24 25
M  V30 25 2 25 26
M  V30 26 1 26 1
M  V30 27 1 10 5
M  V30 28 1 25 11
M  V30 29 1 22 14
M  V30 30 1 22 17
M  V30 31 1 1 27
M  V30 32 1 2 28
M  V30 33 1 5 29
M  V30 34 1 6 30
M  V30 35 1 6 31
M  V30 36 1 7 32
M  V30 37 1 7 33
M  V30 38 1 8 34
M  V30 39 1 9 35
M  V30 40 1 9 36
M  V30 41 1 10 37
M  V30 42 1 10 38
M  V30 43 1 18 39
M  V30 44 1 19 40
M  V30 45 1 20 41
M  V30 46 1 21 42
M  V30 47 1 23 43
M  V30 48 1 24 44
M  V30 49 1 26 45
M  V30 END BOND
M  V30 END CTAB
M  END
>  <Dataset>  (727) 
ChEMBL_Kinases

>  <Ligand_Instance>  (727) 
nan

>  <PDB_ID>  (727) 
nan

>  <Standardized_SMILES>  (727) 
c1cc(OC2CCNCC2)c2nc(-c3nnc4ccccn34)ccc2c1

>  <Name>  (727) 
nan

>  <Pocket>  (727) 
nan

>  <ATP_Site>  (727) 
nan

>  <Peripheral>  (727) 
nan

>  <Num_H_Atoms_ProtBoundConf>  (727) 
nan

>  <Num_Resolved_Atoms>  (727) 
nan

>  <Num_Not_Resolved_Atoms>  (727) 
nan

$$$$
CHEMBL3884143
     RDKit          3D

  0  0  0  0  0  0  0  0  0  0999 V3000
M  V30 BEGIN CTAB
M  V30 COUNTS 41 43 0 0 0
M  V30 BEGIN ATOM
M  V30 1 C 3.205585 -3.080704 2.113874 0
M  V30 2 C 3.584003 -3.783271 1.070077 0
M  V30 3 C 3.371032 -3.479267 -0.339731 0
M  V30 4 O 3.808135 -4.275203 -1.204716 0
M  V30 5 N 2.695493 -2.330688 -0.784759 0
M  V30 6 C 2.400276 -1.880355 -2.093249 0
M  V30 7 C 2.734669 -2.528497 -3.255886 0
M  V30 8 C 2.482928 -2.081667 -4.523299 0
M  V30 9 C 1.827009 -0.857019 -4.675674 0
M  V30 10 C 1.479076 -0.185175 -3.515868 0
M  V30 11 C 1.756816 -0.682319 -2.261695 0
M  V30 12 O 1.327740 0.143131 -1.260286 0
M  V30 13 C 0.371745 -0.056696 -0.328456 0
M  V30 14 N 0.339315 0.990269 0.547349 0
M  V30 15 C -0.531127 1.030931 1.572102 0
M  V30 16 N -0.579251 2.113580 2.494496 0
M  V30 17 C -1.457860 2.245707 3.601576 0
M  V30 18 C -1.490823 3.302941 4.486931 0
M  V30 19 N -2.454201 3.051084 5.382623 0
M  V30 20 N -3.057187 1.885293 5.134805 0
M  V30 21 C -4.151348 1.294929 5.908042 0
M  V30 22 C -2.446584 1.398082 4.048399 0
M  V30 23 N -1.398108 0.021314 1.751354 0
M  V30 24 C -1.455178 -1.056354 0.951776 0
M  V30 25 C -0.546636 -1.049130 -0.079210 0
M  V30 26 Cl -0.548946 -2.365486 -1.225545 0
M  V30 27 H 3.357829 -3.295192 3.183470 0
M  V30 28 H 2.766290 -2.293358 2.708425 0
M  V30 29 H 4.108436 -4.677276 1.364161 0
M  V30 30 H 2.369947 -1.730555 0.022594 0
M  V30 31 H 3.236991 -3.469567 -3.231219 0
M  V30 32 H 2.762226 -2.621576 -5.421019 0
M  V30 33 H 1.618228 -0.484078 -5.665343 0
M  V30 34 H 0.978394 0.748471 -3.709766 0
M  V30 35 H 0.120694 2.891649 2.320349 0
M  V30 36 H -0.861297 4.185556 4.477438 0
M  V30 37 H -4.792291 0.682514 5.229233 0
M  V30 38 H -4.749211 2.048281 6.422015 0
M  V30 39 H -3.768148 0.568570 6.669575 0
M  V30 40 H -2.739979 0.467173 3.636183 0
M  V30 41 H -2.121848 -1.902093 1.033958 0
M  V30 END ATOM
M  V30 BEGIN BOND
M  V30 1 2 1 2
M  V30 2 1 2 3
M  V30 3 2 3 4
M  V30 4 1 3 5
M  V30 5 1 5 6
M  V30 6 2 6 7
M  V30 7 1 7 8
M  V30 8 2 8 9
M  V30 9 1 9 10
M  V30 10 2 10 11
M  V30 11 1 11 12
M  V30 12 1 12 13
M  V30 13 2 13 14
M  V30 14 1 14 15
M  V30 15 1 15 16
M  V30 16 1 16 17
M  V30 17 1 17 18
M  V30 18 2 18 19
M  V30 19 1 19 20
M  V30 20 1 20 21
M  V30 21 1 20 22
M  V30 22 2 15 23
M  V30 23 1 23 24
M  V30 24 2 24 25
M  V30 25 1 25 26
M  V30 26 1 11 6
M  V30 27 1 25 13
M  V30 28 2 22 17
M  V30 29 1 1 27
M  V30 30 1 1 28
M  V30 31 1 2 29
M  V30 32 1 5 30
M  V30 33 1 7 31
M  V30 34 1 8 32
M  V30 35 1 9 33
M  V30 36 1 10 34
M  V30 37 1 16 35
M  V30 38 1 18 36
M  V30 39 1 21 37
M  V30 40 1 21 38
M  V30 41 1 21 39
M  V30 42 1 22 40
M  V30 43 1 24 41
M  V30 END BOND
M  V30 END CTAB
M  END
>  <Dataset>  (728) 
ChEMBL_Kinases

>  <Ligand_Instance>  (728) 
nan

>  <PDB_ID>  (728) 
nan

>  <Standardized_SMILES>  (728) 
C=CC(=O)Nc1ccccc1Oc1nc(Nc2cnn(C)c2)ncc1Cl

>  <Name>  (728) 
nan

>  <Pocket>  (728) 
nan

>  <ATP_Site>  (728) 
nan

>  <Peripheral>  (728) 
nan

>  <Num_H_Atoms_ProtBoundConf>  (728) 
nan

>  <Num_Resolved_Atoms>  (728) 
nan

>  <Num_Not_Resolved_Atoms>  (728) 
nan

$$$$
CHEMBL3596898
     RDKit          3D

  0  0  0  0  0  0  0  0  0  0999 V3000
M  V30 BEGIN CTAB
M  V30 COUNTS 50 54 0 0 0
M  V30 BEGIN ATOM
M  V30 1 Cl 1.257683 -2.770969 1.255296 0
M  V30 2 C 2.619834 -3.404094 0.388095 0
M  V30 3 C 2.513482 -4.650212 -0.179308 0
M  V30 4 C 3.571497 -5.190196 -0.839902 0
M  V30 5 C 4.722216 -4.462484 -0.917154 0
M  V30 6 C 4.762794 -3.215697 -0.325474 0
M  V30 7 C 3.717250 -2.587062 0.372755 0
M  V30 8 C 4.070032 -1.255691 0.849269 0
M  V30 9 C 3.669876 -0.117085 0.028223 0
M  V30 10 C 4.586516 0.328354 -0.937963 0
M  V30 11 N 4.090674 1.337552 -1.665665 0
M  V30 12 C 2.856143 1.617352 -1.242558 0
M  V30 13 N 1.872550 2.486765 -1.536273 0
M  V30 14 C 0.713196 2.500287 -0.871098 0
M  V30 15 C 0.446116 1.611495 0.175410 0
M  V30 16 C -0.823829 1.602070 0.932415 0
M  V30 17 C -1.713792 2.595745 1.283137 0
M  V30 18 N -2.717636 2.025887 1.979613 0
M  V30 19 N -2.508788 0.723549 2.087523 0
M  V30 20 C -3.273981 -0.333142 2.726860 0
M  V30 21 C -4.685038 0.117774 3.036351 0
M  V30 22 C -5.318983 0.595486 1.777102 0
M  V30 23 N -5.210097 -0.245733 0.640458 0
M  V30 24 C -4.000753 -0.975315 0.471245 0
M  V30 25 C -3.432136 -1.517645 1.763415 0
M  V30 26 C -1.341729 0.407330 1.451717 0
M  V30 27 C 1.443799 0.716039 0.485836 0
M  V30 28 C 2.622939 0.726621 -0.217734 0
M  V30 29 H 1.591202 -5.177780 -0.089283 0
M  V30 30 H 3.468206 -6.159075 -1.273026 0
M  V30 31 H 5.552399 -4.901304 -1.444411 0
M  V30 32 H 5.747580 -2.745132 -0.464138 0
M  V30 33 H 3.552726 -1.119121 1.877772 0
M  V30 34 H 5.158916 -1.213529 1.060150 0
M  V30 35 H 5.597248 -0.000229 -1.184448 0
M  V30 36 H 4.501408 1.888138 -2.450228 0
M  V30 37 H -0.074155 3.212842 -1.125030 0
M  V30 38 H -1.548144 3.626284 0.999834 0
M  V30 39 H -2.751746 -0.665882 3.649796 0
M  V30 40 H -5.239763 -0.738715 3.443017 0
M  V30 41 H -4.698505 0.968327 3.750846 0
M  V30 42 H -6.425056 0.679620 1.997097 0
M  V30 43 H -5.029434 1.639718 1.520777 0
M  V30 44 H -5.358154 0.349719 -0.218190 0
M  V30 45 H -4.208799 -1.853430 -0.176425 0
M  V30 46 H -3.194287 -0.401141 -0.068647 0
M  V30 47 H -4.159336 -2.198428 2.227761 0
M  V30 48 H -2.458229 -1.980469 1.523788 0
M  V30 49 H -0.872934 -0.581806 1.350171 0
M  V30 50 H 1.240547 0.062972 1.290488 0
M  V30 END ATOM
M  V30 BEGIN BOND
M  V30 1 1 1 2
M  V30 2 2 2 3
M  V30 3 1 3 4
M  V30 4 2 4 5
M  V30 5 1 5 6
M  V30 6 2 6 7
M  V30 7 1 7 8
M  V30 8 1 8 9
M  V30 9 2 9 10
M  V30 10 1 10 11
M  V30 11 1 11 12
M  V30 12 2 12 13
M  V30 13 1 13 14
M  V30 14 2 14 15
M  V30 15 1 15 16
M  V30 16 1 16 17
M  V30 17 2 17 18
M  V30 18 1 18 19
M  V30 19 1 19 20
M  V30 20 1 20 21
M  V30 21 1 21 22
M  V30 22 1 22 23
M  V30 23 1 23 24
M  V30 24 1 24 25
M  V30 25 1 19 26
M  V30 26 1 15 27
M  V30 27 2 27 28
M  V30 28 1 7 2
M  V30 29 1 28 9
M  V30 30 1 28 12
M  V30 31 2 26 16
M  V30 32 1 25 20
M  V30 33 1 3 29
M  V30 34 1 4 30
M  V30 35 1 5 31
M  V30 36 1 6 32
M  V30 37 1 8 33
M  V30 38 1 8 34
M  V30 39 1 10 35
M  V30 40 1 11 36
M  V30 41 1 14 37
M  V30 42 1 17 38
M  V30 43 1 20 39
M  V30 44 1 21 40
M  V30 45 1 21 41
M  V30 46 1 22 42
M  V30 47 1 22 43
M  V30 48 1 23 44
M  V30 49 1 24 45
M  V30 50 1 24 46
M  V30 51 1 25 47
M  V30 52 1 25 48
M  V30 53 1 26 49
M  V30 54 1 27 50
M  V30 END BOND
M  V30 END CTAB
M  END
>  <Dataset>  (729) 
ChEMBL_Kinases

>  <Ligand_Instance>  (729) 
nan

>  <PDB_ID>  (729) 
nan

>  <Standardized_SMILES>  (729) 
Clc1ccccc1Cc1c[nH]c2ncc(-c3cnn(C4CCNCC4)c3)cc12

>  <Name>  (729) 
nan

>  <Pocket>  (729) 
nan

>  <ATP_Site>  (729) 
nan

>  <Peripheral>  (729) 
nan

>  <Num_H_Atoms_ProtBoundConf>  (729) 
nan

>  <Num_Resolved_Atoms>  (729) 
nan

>  <Num_Not_Resolved_Atoms>  (729) 
nan

$$$$
CHEMBL3596899
     RDKit          3D

  0  0  0  0  0  0  0  0  0  0999 V3000
M  V30 BEGIN CTAB
M  V30 COUNTS 49 53 0 0 0
M  V30 BEGIN ATOM
M  V30 1 O 1.936578 4.292206 -1.032403 0
M  V30 2 C 2.020910 3.043922 -1.152363 0
M  V30 3 C 1.160827 2.231737 -2.021919 0
M  V30 4 C -0.209104 2.309884 -2.174026 0
M  V30 5 C -0.834796 1.449502 -3.050617 0
M  V30 6 C -0.172516 0.500931 -3.797522 0
M  V30 7 C 1.180039 0.419776 -3.651033 0
M  V30 8 C 1.827601 1.269173 -2.780748 0
M  V30 9 Cl 3.564337 1.070862 -2.677101 0
M  V30 10 C 3.034635 2.302161 -0.390734 0
M  V30 11 C 4.362384 2.735759 -0.302352 0
M  V30 12 N 5.031681 1.848434 0.451023 0
M  V30 13 C 4.206521 0.844610 0.866971 0
M  V30 14 N 4.324766 -0.268197 1.612999 0
M  V30 15 C 3.271168 -1.083036 1.845191 0
M  V30 16 C 2.005037 -0.830560 1.334736 0
M  V30 17 C 0.860046 -1.703542 1.579554 0
M  V30 18 C 0.715698 -3.062139 1.768874 0
M  V30 19 N -0.589544 -3.333697 1.960555 0
M  V30 20 N -1.297345 -2.197163 1.902117 0
M  V30 21 C -2.747234 -2.024433 2.056787 0
M  V30 22 C -3.106341 -1.627445 3.451313 0
M  V30 23 C -3.168518 -2.761969 4.434187 0
M  V30 24 N -3.900282 -3.900340 3.932357 0
M  V30 25 C -3.493397 -4.292599 2.609262 0
M  V30 26 C -3.537405 -3.201652 1.594789 0
M  V30 27 C -0.428509 -1.194707 1.670409 0
M  V30 28 C 1.870537 0.309768 0.566191 0
M  V30 29 C 2.966118 1.133601 0.339635 0
M  V30 30 H -0.676940 3.062424 -1.572337 0
M  V30 31 H -1.902135 1.537547 -3.144714 0
M  V30 32 H -0.706885 -0.162105 -4.481470 0
M  V30 33 H 1.704300 -0.324333 -4.235552 0
M  V30 34 H 4.759532 3.635763 -0.769575 0
M  V30 35 H 6.053182 1.877737 0.713973 0
M  V30 36 H 3.418319 -1.969887 2.454431 0
M  V30 37 H 1.571954 -3.716083 1.748209 0
M  V30 38 H -3.071456 -1.162091 1.402697 0
M  V30 39 H -4.012625 -0.999693 3.464587 0
M  V30 40 H -2.287485 -0.953285 3.827180 0
M  V30 41 H -3.735856 -2.384179 5.329407 0
M  V30 42 H -2.158874 -3.020315 4.809847 0
M  V30 43 H -4.913124 -3.855973 4.071802 0
M  V30 44 H -4.249544 -5.065586 2.283539 0
M  V30 45 H -2.530353 -4.812660 2.576876 0
M  V30 46 H -4.578609 -2.855172 1.440126 0
M  V30 47 H -3.133344 -3.598969 0.647923 0
M  V30 48 H -0.730346 -0.161643 1.576027 0
M  V30 49 H 0.919296 0.540207 0.156492 0
M  V30 END ATOM
M  V30 BEGIN BOND
M  V30 1 2 1 2
M  V30 2 1 2 3
M  V30 3 2 3 4
M  V30 4 1 4 5
M  V30 5 2 5 6
M  V30 6 1 6 7
M  V30 7 2 7 8
M  V30 8 1 8 9
M  V30 9 1 2 10
M  V30 10 2 10 11
M  V30 11 1 11 12
M  V30 12 1 12 13
M  V30 13 2 13 14
M  V30 14 1 14 15
M  V30 15 2 15 16
M  V30 16 1 16 17
M  V30 17 1 17 18
M  V30 18 2 18 19
M  V30 19 1 19 20
M  V30 20 1 20 21
M  V30 21 1 21 22
M  V30 22 1 22 23
M  V30 23 1 23 24
M  V30 24 1 24 25
M  V30 25 1 25 26
M  V30 26 1 20 27
M  V30 27 1 16 28
M  V30 28 2 28 29
M  V30 29 1 8 3
M  V30 30 1 29 10
M  V30 31 1 29 13
M  V30 32 2 27 17
M  V30 33 1 26 21
M  V30 34 1 4 30
M  V30 35 1 5 31
M  V30 36 1 6 32
M  V30 37 1 7 33
M  V30 38 1 11 34
M  V30 39 1 12 35
M  V30 40 1 15 36
M  V30 41 1 18 37
M  V30 42 1 21 38
M  V30 43 1 22 39
M  V30 44 1 22 40
M  V30 45 1 23 41
M  V30 46 1 23 42
M  V30 47 1 24 43
M  V30 48 1 25 44
M  V30 49 1 25 45
M  V30 50 1 26 46
M  V30 51 1 26 47
M  V30 52 1 27 48
M  V30 53 1 28 49
M  V30 END BOND
M  V30 END CTAB
M  END
>  <Dataset>  (730) 
ChEMBL_Kinases

>  <Ligand_Instance>  (730) 
nan

>  <PDB_ID>  (730) 
nan

>  <Standardized_SMILES>  (730) 
O=C(c1ccccc1Cl)c1c[nH]c2ncc(-c3cnn(C4CCNCC4)c3)cc12

>  <Name>  (730) 
nan

>  <Pocket>  (730) 
nan

>  <ATP_Site>  (730) 
nan

>  <Peripheral>  (730) 
nan

>  <Num_H_Atoms_ProtBoundConf>  (730) 
nan

>  <Num_Resolved_Atoms>  (730) 
nan

>  <Num_Not_Resolved_Atoms>  (730) 
nan

$$$$
CHEMBL3596900
     RDKit          3D

  0  0  0  0  0  0  0  0  0  0999 V3000
M  V30 BEGIN CTAB
M  V30 COUNTS 47 51 0 0 0
M  V30 BEGIN ATOM
M  V30 1 Cl 3.847478 -2.900544 -2.506441 0
M  V30 2 C 2.547506 -3.643846 -1.618097 0
M  V30 3 C 1.734701 -4.684251 -2.060424 0
M  V30 4 C 0.734666 -5.185237 -1.252037 0
M  V30 5 C 0.505784 -4.679584 0.010066 0
M  V30 6 C 1.318003 -3.645070 0.443033 0
M  V30 7 C 2.320660 -3.137884 -0.359077 0
M  V30 8 C 3.045514 -2.047274 0.315127 0
M  V30 9 C 4.147785 -1.982507 1.126672 0
M  V30 10 N 4.381921 -0.702977 1.467920 0
M  V30 11 C 3.468842 0.110046 0.911388 0
M  V30 12 N 3.248106 1.438279 0.928297 0
M  V30 13 C 2.227818 2.030580 0.264912 0
M  V30 14 C 1.362190 1.253421 -0.468947 0
M  V30 15 C 0.206456 1.767454 -1.240024 0
M  V30 16 C 0.008626 2.964787 -1.904024 0
M  V30 17 N -1.219037 2.922340 -2.439778 0
M  V30 18 N -1.798364 1.783905 -2.156222 0
M  V30 19 C -3.093305 1.284325 -2.503247 0
M  V30 20 C -3.812524 0.623223 -1.336455 0
M  V30 21 C -4.933616 -0.219543 -1.900725 0
M  V30 22 N -5.179356 0.145376 -3.262872 0
M  V30 23 C -5.304068 1.575198 -3.472537 0
M  V30 24 C -4.040544 2.295657 -3.048346 0
M  V30 25 C -0.967715 1.023908 -1.415439 0
M  V30 26 C 1.594604 -0.123253 -0.484036 0
M  V30 27 C 2.632479 -0.719728 0.191545 0
M  V30 28 H 1.949939 -5.045461 -3.049992 0
M  V30 29 H 0.125992 -5.999324 -1.644525 0
M  V30 30 H -0.302784 -5.140449 0.566179 0
M  V30 31 H 1.063049 -3.309447 1.454680 0
M  V30 32 H 4.674422 -2.898004 1.387801 0
M  V30 33 H 5.167133 -0.389416 2.081290 0
M  V30 34 H 2.045972 3.097745 0.274936 0
M  V30 35 H 0.762377 3.738587 -1.934016 0
M  V30 36 H -3.040903 0.471684 -3.286297 0
M  V30 37 H -4.317946 1.437269 -0.738525 0
M  V30 38 H -3.135900 0.050560 -0.683510 0
M  V30 39 H -4.530685 -1.272794 -1.905924 0
M  V30 40 H -5.860292 -0.153913 -1.289125 0
M  V30 41 H -5.835217 -0.427427 -3.785280 0
M  V30 42 H -6.197535 1.872536 -2.849931 0
M  V30 43 H -5.505008 1.703512 -4.558051 0
M  V30 44 H -3.538451 2.824199 -3.883632 0
M  V30 45 H -4.364523 3.051345 -2.276667 0
M  V30 46 H -1.120056 0.015335 -1.001381 0
M  V30 47 H 0.903974 -0.738006 -1.068851 0
M  V30 END ATOM
M  V30 BEGIN BOND
M  V30 1 1 1 2
M  V30 2 2 2 3
M  V30 3 1 3 4
M  V30 4 2 4 5
M  V30 5 1 5 6
M  V30 6 2 6 7
M  V30 7 1 7 8
M  V30 8 2 8 9
M  V30 9 1 9 10
M  V30 10 1 10 11
M  V30 11 2 11 12
M  V30 12 1 12 13
M  V30 13 2 13 14
M  V30 14 1 14 15
M  V30 15 1 15 16
M  V30 16 2 16 17
M  V30 17 1 17 18
M  V30 18 1 18 19
M  V30 19 1 19 20
M  V30 20 1 20 21
M  V30 21 1 21 22
M  V30 22 1 22 23
M  V30 23 1 23 24
M  V30 24 1 18 25
M  V30 25 1 14 26
M  V30 26 2 26 27
M  V30 27 1 7 2
M  V30 28 1 27 8
M  V30 29 1 27 11
M  V30 30 2 25 15
M  V30 31 1 24 19
M  V30 32 1 3 28
M  V30 33 1 4 29
M  V30 34 1 5 30
M  V30 35 1 6 31
M  V30 36 1 9 32
M  V30 37 1 10 33
M  V30 38 1 13 34
M  V30 39 1 16 35
M  V30 40 1 19 36
M  V30 41 1 20 37
M  V30 42 1 20 38
M  V30 43 1 21 39
M  V30 44 1 21 40
M  V30 45 1 22 41
M  V30 46 1 23 42
M  V30 47 1 23 43
M  V30 48 1 24 44
M  V30 49 1 24 45
M  V30 50 1 25 46
M  V30 51 1 26 47
M  V30 END BOND
M  V30 END CTAB
M  END
>  <Dataset>  (731) 
ChEMBL_Kinases

>  <Ligand_Instance>  (731) 
nan

>  <PDB_ID>  (731) 
nan

>  <Standardized_SMILES>  (731) 
Clc1ccccc1-c1c[nH]c2ncc(-c3cnn(C4CCNCC4)c3)cc12

>  <Name>  (731) 
nan

>  <Pocket>  (731) 
nan

>  <ATP_Site>  (731) 
nan

>  <Peripheral>  (731) 
nan

>  <Num_H_Atoms_ProtBoundConf>  (731) 
nan

>  <Num_Resolved_Atoms>  (731) 
nan

>  <Num_Not_Resolved_Atoms>  (731) 
nan

$$$$
CHEMBL4082422
     RDKit          3D

  0  0  0  0  0  0  0  0  0  0999 V3000
M  V30 BEGIN CTAB
M  V30 COUNTS 41 44 0 0 0
M  V30 BEGIN ATOM
M  V30 1 N 0.689596 -4.874356 2.227195 0
M  V30 2 C 1.271852 -4.872392 0.929290 0
M  V30 3 O 1.657045 -5.983490 0.447780 0
M  V30 4 C 1.423621 -3.628760 0.169544 0
M  V30 5 C 1.988045 -3.674496 -1.072488 0
M  V30 6 C 2.097864 -2.465848 -1.726972 0
M  V30 7 Cl 2.817336 -2.471728 -3.327955 0
M  V30 8 C 1.657060 -1.268607 -1.150797 0
M  V30 9 C 1.652329 0.041364 -1.585990 0
M  V30 10 Cl 2.305041 0.464046 -3.183492 0
M  V30 11 C 1.076444 0.837946 -0.574473 0
M  V30 12 C 0.996829 2.255665 -0.871188 0
M  V30 13 C -0.050221 2.881947 -1.713915 0
M  V30 14 C 0.066107 3.230050 -0.297812 0
M  V30 15 N 0.762562 -0.015870 0.416444 0
M  V30 16 C 0.167312 0.420459 1.616382 0
M  V30 17 C -1.338349 0.267527 1.520969 0
M  V30 18 C -1.899045 -0.532984 2.671970 0
M  V30 19 C -1.459728 0.128430 3.950418 0
M  V30 20 N -0.021469 0.179459 4.006967 0
M  V30 21 C 0.598258 -0.414323 2.840403 0
M  V30 22 C 1.094017 -1.283561 0.108792 0
M  V30 23 N 1.015351 -2.486168 0.691784 0
M  V30 24 H -0.336943 -4.978340 2.262255 0
M  V30 25 H 1.159339 -4.784250 3.164263 0
M  V30 26 H 2.340834 -4.580554 -1.551299 0
M  V30 27 H 2.013271 2.726406 -1.066388 0
M  V30 28 H 0.203957 3.675059 -2.451874 0
M  V30 29 H -0.873349 2.281648 -2.161825 0
M  V30 30 H -0.662542 2.954531 0.470918 0
M  V30 31 H 0.405284 4.287268 -0.056631 0
M  V30 32 H 0.351635 1.440447 1.957745 0
M  V30 33 H -1.640813 -0.154434 0.528468 0
M  V30 34 H -1.889613 1.230716 1.565613 0
M  V30 35 H -1.634322 -1.583500 2.693203 0
M  V30 36 H -3.006414 -0.476054 2.565074 0
M  V30 37 H -1.891965 -0.437660 4.793167 0
M  V30 38 H -1.912298 1.151788 4.018306 0
M  V30 39 H 0.269958 1.167150 4.051576 0
M  V30 40 H 1.693822 -0.276392 2.950778 0
M  V30 41 H 0.395137 -1.474188 2.728877 0
M  V30 END ATOM
M  V30 BEGIN BOND
M  V30 1 1 1 2
M  V30 2 2 2 3
M  V30 3 1 2 4
M  V30 4 2 4 5
M  V30 5 1 5 6
M  V30 6 1 6 7
M  V30 7 2 6 8
M  V30 8 1 8 9
M  V30 9 1 9 10
M  V30 10 2 9 11
M  V30 11 1 11 12
M  V30 12 1 12 13
M  V30 13 1 13 14
M  V30 14 1 11 15
M  V30 15 1 15 16
M  V30 16 1 16 17
M  V30 17 1 17 18
M  V30 18 1 18 19
M  V30 19 1 19 20
M  V30 20 1 20 21
M  V30 21 1 15 22
M  V30 22 2 22 23
M  V30 23 1 23 4
M  V30 24 1 22 8
M  V30 25 1 14 12
M  V30 26 1 21 16
M  V30 27 1 1 24
M  V30 28 1 1 25
M  V30 29 1 5 26
M  V30 30 1 12 27
M  V30 31 1 13 28
M  V30 32 1 13 29
M  V30 33 1 14 30
M  V30 34 1 14 31
M  V30 35 1 16 32
M  V30 36 1 17 33
M  V30 37 1 17 34
M  V30 38 1 18 35
M  V30 39 1 18 36
M  V30 40 1 19 37
M  V30 41 1 19 38
M  V30 42 1 20 39
M  V30 43 1 21 40
M  V30 44 1 21 41
M  V30 END BOND
M  V30 END CTAB
M  END
>  <Dataset>  (732) 
ChEMBL_Kinases

>  <Ligand_Instance>  (732) 
nan

>  <PDB_ID>  (732) 
nan

>  <Standardized_SMILES>  (732) 
NC(=O)c1cc(Cl)c2c(Cl)c(C3CC3)n(C3CCCNC3)c2n1

>  <Name>  (732) 
nan

>  <Pocket>  (732) 
nan

>  <ATP_Site>  (732) 
nan

>  <Peripheral>  (732) 
nan

>  <Num_H_Atoms_ProtBoundConf>  (732) 
nan

>  <Num_Resolved_Atoms>  (732) 
nan

>  <Num_Not_Resolved_Atoms>  (732) 
nan

$$$$
CHEMBL3660064
     RDKit          3D

  0  0  0  0  0  0  0  0  0  0999 V3000
M  V30 BEGIN CTAB
M  V30 COUNTS 54 58 0 0 0
M  V30 BEGIN ATOM
M  V30 1 C -2.893850 -2.445709 2.120680 0
M  V30 2 C -1.890980 -1.808537 1.239429 0
M  V30 3 C -1.124434 -2.699848 0.310195 0
M  V30 4 C -0.153000 -1.810457 -0.458520 0
M  V30 5 O 0.673336 -1.114466 0.359971 0
M  V30 6 C 1.622290 -1.416262 1.274247 0
M  V30 7 C 2.409159 -2.117402 2.043542 0
M  V30 8 C 3.366990 -1.904803 2.979504 0
M  V30 9 C 3.596155 -0.580686 3.196623 0
M  V30 10 C 2.889509 0.405588 2.499725 0
M  V30 11 C 3.290089 1.670302 2.861203 0
M  V30 12 C 2.649362 2.676575 2.202149 0
M  V30 13 C 1.697360 2.368611 1.270089 0
M  V30 14 C 0.999095 3.394549 0.523277 0
M  V30 15 N 1.228927 4.706644 0.699816 0
M  V30 16 N 0.442711 5.393965 -0.134229 0
M  V30 17 C -0.282782 4.520876 -0.838944 0
M  V30 18 C -1.238859 4.625181 -1.828534 0
M  V30 19 C -1.871868 3.532505 -2.431638 0
M  V30 20 C -1.509058 2.256657 -2.006429 0
M  V30 21 C -0.556810 2.253791 -1.025313 0
M  V30 22 N 0.068598 3.268849 -0.424664 0
M  V30 23 N 1.419064 1.107766 1.031333 0
M  V30 24 C 1.918555 -0.021263 1.553256 0
M  V30 25 C -0.442736 -3.873850 0.899654 0
M  V30 26 C -1.141961 -5.176061 0.449155 0
M  V30 27 N -0.860365 -5.320900 -0.980548 0
M  V30 28 C -1.504091 -4.223036 -1.647304 0
M  V30 29 C -2.119429 -3.194055 -0.770021 0
M  V30 30 H -2.816825 -3.538473 2.240354 0
M  V30 31 H -3.928848 -2.145732 1.849434 0
M  V30 32 H -2.748802 -2.064389 3.175598 0
M  V30 33 H -2.424260 -1.023475 0.617358 0
M  V30 34 H -1.184308 -1.195448 1.879274 0
M  V30 35 H -0.685993 -1.215471 -1.216243 0
M  V30 36 H 0.509296 -2.519914 -1.073929 0
M  V30 37 H 2.155147 -3.159734 1.783211 0
M  V30 38 H 3.804350 -2.787632 3.417265 0
M  V30 39 H 4.360872 -0.382653 3.947748 0
M  V30 40 H 4.039617 1.864519 3.597352 0
M  V30 41 H 2.854811 3.717874 2.376163 0
M  V30 42 H -1.558130 5.607271 -2.203842 0
M  V30 43 H -2.620231 3.648265 -3.202712 0
M  V30 44 H -1.913793 1.336767 -2.395207 0
M  V30 45 H -0.232493 1.276421 -0.652229 0
M  V30 46 H -0.367348 -3.912979 1.983755 0
M  V30 47 H 0.595065 -4.008503 0.469883 0
M  V30 48 H -2.216219 -5.043316 0.587756 0
M  V30 49 H -0.725379 -5.998000 1.045892 0
M  V30 50 H -1.196085 -6.250735 -1.329427 0
M  V30 51 H -2.314403 -4.671006 -2.301076 0
M  V30 52 H -0.794068 -3.773460 -2.379242 0
M  V30 53 H -3.082378 -3.469066 -0.340721 0
M  V30 54 H -2.299610 -2.289107 -1.435418 0
M  V30 END ATOM
M  V30 BEGIN BOND
M  V30 1 1 1 2
M  V30 2 1 2 3
M  V30 3 1 3 4
M  V30 4 1 4 5
M  V30 5 1 5 6
M  V30 6 2 6 7
M  V30 7 1 7 8
M  V30 8 2 8 9
M  V30 9 1 9 10
M  V30 10 2 10 11
M  V30 11 1 11 12
M  V30 12 2 12 13
M  V30 13 1 13 14
M  V30 14 2 14 15
M  V30 15 1 15 16
M  V30 16 2 16 17
M  V30 17 1 17 18
M  V30 18 2 18 19
M  V30 19 1 19 20
M  V30 20 2 20 21
M  V30 21 1 21 22
M  V30 22 1 13 23
M  V30 23 2 23 24
M  V30 24 1 3 25
M  V30 25 1 25 26
M  V30 26 1 26 27
M  V30 27 1 27 28
M  V30 28 1 28 29
M  V30 29 1 29 3
M  V30 30 1 24 6
M  V30 31 1 24 10
M  V30 32 1 22 14
M  V30 33 1 22 17
M  V30 34 1 1 30
M  V30 35 1 1 31
M  V30 36 1 1 32
M  V30 37 1 2 33
M  V30 38 1 2 34
M  V30 39 1 4 35
M  V30 40 1 4 36
M  V30 41 1 7 37
M  V30 42 1 8 38
M  V30 43 1 9 39
M  V30 44 1 11 40
M  V30 45 1 12 41
M  V30 46 1 18 42
M  V30 47 1 19 43
M  V30 48 1 20 44
M  V30 49 1 21 45
M  V30 50 1 25 46
M  V30 51 1 25 47
M  V30 52 1 26 48
M  V30 53 1 26 49
M  V30 54 1 27 50
M  V30 55 1 28 51
M  V30 56 1 28 52
M  V30 57 1 29 53
M  V30 58 1 29 54
M  V30 END BOND
M  V30 END CTAB
M  END
>  <Dataset>  (733) 
ChEMBL_Kinases

>  <Ligand_Instance>  (733) 
nan

>  <PDB_ID>  (733) 
nan

>  <Standardized_SMILES>  (733) 
CCC1(COc2cccc3ccc(-c4nnc5ccccn45)nc23)CCNCC1

>  <Name>  (733) 
nan

>  <Pocket>  (733) 
nan

>  <ATP_Site>  (733) 
nan

>  <Peripheral>  (733) 
nan

>  <Num_H_Atoms_ProtBoundConf>  (733) 
nan

>  <Num_Resolved_Atoms>  (733) 
nan

>  <Num_Not_Resolved_Atoms>  (733) 
nan

$$$$
CHEMBL3660063
     RDKit          3D

  0  0  0  0  0  0  0  0  0  0999 V3000
M  V30 BEGIN CTAB
M  V30 COUNTS 51 55 0 0 0
M  V30 BEGIN ATOM
M  V30 1 C -2.137327 -2.088470 -0.244078 0
M  V30 2 C -0.958717 -2.994754 -0.074903 0
M  V30 3 C 0.249188 -2.543729 -0.840108 0
M  V30 4 O 0.660736 -1.261930 -0.424100 0
M  V30 5 C 1.767256 -0.656519 -1.009753 0
M  V30 6 C 2.476023 -1.304820 -2.006383 0
M  V30 7 C 3.580070 -0.702590 -2.591817 0
M  V30 8 C 3.968770 0.560206 -2.167619 0
M  V30 9 C 3.287042 1.257682 -1.164678 0
M  V30 10 C 3.678220 2.510212 -0.748771 0
M  V30 11 C 2.927002 3.120645 0.261536 0
M  V30 12 C 1.835850 2.467246 0.805216 0
M  V30 13 C 1.065828 3.122183 1.858310 0
M  V30 14 N 1.277677 4.338374 2.406218 0
M  V30 15 N 0.351824 4.566574 3.336913 0
M  V30 16 C -0.452481 3.482754 3.376368 0
M  V30 17 C -1.540395 3.295668 4.196898 0
M  V30 18 C -2.231979 2.121943 4.085775 0
M  V30 19 C -1.820883 1.182734 3.169910 0
M  V30 20 C -0.714936 1.446968 2.380199 0
M  V30 21 N -0.013078 2.596543 2.468030 0
M  V30 22 N 1.523016 1.245361 0.340515 0
M  V30 23 C 2.201137 0.598406 -0.629019 0
M  V30 24 C -0.624228 -3.082874 1.391711 0
M  V30 25 C -1.769487 -3.580533 2.221304 0
M  V30 26 N -2.711971 -4.387274 1.557328 0
M  V30 27 C -2.441138 -4.942542 0.302063 0
M  V30 28 C -1.278370 -4.434087 -0.471968 0
M  V30 29 H -2.108028 -1.334734 0.583477 0
M  V30 30 H -2.139885 -1.540134 -1.199877 0
M  V30 31 H -3.096191 -2.637572 -0.139529 0
M  V30 32 H 1.036270 -3.308891 -0.761345 0
M  V30 33 H -0.029223 -2.457607 -1.921800 0
M  V30 34 H 2.213989 -2.279931 -2.366619 0
M  V30 35 H 4.178778 -1.155919 -3.377118 0
M  V30 36 H 4.827996 1.101548 -2.579658 0
M  V30 37 H 4.539810 2.991959 -1.198576 0
M  V30 38 H 3.223883 4.105006 0.597445 0
M  V30 39 H -1.864933 4.034160 4.918146 0
M  V30 40 H -3.114332 1.870723 4.691594 0
M  V30 41 H -2.313272 0.225391 3.017798 0
M  V30 42 H -0.391441 0.701370 1.655580 0
M  V30 43 H 0.214745 -3.823243 1.495812 0
M  V30 44 H -0.219103 -2.110459 1.712014 0
M  V30 45 H -1.384366 -4.116586 3.114211 0
M  V30 46 H -2.281062 -2.666718 2.611752 0
M  V30 47 H -3.716339 -4.207001 1.743395 0
M  V30 48 H -3.345815 -4.829580 -0.352980 0
M  V30 49 H -2.309259 -6.053986 0.407658 0
M  V30 50 H -1.453981 -4.539369 -1.555496 0
M  V30 51 H -0.375186 -5.028510 -0.156322 0
M  V30 END ATOM
M  V30 BEGIN BOND
M  V30 1 1 1 2
M  V30 2 1 2 3
M  V30 3 1 3 4
M  V30 4 1 4 5
M  V30 5 2 5 6
M  V30 6 1 6 7
M  V30 7 2 7 8
M  V30 8 1 8 9
M  V30 9 2 9 10
M  V30 10 1 10 11
M  V30 11 2 11 12
M  V30 12 1 12 13
M  V30 13 2 13 14
M  V30 14 1 14 15
M  V30 15 2 15 16
M  V30 16 1 16 17
M  V30 17 2 17 18
M  V30 18 1 18 19
M  V30 19 2 19 20
M  V30 20 1 20 21
M  V30 21 1 12 22
M  V30 22 2 22 23
M  V30 23 1 2 24
M  V30 24 1 24 25
M  V30 25 1 25 26
M  V30 26 1 26 27
M  V30 27 1 27 28
M  V30 28 1 28 2
M  V30 29 1 23 5
M  V30 30 1 23 9
M  V30 31 1 21 13
M  V30 32 1 21 16
M  V30 33 1 1 29
M  V30 34 1 1 30
M  V30 35 1 1 31
M  V30 36 1 3 32
M  V30 37 1 3 33
M  V30 38 1 6 34
M  V30 39 1 7 35
M  V30 40 1 8 36
M  V30 41 1 10 37
M  V30 42 1 11 38
M  V30 43 1 17 39
M  V30 44 1 18 40
M  V30 45 1 19 41
M  V30 46 1 20 42
M  V30 47 1 24 43
M  V30 48 1 24 44
M  V30 49 1 25 45
M  V30 50 1 25 46
M  V30 51 1 26 47
M  V30 52 1 27 48
M  V30 53 1 27 49
M  V30 54 1 28 50
M  V30 55 1 28 51
M  V30 END BOND
M  V30 END CTAB
M  END
>  <Dataset>  (734) 
ChEMBL_Kinases

>  <Ligand_Instance>  (734) 
nan

>  <PDB_ID>  (734) 
nan

>  <Standardized_SMILES>  (734) 
CC1(COc2cccc3ccc(-c4nnc5ccccn45)nc23)CCNCC1

>  <Name>  (734) 
nan

>  <Pocket>  (734) 
nan

>  <ATP_Site>  (734) 
nan

>  <Peripheral>  (734) 
nan

>  <Num_H_Atoms_ProtBoundConf>  (734) 
nan

>  <Num_Resolved_Atoms>  (734) 
nan

>  <Num_Not_Resolved_Atoms>  (734) 
nan

$$$$
CHEMBL4082212
     RDKit          3D

  0  0  0  0  0  0  0  0  0  0999 V3000
M  V30 BEGIN CTAB
M  V30 COUNTS 66 70 0 0 0
M  V30 BEGIN ATOM
M  V30 1 C 10.242774 -1.888853 5.136320 0
M  V30 2 C 9.432462 -1.449068 4.197752 0
M  V30 3 C 8.164885 -0.735257 4.148263 0
M  V30 4 O 7.709050 -0.459291 5.281937 0
M  V30 5 N 7.719975 -0.506700 2.821281 0
M  V30 6 C 6.503947 0.173671 2.548880 0
M  V30 7 C 5.406830 -0.685841 2.451992 0
M  V30 8 C 4.144217 -0.197821 2.189291 0
M  V30 9 C 3.965094 1.159081 2.020189 0
M  V30 10 C 2.735734 1.898209 1.737659 0
M  V30 11 O 2.581220 3.137476 1.588612 0
M  V30 12 N 1.550188 1.130396 1.612330 0
M  V30 13 C 0.175552 1.420425 1.350454 0
M  V30 14 C -0.644548 1.719385 2.430795 0
M  V30 15 C -1.989977 1.998674 2.225155 0
M  V30 16 C -2.522664 1.979328 0.929025 0
M  V30 17 N -3.918871 2.281382 0.836395 0
M  V30 18 C -4.408304 0.948755 0.741850 0
M  V30 19 C -4.585825 0.193804 -0.390613 0
M  V30 20 C -5.068681 -1.060690 -0.214389 0
M  V30 21 C -5.288649 -1.945762 -1.350337 0
M  V30 22 N -6.499713 -2.425704 -1.703215 0
M  V30 23 C -6.338289 -3.218451 -2.796153 0
M  V30 24 S -7.700148 -4.059090 -3.588417 0
M  V30 25 C -7.125663 -5.027490 -4.999250 0
M  V30 26 N -5.010830 -3.217139 -3.107880 0
M  V30 27 C -4.340629 -2.433458 -2.223612 0
M  V30 28 C -2.909915 -2.151631 -2.189372 0
M  V30 29 C -2.011261 -2.465525 -1.187214 0
M  V30 30 C -0.675853 -2.121864 -1.315031 0
M  V30 31 C -0.205360 -1.461133 -2.437204 0
M  V30 32 F 1.113578 -1.121568 -2.562699 0
M  V30 33 C -1.080174 -1.138529 -3.446670 0
M  V30 34 C -2.419507 -1.485552 -3.314007 0
M  V30 35 C -5.368001 -1.554500 1.048713 0
M  V30 36 C -5.189278 -0.798645 2.168346 0
M  V30 37 N -4.702874 0.454254 1.949219 0
M  V30 38 C -1.686831 1.679147 -0.130723 0
M  V30 39 C -0.347287 1.401187 0.072723 0
M  V30 40 C 5.064855 2.017633 2.117982 0
M  V30 41 C 6.337031 1.533185 2.381955 0
M  V30 42 H 10.567821 -2.053851 6.137586 0
M  V30 43 H 10.575447 -2.057903 6.151630 0
M  V30 44 H 10.205864 -1.897698 3.612645 0
M  V30 45 H 8.263059 -0.826300 1.993751 0
M  V30 46 H 5.462524 -1.750131 2.570028 0
M  V30 47 H 3.236200 -0.764674 2.094286 0
M  V30 48 H 1.436605 0.095976 1.694320 0
M  V30 49 H -0.280534 1.745352 3.435359 0
M  V30 50 H -2.632985 2.234528 3.087899 0
M  V30 51 H -4.369195 3.222158 0.843304 0
M  V30 52 H -4.333790 0.643789 -1.315600 0
M  V30 53 H -7.389020 -2.217175 -1.216318 0
M  V30 54 H -6.373502 -5.757483 -4.656696 0
M  V30 55 H -6.664016 -4.315958 -5.734117 0
M  V30 56 H -7.980482 -5.562829 -5.432603 0
M  V30 57 H -2.439862 -2.981799 -0.335958 0
M  V30 58 H -0.007898 -2.388248 -0.503813 0
M  V30 59 H -0.714440 -0.622901 -4.323918 0
M  V30 60 H -3.045824 -1.198421 -4.148562 0
M  V30 61 H -5.754026 -2.562425 1.176365 0
M  V30 62 H -5.414330 -1.159601 3.163221 0
M  V30 63 H -2.158642 1.681165 -1.103874 0
M  V30 64 H 0.280084 1.169579 -0.778416 0
M  V30 65 H 5.054315 3.095322 2.006500 0
M  V30 66 H 7.225153 2.138797 2.469890 0
M  V30 END ATOM
M  V30 BEGIN BOND
M  V30 1 2 1 2
M  V30 2 1 2 3
M  V30 3 2 3 4
M  V30 4 1 3 5
M  V30 5 1 5 6
M  V30 6 2 6 7
M  V30 7 1 7 8
M  V30 8 2 8 9
M  V30 9 1 9 10
M  V30 10 2 10 11
M  V30 11 1 10 12
M  V30 12 1 12 13
M  V30 13 2 13 14
M  V30 14 1 14 15
M  V30 15 2 15 16
M  V30 16 1 16 17
M  V30 17 1 17 18
M  V30 18 2 18 19
M  V30 19 1 19 20
M  V30 20 1 20 21
M  V30 21 1 21 22
M  V30 22 1 22 23
M  V30 23 1 23 24
M  V30 24 1 24 25
M  V30 25 2 23 26
M  V30 26 1 26 27
M  V30 27 1 27 28
M  V30 28 2 28 29
M  V30 29 1 29 30
M  V30 30 2 30 31
M  V30 31 1 31 32
M  V30 32 1 31 33
M  V30 33 2 33 34
M  V30 34 2 20 35
M  V30 35 1 35 36
M  V30 36 2 36 37
M  V30 37 1 16 38
M  V30 38 2 38 39
M  V30 39 1 9 40
M  V30 40 2 40 41
M  V30 41 1 41 6
M  V30 42 1 39 13
M  V30 43 1 37 18
M  V30 44 2 27 21
M  V30 45 1 34 28
M  V30 46 1 1 42
M  V30 47 1 1 43
M  V30 48 1 2 44
M  V30 49 1 5 45
M  V30 50 1 7 46
M  V30 51 1 8 47
M  V30 52 1 12 48
M  V30 53 1 14 49
M  V30 54 1 15 50
M  V30 55 1 17 51
M  V30 56 1 19 52
M  V30 57 1 22 53
M  V30 58 1 25 54
M  V30 59 1 25 55
M  V30 60 1 25 56
M  V30 61 1 29 57
M  V30 62 1 30 58
M  V30 63 1 33 59
M  V30 64 1 34 60
M  V30 65 1 35 61
M  V30 66 1 36 62
M  V30 67 1 38 63
M  V30 68 1 39 64
M  V30 69 1 40 65
M  V30 70 1 41 66
M  V30 END BOND
M  V30 END CTAB
M  END
>  <Dataset>  (735) 
ChEMBL_Kinases

>  <Ligand_Instance>  (735) 
nan

>  <PDB_ID>  (735) 
nan

>  <Standardized_SMILES>  (735) 
C=CC(=O)Nc1ccc(C(=O)Nc2ccc(Nc3cc(-c4[nH]c(SC)nc4-c4ccc(F)cc4)ccn3)cc2)cc1

>  <Name>  (735) 
nan

>  <Pocket>  (735) 
nan

>  <ATP_Site>  (735) 
nan

>  <Peripheral>  (735) 
nan

>  <Num_H_Atoms_ProtBoundConf>  (735) 
nan

>  <Num_Resolved_Atoms>  (735) 
nan

>  <Num_Not_Resolved_Atoms>  (735) 
nan

$$$$
CHEMBL4082173
     RDKit          3D

  0  0  0  0  0  0  0  0  0  0999 V3000
M  V30 BEGIN CTAB
M  V30 COUNTS 48 51 0 0 0
M  V30 BEGIN ATOM
M  V30 1 O 1.108702 -0.169557 -0.919552 0
M  V30 2 C 1.006136 1.008093 -0.488794 0
M  V30 3 N 1.122631 2.055557 -1.412325 0
M  V30 4 C 1.352903 1.967700 -2.837661 0
M  V30 5 C 2.792757 1.657659 -3.038291 0
M  V30 6 C 3.635836 2.773097 -3.120177 0
M  V30 7 C 4.992299 2.710320 -3.306859 0
M  V30 8 C 5.572803 1.466665 -3.422677 0
M  V30 9 C 4.770977 0.347284 -3.346633 0
M  V30 10 C 3.408016 0.429452 -3.158623 0
M  V30 11 C 0.773504 1.219977 0.934863 0
M  V30 12 C 0.643748 2.454413 1.525446 0
M  V30 13 C 0.424157 2.595005 2.877345 0
M  V30 14 C 0.329536 1.476818 3.672080 0
M  V30 15 C 0.448579 0.195807 3.155863 0
M  V30 16 N 0.358304 -0.949025 3.986866 0
M  V30 17 C 0.431574 -2.351700 3.634974 0
M  V30 18 C -0.723802 -2.765828 2.774177 0
M  V30 19 N -1.860735 -3.193101 3.391840 0
M  V30 20 C -2.776715 -3.518849 2.467222 0
M  V30 21 C -4.142914 -4.024663 2.609495 0
M  V30 22 C -5.100201 -3.661400 1.671249 0
M  V30 23 C -6.410466 -4.086158 1.720804 0
M  V30 24 N -6.766636 -4.894719 2.736956 0
M  V30 25 C -5.891929 -5.284148 3.677399 0
M  V30 26 C -4.574533 -4.860158 3.632067 0
M  V30 27 N -2.197510 -3.290234 1.294919 0
M  V30 28 O -1.006152 -2.853578 1.502892 0
M  V30 29 C 0.666985 0.148299 1.796428 0
M  V30 30 H 1.034568 3.020302 -1.035053 0
M  V30 31 H 1.106520 2.914956 -3.356737 0
M  V30 32 H 0.759582 1.152286 -3.306842 0
M  V30 33 H 3.237109 3.785484 -3.036020 0
M  V30 34 H 5.607322 3.587918 -3.364587 0
M  V30 35 H 6.631044 1.324778 -3.570972 0
M  V30 36 H 5.125890 -0.672367 -3.425587 0
M  V30 37 H 2.742616 -0.405218 -3.095227 0
M  V30 38 H 0.712946 3.346153 0.930156 0
M  V30 39 H 0.321499 3.557203 3.347777 0
M  V30 40 H 0.156293 1.592635 4.737494 0
M  V30 41 H 0.214578 -0.741864 5.022642 0
M  V30 42 H 0.463691 -2.977236 4.542493 0
M  V30 43 H 1.365992 -2.537771 3.014802 0
M  V30 44 H -4.794757 -3.017032 0.870465 0
M  V30 45 H -7.152216 -3.809357 1.000991 0
M  V30 46 H -6.118912 -5.922377 4.502885 0
M  V30 47 H -3.832178 -5.143869 4.362158 0
M  V30 48 H 0.774585 -0.824864 1.342594 0
M  V30 END ATOM
M  V30 BEGIN BOND
M  V30 1 2 1 2
M  V30 2 1 2 3
M  V30 3 1 3 4
M  V30 4 1 4 5
M  V30 5 2 5 6
M  V30 6 1 6 7
M  V30 7 2 7 8
M  V30 8 1 8 9
M  V30 9 2 9 10
M  V30 10 1 2 11
M  V30 11 2 11 12
M  V30 12 1 12 13
M  V30 13 2 13 14
M  V30 14 1 14 15
M  V30 15 1 15 16
M  V30 16 1 16 17
M  V30 17 1 17 18
M  V30 18 2 18 19
M  V30 19 1 19 20
M  V30 20 1 20 21
M  V30 21 2 21 22
M  V30 22 1 22 23
M  V30 23 2 23 24
M  V30 24 1 24 25
M  V30 25 2 25 26
M  V30 26 2 20 27
M  V30 27 1 27 28
M  V30 28 2 15 29
M  V30 29 1 10 5
M  V30 30 1 29 11
M  V30 31 1 28 18
M  V30 32 1 26 21
M  V30 33 1 3 30
M  V30 34 1 4 31
M  V30 35 1 4 32
M  V30 36 1 6 33
M  V30 37 1 7 34
M  V30 38 1 8 35
M  V30 39 1 9 36
M  V30 40 1 10 37
M  V30 41 1 12 38
M  V30 42 1 13 39
M  V30 43 1 14 40
M  V30 44 1 16 41
M  V30 45 1 17 42
M  V30 46 1 17 43
M  V30 47 1 22 44
M  V30 48 1 23 45
M  V30 49 1 25 46
M  V30 50 1 26 47
M  V30 51 1 29 48
M  V30 END BOND
M  V30 END CTAB
M  END
>  <Dataset>  (736) 
ChEMBL_Kinases

>  <Ligand_Instance>  (736) 
nan

>  <PDB_ID>  (736) 
nan

>  <Standardized_SMILES>  (736) 
O=C(NCc1ccccc1)c1cccc(NCc2nc(-c3ccncc3)no2)c1

>  <Name>  (736) 
nan

>  <Pocket>  (736) 
nan

>  <ATP_Site>  (736) 
nan

>  <Peripheral>  (736) 
nan

>  <Num_H_Atoms_ProtBoundConf>  (736) 
nan

>  <Num_Resolved_Atoms>  (736) 
nan

>  <Num_Not_Resolved_Atoms>  (736) 
nan

$$$$
CHEMBL3604792
     RDKit          3D

  0  0  0  0  0  0  0  0  0  0999 V3000
M  V30 BEGIN CTAB
M  V30 COUNTS 46 49 0 0 0
M  V30 BEGIN ATOM
M  V30 1 O 3.013454 -5.420989 0.163118 0
M  V30 2 C 2.450945 -4.356887 -0.514069 0
M  V30 3 C 2.883831 -3.083787 -0.312991 0
M  V30 4 F 3.885953 -2.782823 0.558225 0
M  V30 5 C 2.350163 -1.992532 -0.968083 0
M  V30 6 C 1.321501 -2.201323 -1.876896 0
M  V30 7 C 0.582834 -1.256113 -2.698089 0
M  V30 8 C 0.685068 -1.399200 -4.067565 0
M  V30 9 N 0.046873 -0.585106 -4.923258 0
M  V30 10 C -0.728825 0.417316 -4.433179 0
M  V30 11 C -0.864265 0.602983 -3.068391 0
M  V30 12 C -0.203777 -0.239756 -2.199439 0
M  V30 13 C -0.318035 -0.080178 -0.772190 0
M  V30 14 C 0.147610 1.135357 -0.280010 0
M  V30 15 C 0.121923 1.472590 1.057661 0
M  V30 16 C -0.386433 0.577702 1.979789 0
M  V30 17 N -0.445742 0.855896 3.374764 0
M  V30 18 C -0.948885 0.001863 4.433578 0
M  V30 19 C -1.867468 0.866261 5.284647 0
M  V30 20 N -1.050838 1.826171 5.990234 0
M  V30 21 C 0.186946 2.106913 5.309311 0
M  V30 22 C 0.058602 2.155179 3.802557 0
M  V30 23 C -0.844981 -0.623740 1.479475 0
M  V30 24 C -0.825992 -0.975238 0.145450 0
M  V30 25 C 0.879217 -3.513914 -2.080790 0
M  V30 26 C 1.436559 -4.580572 -1.407698 0
M  V30 27 F 1.021247 -5.865055 -1.591284 0
M  V30 28 H 2.819673 -5.633828 1.133811 0
M  V30 29 H 2.607194 -0.951977 -0.892801 0
M  V30 30 H 1.263191 -2.146587 -4.587766 0
M  V30 31 H -1.251715 1.085071 -5.109928 0
M  V30 32 H -1.480807 1.399996 -2.640247 0
M  V30 33 H 0.567721 1.907475 -0.929658 0
M  V30 34 H 0.487464 2.423513 1.433313 0
M  V30 35 H -0.114240 -0.414021 5.027589 0
M  V30 36 H -1.606394 -0.782058 4.007251 0
M  V30 37 H -2.450794 0.196816 5.929153 0
M  V30 38 H -2.544504 1.393512 4.593260 0
M  V30 39 H -1.559503 2.688557 6.220067 0
M  V30 40 H 0.975756 1.402020 5.645607 0
M  V30 41 H 0.479682 3.144176 5.627047 0
M  V30 42 H -0.624947 2.979690 3.548099 0
M  V30 43 H 1.094088 2.314357 3.420224 0
M  V30 44 H -1.265126 -1.403050 2.105019 0
M  V30 45 H -1.174761 -1.897641 -0.259643 0
M  V30 46 H 0.078832 -3.813511 -2.767376 0
M  V30 END ATOM
M  V30 BEGIN BOND
M  V30 1 1 1 2
M  V30 2 2 2 3
M  V30 3 1 3 4
M  V30 4 1 3 5
M  V30 5 2 5 6
M  V30 6 1 6 7
M  V30 7 2 7 8
M  V30 8 1 8 9
M  V30 9 2 9 10
M  V30 10 1 10 11
M  V30 11 2 11 12
M  V30 12 1 12 13
M  V30 13 2 13 14
M  V30 14 1 14 15
M  V30 15 2 15 16
M  V30 16 1 16 17
M  V30 17 1 17 18
M  V30 18 1 18 19
M  V30 19 1 19 20
M  V30 20 1 20 21
M  V30 21 1 21 22
M  V30 22 1 16 23
M  V30 23 2 23 24
M  V30 24 1 6 25
M  V30 25 2 25 26
M  V30 26 1 26 27
M  V30 27 1 26 2
M  V30 28 1 12 7
M  V30 29 1 24 13
M  V30 30 1 22 17
M  V30 31 1 1 28
M  V30 32 1 5 29
M  V30 33 1 8 30
M  V30 34 1 10 31
M  V30 35 1 11 32
M  V30 36 1 14 33
M  V30 37 1 15 34
M  V30 38 1 18 35
M  V30 39 1 18 36
M  V30 40 1 19 37
M  V30 41 1 19 38
M  V30 42 1 20 39
M  V30 43 1 21 40
M  V30 44 1 21 41
M  V30 45 1 22 42
M  V30 46 1 22 43
M  V30 47 1 23 44
M  V30 48 1 24 45
M  V30 49 1 25 46
M  V30 END BOND
M  V30 END CTAB
M  END
>  <Dataset>  (737) 
ChEMBL_Kinases

>  <Ligand_Instance>  (737) 
nan

>  <PDB_ID>  (737) 
nan

>  <Standardized_SMILES>  (737) 
Oc1c(F)cc(-c2cnccc2-c2ccc(N3CCNCC3)cc2)cc1F

>  <Name>  (737) 
nan

>  <Pocket>  (737) 
nan

>  <ATP_Site>  (737) 
nan

>  <Peripheral>  (737) 
nan

>  <Num_H_Atoms_ProtBoundConf>  (737) 
nan

>  <Num_Resolved_Atoms>  (737) 
nan

>  <Num_Not_Resolved_Atoms>  (737) 
nan

$$$$
CHEMBL3884229
     RDKit          3D

  0  0  0  0  0  0  0  0  0  0999 V3000
M  V30 BEGIN CTAB
M  V30 COUNTS 54 57 0 0 0
M  V30 BEGIN ATOM
M  V30 1 C 1.736749 1.239297 4.148067 0
M  V30 2 C 2.986978 1.620828 4.246893 0
M  V30 3 C 3.951014 1.301211 3.200385 0
M  V30 4 O 5.147071 1.676851 3.314423 0
M  V30 5 O 3.616157 0.598491 2.075514 0
M  V30 6 C 4.583528 0.324197 1.110413 0
M  V30 7 C 5.348013 -0.845658 1.180340 0
M  V30 8 C 6.297659 -1.078715 0.201350 0
M  V30 9 C 6.510388 -0.190324 -0.839607 0
M  V30 10 C 5.755923 0.967550 -0.911571 0
M  V30 11 C 4.801654 1.219754 0.056445 0
M  V30 12 N 3.984676 2.397389 0.045071 0
M  V30 13 C 2.563107 2.180727 -0.034855 0
M  V30 14 N 2.082974 0.933179 -0.094316 0
M  V30 15 C 0.780887 0.614353 -0.170432 0
M  V30 16 N 0.408458 -0.744183 -0.228257 0
M  V30 17 C -0.899807 -1.286735 -0.306633 0
M  V30 18 C -2.073837 -0.568631 -0.330461 0
M  V30 19 C -3.336448 -1.119178 -0.407732 0
M  V30 20 C -3.472798 -2.486195 -0.467159 0
M  V30 21 N -4.748985 -3.107075 -0.549631 0
M  V30 22 C -6.027586 -2.432680 -0.628250 0
M  V30 23 C -6.755773 -2.752796 0.684726 0
M  V30 24 O -7.007509 -4.122409 0.758415 0
M  V30 25 C -5.877084 -4.883382 0.610752 0
M  V30 26 C -5.014806 -4.528435 -0.567892 0
M  V30 27 C -2.321800 -3.238050 -0.445674 0
M  V30 28 C -1.076129 -2.652398 -0.367759 0
M  V30 29 N -0.031203 1.662330 -0.183322 0
M  V30 30 C 0.353730 2.941067 -0.127943 0
M  V30 31 C 1.693952 3.239679 -0.050394 0
M  V30 32 Cl 2.252705 4.894623 0.024402 0
M  V30 33 H 1.325797 0.682905 3.327265 0
M  V30 34 H 1.008564 1.460049 4.900777 0
M  V30 35 H 3.293668 2.176004 5.115265 0
M  V30 36 H 5.173345 -1.533726 1.998956 0
M  V30 37 H 6.877964 -1.991176 0.275710 0
M  V30 38 H 7.258638 -0.376400 -1.608851 0
M  V30 39 H 5.869400 1.706806 -1.698660 0
M  V30 40 H 4.348660 3.358752 0.089571 0
M  V30 41 H 1.202535 -1.448814 -0.211072 0
M  V30 42 H -2.020135 0.504497 -0.285971 0
M  V30 43 H -4.169228 -0.454040 -0.417640 0
M  V30 44 H -5.917388 -1.355872 -0.690517 0
M  V30 45 H -6.630235 -2.791636 -1.491416 0
M  V30 46 H -7.719063 -2.236077 0.659265 0
M  V30 47 H -6.164853 -2.357136 1.512897 0
M  V30 48 H -6.224131 -5.942774 0.437075 0
M  V30 49 H -5.265542 -4.962508 1.545696 0
M  V30 50 H -5.597067 -4.740181 -1.501351 0
M  V30 51 H -4.106924 -5.161989 -0.510350 0
M  V30 52 H -2.311520 -4.310195 -0.487626 0
M  V30 53 H -0.189388 -3.287347 -0.353376 0
M  V30 54 H -0.363996 3.762725 -0.142256 0
M  V30 END ATOM
M  V30 BEGIN BOND
M  V30 1 2 1 2
M  V30 2 1 2 3
M  V30 3 2 3 4
M  V30 4 1 3 5
M  V30 5 1 5 6
M  V30 6 2 6 7
M  V30 7 1 7 8
M  V30 8 2 8 9
M  V30 9 1 9 10
M  V30 10 2 10 11
M  V30 11 1 11 12
M  V30 12 1 12 13
M  V30 13 2 13 14
M  V30 14 1 14 15
M  V30 15 1 15 16
M  V30 16 1 16 17
M  V30 17 2 17 18
M  V30 18 1 18 19
M  V30 19 2 19 20
M  V30 20 1 20 21
M  V30 21 1 21 22
M  V30 22 1 22 23
M  V30 23 1 23 24
M  V30 24 1 24 25
M  V30 25 1 25 26
M  V30 26 1 20 27
M  V30 27 2 27 28
M  V30 28 2 15 29
M  V30 29 1 29 30
M  V30 30 2 30 31
M  V30 31 1 31 32
M  V30 32 1 11 6
M  V30 33 1 31 13
M  V30 34 1 28 17
M  V30 35 1 26 21
M  V30 36 1 1 33
M  V30 37 1 1 34
M  V30 38 1 2 35
M  V30 39 1 7 36
M  V30 40 1 8 37
M  V30 41 1 9 38
M  V30 42 1 10 39
M  V30 43 1 12 40
M  V30 44 1 16 41
M  V30 45 1 18 42
M  V30 46 1 19 43
M  V30 47 1 22 44
M  V30 48 1 22 45
M  V30 49 1 23 46
M  V30 50 1 23 47
M  V30 51 1 25 48
M  V30 52 1 25 49
M  V30 53 1 26 50
M  V30 54 1 26 51
M  V30 55 1 27 52
M  V30 56 1 28 53
M  V30 57 1 30 54
M  V30 END BOND
M  V30 END CTAB
M  END
>  <Dataset>  (738) 
ChEMBL_Kinases

>  <Ligand_Instance>  (738) 
nan

>  <PDB_ID>  (738) 
nan

>  <Standardized_SMILES>  (738) 
C=CC(=O)Oc1ccccc1Nc1nc(Nc2ccc(N3CCOCC3)cc2)ncc1Cl

>  <Name>  (738) 
nan

>  <Pocket>  (738) 
nan

>  <ATP_Site>  (738) 
nan

>  <Peripheral>  (738) 
nan

>  <Num_H_Atoms_ProtBoundConf>  (738) 
nan

>  <Num_Resolved_Atoms>  (738) 
nan

>  <Num_Not_Resolved_Atoms>  (738) 
nan

$$$$
CHEMBL3660059
     RDKit          3D

  0  0  0  0  0  0  0  0  0  0999 V3000
M  V30 BEGIN CTAB
M  V30 COUNTS 41 44 0 0 0
M  V30 BEGIN ATOM
M  V30 1 O -0.505995 -5.042509 1.359178 0
M  V30 2 C -0.509249 -3.721974 0.981206 0
M  V30 3 C -1.452658 -3.462580 -0.174535 0
M  V30 4 O -1.123319 -4.190195 -1.295098 0
M  V30 5 C -1.467930 -1.963032 -0.453340 0
M  V30 6 O -0.310109 -1.514444 -0.860586 0
M  V30 7 C 0.809559 -1.119830 -1.306561 0
M  V30 8 C 1.317534 -1.666524 -2.473847 0
M  V30 9 C 2.536675 -1.300610 -3.044212 0
M  V30 10 C 3.229386 -0.329632 -2.353627 0
M  V30 11 C 2.796832 0.264703 -1.188323 0
M  V30 12 C 3.500479 1.234598 -0.509133 0
M  V30 13 C 2.965247 1.768242 0.664052 0
M  V30 14 C 1.749315 1.350134 1.162415 0
M  V30 15 C 1.235418 1.946910 2.401092 0
M  V30 16 N 1.843164 2.897973 3.137639 0
M  V30 17 N 1.062656 3.179916 4.189394 0
M  V30 18 C -0.043136 2.418140 4.136416 0
M  V30 19 C -1.135685 2.351752 4.996120 0
M  V30 20 C -2.136257 1.455902 4.673869 0
M  V30 21 C -2.062954 0.658759 3.551142 0
M  V30 22 C -0.927706 0.809874 2.766982 0
M  V30 23 N 0.083720 1.657330 3.015465 0
M  V30 24 N 1.098360 0.400702 0.464714 0
M  V30 25 C 1.569310 -0.142521 -0.665576 0
M  V30 26 H -1.400760 -5.286866 1.709206 0
M  V30 27 H 0.517584 -3.414526 0.697407 0
M  V30 28 H -0.826464 -3.040940 1.812891 0
M  V30 29 H -2.463096 -3.772126 0.157301 0
M  V30 30 H -0.259869 -4.665713 -1.255032 0
M  V30 31 H -2.282027 -1.764873 -1.224143 0
M  V30 32 H -1.796915 -1.509318 0.528633 0
M  V30 33 H 0.750061 -2.438898 -3.008810 0
M  V30 34 H 2.893888 -1.754579 -3.957512 0
M  V30 35 H 4.174327 0.021188 -2.706235 0
M  V30 36 H 4.441919 1.559879 -0.892647 0
M  V30 37 H 3.495168 2.526041 1.211883 0
M  V30 38 H -1.181715 2.981966 5.873432 0
M  V30 39 H -3.007306 1.357266 5.298631 0
M  V30 40 H -2.814584 -0.049855 3.261742 0
M  V30 41 H -0.810037 0.214219 1.873487 0
M  V30 END ATOM
M  V30 BEGIN BOND
M  V30 1 1 1 2
M  V30 2 1 2 3
M  V30 3 1 3 4
M  V30 4 1 3 5
M  V30 5 1 5 6
M  V30 6 1 6 7
M  V30 7 2 7 8
M  V30 8 1 8 9
M  V30 9 2 9 10
M  V30 10 1 10 11
M  V30 11 2 11 12
M  V30 12 1 12 13
M  V30 13 2 13 14
M  V30 14 1 14 15
M  V30 15 2 15 16
M  V30 16 1 16 17
M  V30 17 2 17 18
M  V30 18 1 18 19
M  V30 19 2 19 20
M  V30 20 1 20 21
M  V30 21 2 21 22
M  V30 22 1 22 23
M  V30 23 1 14 24
M  V30 24 2 24 25
M  V30 25 1 25 7
M  V30 26 1 25 11
M  V30 27 1 23 15
M  V30 28 1 23 18
M  V30 29 1 1 26
M  V30 30 1 2 27
M  V30 31 1 2 28
M  V30 32 1 3 29
M  V30 33 1 4 30
M  V30 34 1 5 31
M  V30 35 1 5 32
M  V30 36 1 8 33
M  V30 37 1 9 34
M  V30 38 1 10 35
M  V30 39 1 12 36
M  V30 40 1 13 37
M  V30 41 1 19 38
M  V30 42 1 20 39
M  V30 43 1 21 40
M  V30 44 1 22 41
M  V30 END BOND
M  V30 END CTAB
M  END
>  <Dataset>  (739) 
ChEMBL_Kinases

>  <Ligand_Instance>  (739) 
nan

>  <PDB_ID>  (739) 
nan

>  <Standardized_SMILES>  (739) 
OCC(O)COc1cccc2ccc(-c3nnc4ccccn34)nc12

>  <Name>  (739) 
nan

>  <Pocket>  (739) 
nan

>  <ATP_Site>  (739) 
nan

>  <Peripheral>  (739) 
nan

>  <Num_H_Atoms_ProtBoundConf>  (739) 
nan

>  <Num_Resolved_Atoms>  (739) 
nan

>  <Num_Not_Resolved_Atoms>  (739) 
nan

$$$$
CHEMBL4081576
     RDKit          3D

  0  0  0  0  0  0  0  0  0  0999 V3000
M  V30 BEGIN CTAB
M  V30 COUNTS 61 63 0 0 0
M  V30 BEGIN ATOM
M  V30 1 C 4.244403 1.723281 3.911524 0
M  V30 2 C 4.280705 0.411585 4.653557 0
M  V30 3 C 4.142072 -0.738836 3.697013 0
M  V30 4 C 2.790798 -0.605390 2.982213 0
M  V30 5 C 2.583398 -1.680376 2.024356 0
M  V30 6 C 2.453632 -1.391749 0.724566 0
M  V30 7 C 2.480947 -0.091424 0.009487 0
M  V30 8 C 1.453380 -0.330327 -1.096982 0
M  V30 9 C 1.671717 0.548349 -2.285522 0
M  V30 10 O 2.972448 0.453750 -2.775392 0
M  V30 11 C 0.095827 -0.180878 -0.485553 0
M  V30 12 O -0.872073 -0.559566 -1.464206 0
M  V30 13 C -2.230213 -0.531288 -1.204874 0
M  V30 14 O -2.527306 -0.146524 -0.043470 0
M  V30 15 C -3.266674 -0.905021 -2.160448 0
M  V30 16 C -3.064721 -1.335225 -3.443554 0
M  V30 17 N -4.318309 -1.559539 -3.934871 0
M  V30 18 C -4.644475 -2.036471 -5.285575 0
M  V30 19 C -5.255385 -1.275571 -2.982810 0
M  V30 20 C -6.632568 -1.361698 -3.054265 0
M  V30 21 C -7.392677 -1.019140 -1.954140 0
M  V30 22 C -6.725746 -0.601554 -0.821523 0
M  V30 23 C -5.352465 -0.509940 -0.733542 0
M  V30 24 C -4.602129 -0.852501 -1.832382 0
M  V30 25 O 1.705031 -1.683105 -1.508549 0
M  V30 26 C 2.245575 -2.356147 -0.387931 0
M  V30 27 O 2.518158 -3.604255 -0.328589 0
M  V30 28 C 1.685904 -0.526823 3.984080 0
M  V30 29 C 1.524267 -1.669859 4.931216 0
M  V30 30 C 1.193524 -2.998339 4.358267 0
M  V30 31 H 4.848713 1.649601 2.982651 0
M  V30 32 H 4.653887 2.556982 4.536914 0
M  V30 33 H 3.233483 2.014525 3.629212 0
M  V30 34 H 5.285828 0.310549 5.131414 0
M  V30 35 H 3.506761 0.367246 5.438727 0
M  V30 36 H 4.174859 -1.706091 4.202309 0
M  V30 37 H 4.912839 -0.677834 2.903706 0
M  V30 38 H 2.799629 0.394304 2.471952 0
M  V30 39 H 2.532346 -2.720910 2.180037 0
M  V30 40 H 2.243508 0.782973 0.603154 0
M  V30 41 H 3.494190 -0.033929 -0.482467 0
M  V30 42 H 1.022303 0.162832 -3.101513 0
M  V30 43 H 1.373603 1.591443 -2.133899 0
M  V30 44 H 3.091650 -0.433183 -3.162293 0
M  V30 45 H -0.040978 0.840774 -0.138982 0
M  V30 46 H 0.031817 -0.836582 0.409728 0
M  V30 47 H -2.139266 -1.474050 -3.970075 0
M  V30 48 H -5.525916 -1.484603 -5.668442 0
M  V30 49 H -4.783765 -3.122955 -5.265663 0
M  V30 50 H -3.775217 -1.799574 -5.933320 0
M  V30 51 H -7.179244 -1.686125 -3.930351 0
M  V30 52 H -8.464448 -1.037028 -1.866219 0
M  V30 53 H -7.259771 -0.316602 0.080713 0
M  V30 54 H -4.855636 -0.182687 0.157456 0
M  V30 55 H 0.720186 -0.525513 3.368489 0
M  V30 56 H 1.672359 0.458502 4.522153 0
M  V30 57 H 0.687192 -1.407925 5.647719 0
M  V30 58 H 2.411812 -1.751323 5.623441 0
M  V30 59 H 0.512318 -3.588761 5.073387 0
M  V30 60 H 2.032630 -3.692391 4.209669 0
M  V30 61 H 0.597466 -2.897704 3.423721 0
M  V30 END ATOM
M  V30 BEGIN BOND
M  V30 1 1 1 2
M  V30 2 1 2 3
M  V30 3 1 3 4
M  V30 4 1 4 5
M  V30 5 2 5 6
M  V30 6 1 6 7
M  V30 7 1 7 8
M  V30 8 1 8 9
M  V30 9 1 9 10
M  V30 10 1 8 11
M  V30 11 1 11 12
M  V30 12 1 12 13
M  V30 13 2 13 14
M  V30 14 1 13 15
M  V30 15 2 15 16
M  V30 16 1 16 17
M  V30 17 1 17 18
M  V30 18 1 17 19
M  V30 19 2 19 20
M  V30 20 1 20 21
M  V30 21 2 21 22
M  V30 22 1 22 23
M  V30 23 2 23 24
M  V30 24 1 8 25
M  V30 25 1 25 26
M  V30 26 2 26 27
M  V30 27 1 4 28
M  V30 28 1 28 29
M  V30 29 1 29 30
M  V30 30 1 26 6
M  V30 31 1 24 15
M  V30 32 1 24 19
M  V30 33 1 1 31
M  V30 34 1 1 32
M  V30 35 1 1 33
M  V30 36 1 2 34
M  V30 37 1 2 35
M  V30 38 1 3 36
M  V30 39 1 3 37
M  V30 40 1 4 38
M  V30 41 1 5 39
M  V30 42 1 7 40
M  V30 43 1 7 41
M  V30 44 1 9 42
M  V30 45 1 9 43
M  V30 46 1 10 44
M  V30 47 1 11 45
M  V30 48 1 11 46
M  V30 49 1 16 47
M  V30 50 1 18 48
M  V30 51 1 18 49
M  V30 52 1 18 50
M  V30 53 1 20 51
M  V30 54 1 21 52
M  V30 55 1 22 53
M  V30 56 1 23 54
M  V30 57 1 28 55
M  V30 58 1 28 56
M  V30 59 1 29 57
M  V30 60 1 29 58
M  V30 61 1 30 59
M  V30 62 1 30 60
M  V30 63 1 30 61
M  V30 END BOND
M  V30 END CTAB
M  END
>  <Dataset>  (740) 
ChEMBL_Kinases

>  <Ligand_Instance>  (740) 
nan

>  <PDB_ID>  (740) 
nan

>  <Standardized_SMILES>  (740) 
CCCC(/C=C1\CC(CO)(COC(=O)c2cn(C)c3ccccc23)OC1=O)CCC

>  <Name>  (740) 
nan

>  <Pocket>  (740) 
nan

>  <ATP_Site>  (740) 
nan

>  <Peripheral>  (740) 
nan

>  <Num_H_Atoms_ProtBoundConf>  (740) 
nan

>  <Num_Resolved_Atoms>  (740) 
nan

>  <Num_Not_Resolved_Atoms>  (740) 
nan

$$$$
CHEMBL3660058
     RDKit          3D

  0  0  0  0  0  0  0  0  0  0999 V3000
M  V30 BEGIN CTAB
M  V30 COUNTS 45 49 0 0 0
M  V30 BEGIN ATOM
M  V30 1 C -3.523572 -3.040418 -0.312768 0
M  V30 2 C -2.155467 -2.946504 -0.466232 0
M  V30 3 C -1.440437 -1.970997 0.177061 0
M  V30 4 O -0.064933 -1.801798 0.081168 0
M  V30 5 C 0.740440 -2.638590 -0.705836 0
M  V30 6 C 2.202115 -2.258573 -0.651367 0 CFG=2
M  V30 7 C 2.352069 -0.931857 -1.375107 0
M  V30 8 C 3.821731 -0.936562 -1.738700 0
M  V30 9 C 4.218109 -2.382771 -1.718230 0
M  V30 10 N 2.990205 -3.136653 -1.467718 0
M  V30 11 C -2.168217 -1.090879 0.985047 0
M  V30 12 N -1.493212 -0.129517 1.623918 0
M  V30 13 C -2.044568 0.792729 2.435551 0
M  V30 14 C -1.241309 1.820447 3.104965 0
M  V30 15 N -1.703030 2.792191 3.940391 0
M  V30 16 N -0.665754 3.527083 4.342315 0
M  V30 17 C 0.466065 3.040915 3.774993 0
M  V30 18 C 1.801158 3.403960 3.837151 0
M  V30 19 C 2.779060 2.718635 3.139820 0
M  V30 20 C 2.394940 1.629874 2.353254 0
M  V30 21 C 1.040308 1.313267 2.330601 0
M  V30 22 N 0.090899 1.977177 3.006482 0
M  V30 23 C -3.409124 0.772622 2.646065 0
M  V30 24 C -4.126124 -0.213655 1.994697 0
M  V30 25 C -3.527852 -1.146402 1.167086 0
M  V30 26 C -4.213247 -2.139944 0.504799 0
M  V30 27 H -4.085896 -3.825654 -0.832789 0
M  V30 28 H -1.620362 -3.640179 -1.096660 0
M  V30 29 H 0.377242 -2.534259 -1.746843 0
M  V30 30 H 0.602903 -3.684759 -0.358348 0
M  V30 31 H 2.592890 -2.163987 0.356057 0
M  V30 32 H 2.113464 -0.077250 -0.741752 0
M  V30 33 H 1.764248 -0.998393 -2.306321 0
M  V30 34 H 4.369438 -0.359699 -0.966298 0
M  V30 35 H 4.013428 -0.452453 -2.704517 0
M  V30 36 H 4.622892 -2.652148 -2.716156 0
M  V30 37 H 4.976031 -2.581213 -0.931354 0
M  V30 38 H 2.538449 -3.213032 -2.422540 0
M  V30 39 H 2.083821 4.249884 4.450895 0
M  V30 40 H 3.822426 2.998244 3.185186 0
M  V30 41 H 3.133304 1.076726 1.798862 0
M  V30 42 H 0.811736 0.460676 1.702683 0
M  V30 43 H -3.922523 1.483420 3.286280 0
M  V30 44 H -5.200771 -0.277946 2.122639 0
M  V30 45 H -5.284142 -2.204763 0.631716 0
M  V30 END ATOM
M  V30 BEGIN BOND
M  V30 1 2 1 2
M  V30 2 1 2 3
M  V30 3 1 3 4
M  V30 4 1 4 5
M  V30 5 1 5 6
M  V30 6 1 6 7
M  V30 7 1 7 8
M  V30 8 1 8 9
M  V30 9 1 9 10
M  V30 10 2 3 11
M  V30 11 1 11 12
M  V30 12 2 12 13
M  V30 13 1 13 14
M  V30 14 2 14 15
M  V30 15 1 15 16
M  V30 16 2 16 17
M  V30 17 1 17 18
M  V30 18 2 18 19
M  V30 19 1 19 20
M  V30 20 2 20 21
M  V30 21 1 21 22
M  V30 22 1 13 23
M  V30 23 2 23 24
M  V30 24 1 24 25
M  V30 25 2 25 26
M  V30 26 1 26 1
M  V30 27 1 10 6
M  V30 28 1 25 11
M  V30 29 1 22 14
M  V30 30 1 22 17
M  V30 31 1 1 27
M  V30 32 1 2 28
M  V30 33 1 5 29
M  V30 34 1 5 30
M  V30 35 1 6 31 CFG=1
M  V30 36 1 7 32
M  V30 37 1 7 33
M  V30 38 1 8 34
M  V30 39 1 8 35
M  V30 40 1 9 36
M  V30 41 1 9 37
M  V30 42 1 10 38
M  V30 43 1 18 39
M  V30 44 1 19 40
M  V30 45 1 20 41
M  V30 46 1 21 42
M  V30 47 1 23 43
M  V30 48 1 24 44
M  V30 49 1 26 45
M  V30 END BOND
M  V30 END CTAB
M  END
>  <Dataset>  (741) 
ChEMBL_Kinases

>  <Ligand_Instance>  (741) 
nan

>  <PDB_ID>  (741) 
nan

>  <Standardized_SMILES>  (741) 
c1cc(OC[C@@H]2CCCN2)c2nc(-c3nnc4ccccn34)ccc2c1

>  <Name>  (741) 
nan

>  <Pocket>  (741) 
nan

>  <ATP_Site>  (741) 
nan

>  <Peripheral>  (741) 
nan

>  <Num_H_Atoms_ProtBoundConf>  (741) 
nan

>  <Num_Resolved_Atoms>  (741) 
nan

>  <Num_Not_Resolved_Atoms>  (741) 
nan

$$$$
CHEMBL4081470
     RDKit          3D

  0  0  0  0  0  0  0  0  0  0999 V3000
M  V30 BEGIN CTAB
M  V30 COUNTS 44 48 0 0 0
M  V30 BEGIN ATOM
M  V30 1 C 2.275015 -1.328259 1.646790 0
M  V30 2 C 1.585907 0.011283 1.662733 0 CFG=1
M  V30 3 C 2.308511 0.928271 2.660785 0
M  V30 4 C 1.651904 1.976861 3.270626 0
M  V30 5 C 2.363514 2.777155 4.170606 0
M  V30 6 C 3.703333 2.508963 4.434537 0
M  V30 7 F 4.348203 3.316633 5.316932 0
M  V30 8 C 4.292978 1.441304 3.785306 0
M  V30 9 C 3.620145 0.634096 2.893617 0
M  V30 10 N 1.758408 0.613264 0.379495 0
M  V30 11 N 2.750223 1.465138 0.133427 0
M  V30 12 N 2.748770 1.917438 -1.102366 0
M  V30 13 C 1.723510 1.358842 -1.726178 0
M  V30 14 C 1.307080 1.514345 -3.021915 0
M  V30 15 N 0.212446 0.808222 -3.390822 0
M  V30 16 C -0.416226 -0.000237 -2.505769 0
M  V30 17 C -1.518367 -0.682596 -2.966320 0
M  V30 18 C -2.150199 -1.506091 -2.058506 0
M  V30 19 C -1.723713 -1.665046 -0.733633 0
M  V30 20 C -2.525162 -2.590545 0.091528 0
M  V30 21 C -2.635607 -2.348776 1.453806 0
M  V30 22 C -3.386024 -3.222036 2.213303 0
M  V30 23 N -4.003174 -4.290452 1.655521 0
M  V30 24 C -3.880087 -4.504961 0.322929 0
M  V30 25 C -3.137533 -3.666496 -0.515207 0
M  V30 26 C -0.607849 -0.948737 -0.335947 0
M  V30 27 C 0.031486 -0.126951 -1.222850 0
M  V30 28 C 1.116462 0.543903 -0.776591 0
M  V30 29 H 1.679908 -2.088688 1.120119 0
M  V30 30 H 2.523826 -1.718364 2.627511 0
M  V30 31 H 3.245260 -1.259202 1.069731 0
M  V30 32 H 0.617850 -0.058879 2.105483 0
M  V30 33 H 0.627122 2.097003 3.000365 0
M  V30 34 H 1.812640 3.599928 4.636208 0
M  V30 35 H 5.328194 1.299772 4.042391 0
M  V30 36 H 4.217868 -0.158981 2.468833 0
M  V30 37 H 1.829261 2.168879 -3.710261 0
M  V30 38 H -1.843432 -0.561287 -3.976561 0
M  V30 39 H -3.014756 -2.036850 -2.431749 0
M  V30 40 H -2.125510 -1.479283 1.868997 0
M  V30 41 H -3.422704 -2.959385 3.279877 0
M  V30 42 H -4.400548 -5.381942 -0.065809 0
M  V30 43 H -3.072339 -3.884844 -1.573588 0
M  V30 44 H -0.418708 -1.183229 0.680204 0
M  V30 END ATOM
M  V30 BEGIN BOND
M  V30 1 1 1 2
M  V30 2 1 2 3
M  V30 3 2 3 4
M  V30 4 1 4 5
M  V30 5 2 5 6
M  V30 6 1 6 7
M  V30 7 1 6 8
M  V30 8 2 8 9
M  V30 9 1 2 10
M  V30 10 1 10 11
M  V30 11 2 11 12
M  V30 12 1 12 13
M  V30 13 2 13 14
M  V30 14 1 14 15
M  V30 15 2 15 16
M  V30 16 1 16 17
M  V30 17 2 17 18
M  V30 18 1 18 19
M  V30 19 1 19 20
M  V30 20 2 20 21
M  V30 21 1 21 22
M  V30 22 2 22 23
M  V30 23 1 23 24
M  V30 24 2 24 25
M  V30 25 2 19 26
M  V30 26 1 26 27
M  V30 27 2 27 28
M  V30 28 1 9 3
M  V30 29 1 28 10
M  V30 30 1 28 13
M  V30 31 1 27 16
M  V30 32 1 25 20
M  V30 33 1 1 29
M  V30 34 1 1 30
M  V30 35 1 1 31
M  V30 36 1 2 32 CFG=1
M  V30 37 1 4 33
M  V30 38 1 5 34
M  V30 39 1 8 35
M  V30 40 1 9 36
M  V30 41 1 14 37
M  V30 42 1 17 38
M  V30 43 1 18 39
M  V30 44 1 21 40
M  V30 45 1 22 41
M  V30 46 1 24 42
M  V30 47 1 25 43
M  V30 48 1 26 44
M  V30 END BOND
M  V30 END CTAB
M  END
>  <Dataset>  (742) 
ChEMBL_Kinases

>  <Ligand_Instance>  (742) 
nan

>  <PDB_ID>  (742) 
nan

>  <Standardized_SMILES>  (742) 
C[C@@H](c1ccc(F)cc1)n1nnc2cnc3ccc(-c4ccncc4)cc3c21

>  <Name>  (742) 
nan

>  <Pocket>  (742) 
nan

>  <ATP_Site>  (742) 
nan

>  <Peripheral>  (742) 
nan

>  <Num_H_Atoms_ProtBoundConf>  (742) 
nan

>  <Num_Resolved_Atoms>  (742) 
nan

>  <Num_Not_Resolved_Atoms>  (742) 
nan

$$$$
CHEMBL4081464
     RDKit          3D

  0  0  0  0  0  0  0  0  0  0999 V3000
M  V30 BEGIN CTAB
M  V30 COUNTS 51 55 0 0 0
M  V30 BEGIN ATOM
M  V30 1 C 0.688337 -1.787387 4.609713 0
M  V30 2 C 0.364623 -3.192164 4.141537 0 CFG=2
M  V30 3 C 1.078994 -3.491570 2.853108 0
M  V30 4 N 0.368572 -3.025566 1.687816 0
M  V30 5 C 1.010334 -2.253461 0.676612 0
M  V30 6 O 2.227667 -2.034074 0.911294 0
M  V30 7 C 0.222487 -1.819220 -0.471477 0
M  V30 8 N 0.144498 -0.496026 -0.677817 0
M  V30 9 C -0.535493 0.070687 -1.681640 0
M  V30 10 N -0.613590 1.468511 -1.895059 0
M  V30 11 C 0.029545 2.425620 -1.066460 0
M  V30 12 C 0.808637 2.165790 0.039736 0
M  V30 13 C 1.273345 3.358486 0.601613 0
M  V30 14 C 2.130296 3.579248 1.780820 0
M  V30 15 C 2.072810 2.603113 2.923492 0
M  V30 16 C 3.252772 2.600577 2.017601 0
M  V30 17 N 0.757463 4.313894 -0.187930 0
M  V30 18 N 0.041061 3.764067 -1.147804 0
M  V30 19 C -1.182325 -0.791793 -2.535066 0
M  V30 20 C -1.926942 -0.387470 -3.618706 0
M  V30 21 C -2.592130 -1.214520 -4.500725 0
M  V30 22 C -2.504460 -2.587831 -4.277142 0
M  V30 23 Cl -3.307759 -3.730845 -5.332950 0
M  V30 24 C -1.775618 -3.055373 -3.211358 0
M  V30 25 C -1.138142 -2.165377 -2.373117 0
M  V30 26 N -0.417497 -2.645767 -1.317965 0
M  V30 27 C -1.021308 -3.438424 1.699197 0
M  V30 28 C -1.665554 -2.789994 2.907507 0
M  V30 29 N -1.040723 -3.314893 4.063607 0
M  V30 30 H 1.343737 -1.803809 5.509878 0
M  V30 31 H -0.247431 -1.193159 4.826252 0
M  V30 32 H 1.262176 -1.275550 3.810891 0
M  V30 33 H 0.748867 -3.896792 4.908344 0
M  V30 34 H 2.055725 -2.962331 2.881571 0
M  V30 35 H 1.309743 -4.568893 2.718865 0
M  V30 36 H -1.137502 1.914668 -2.661229 0
M  V30 37 H 1.102652 1.255250 0.516266 0
M  V30 38 H 2.365392 4.634517 2.033467 0
M  V30 39 H 1.359765 1.758019 2.798133 0
M  V30 40 H 2.173417 2.988020 3.961817 0
M  V30 41 H 3.341127 1.796578 1.259128 0
M  V30 42 H 4.194391 2.995864 2.459713 0
M  V30 43 H 0.901098 5.355131 -0.062915 0
M  V30 44 H -2.031257 0.649676 -3.841207 0
M  V30 45 H -3.162882 -0.845503 -5.336302 0
M  V30 46 H -1.711440 -4.118491 -3.043201 0
M  V30 47 H -1.037805 -4.540340 1.879087 0
M  V30 48 H -1.547525 -3.183082 0.760067 0
M  V30 49 H -2.744005 -2.953138 2.979202 0
M  V30 50 H -1.461544 -1.682581 2.885149 0
M  V30 51 H -1.578893 -3.579001 4.863248 0
M  V30 END ATOM
M  V30 BEGIN BOND
M  V30 1 1 1 2
M  V30 2 1 2 3
M  V30 3 1 3 4
M  V30 4 1 4 5
M  V30 5 2 5 6
M  V30 6 1 5 7
M  V30 7 2 7 8
M  V30 8 1 8 9
M  V30 9 1 9 10
M  V30 10 1 10 11
M  V30 11 1 11 12
M  V30 12 2 12 13
M  V30 13 1 13 14
M  V30 14 1 14 15
M  V30 15 1 15 16
M  V30 16 1 13 17
M  V30 17 1 17 18
M  V30 18 2 9 19
M  V30 19 1 19 20
M  V30 20 2 20 21
M  V30 21 1 21 22
M  V30 22 1 22 23
M  V30 23 2 22 24
M  V30 24 1 24 25
M  V30 25 2 25 26
M  V30 26 1 4 27
M  V30 27 1 27 28
M  V30 28 1 28 29
M  V30 29 1 29 2
M  V30 30 1 26 7
M  V30 31 2 18 11
M  V30 32 1 25 19
M  V30 33 1 16 14
M  V30 34 1 1 30
M  V30 35 1 1 31
M  V30 36 1 1 32
M  V30 37 1 2 33 CFG=1
M  V30 38 1 3 34
M  V30 39 1 3 35
M  V30 40 1 10 36
M  V30 41 1 12 37
M  V30 42 1 14 38
M  V30 43 1 15 39
M  V30 44 1 15 40
M  V30 45 1 16 41
M  V30 46 1 16 42
M  V30 47 1 17 43
M  V30 48 1 20 44
M  V30 49 1 21 45
M  V30 50 1 24 46
M  V30 51 1 27 47
M  V30 52 1 27 48
M  V30 53 1 28 49
M  V30 54 1 28 50
M  V30 55 1 29 51
M  V30 END BOND
M  V30 END CTAB
M  END
>  <Dataset>  (743) 
ChEMBL_Kinases

>  <Ligand_Instance>  (743) 
nan

>  <PDB_ID>  (743) 
nan

>  <Standardized_SMILES>  (743) 
C[C@@H]1CN(C(=O)c2nc(Nc3cc(C4CC4)[nH]n3)c3ccc(Cl)cc3n2)CCN1

>  <Name>  (743) 
nan

>  <Pocket>  (743) 
nan

>  <ATP_Site>  (743) 
nan

>  <Peripheral>  (743) 
nan

>  <Num_H_Atoms_ProtBoundConf>  (743) 
nan

>  <Num_Resolved_Atoms>  (743) 
nan

>  <Num_Not_Resolved_Atoms>  (743) 
nan

$$$$
CHEMBL4081217
     RDKit          3D

  0  0  0  0  0  0  0  0  0  0999 V3000
M  V30 BEGIN CTAB
M  V30 COUNTS 50 53 0 0 0
M  V30 BEGIN ATOM
M  V30 1 O 1.042852 -1.437670 0.606913 0
M  V30 2 C 1.399408 -1.108295 1.783147 0
M  V30 3 N 2.000139 -2.090443 2.567494 0
M  V30 4 C 2.290278 -3.469059 2.242030 0
M  V30 5 C 3.486075 -3.483933 1.362131 0
M  V30 6 C 3.482935 -3.450266 0.002125 0
M  V30 7 C 4.591191 -3.460174 -0.804584 0
M  V30 8 C 5.840932 -3.508989 -0.191652 0
M  V30 9 C 5.910043 -3.545412 1.200761 0
M  V30 10 C 4.750353 -3.532575 1.947723 0
M  V30 11 C 1.156572 0.258942 2.222602 0
M  V30 12 C 1.491041 0.733857 3.471000 0
M  V30 13 C 1.229699 2.038925 3.825528 0
M  V30 14 C 0.628336 2.917224 2.956064 0
M  V30 15 C 0.266419 2.486953 1.672197 0
M  V30 16 N -0.353771 3.379110 0.764141 0
M  V30 17 C -0.824110 3.182004 -0.589432 0
M  V30 18 C -1.908115 2.190752 -0.710106 0
M  V30 19 C -3.208095 2.686576 -0.558140 0
M  V30 20 N -4.119924 1.705929 -0.692694 0
M  V30 21 C -3.421448 0.583162 -0.929990 0
M  V30 22 C -3.965988 -0.744586 -1.145907 0
M  V30 23 C -5.334642 -0.943128 -1.114259 0
M  V30 24 C -5.840942 -2.212653 -1.324016 0
M  V30 25 N -5.036751 -3.284388 -1.562309 0
M  V30 26 C -3.699175 -3.089502 -1.592968 0
M  V30 27 C -3.141953 -1.827957 -1.387435 0
M  V30 28 N -2.114114 0.882943 -0.938020 0
M  V30 29 C 0.556169 1.171374 1.382127 0
M  V30 30 H 2.281616 -1.791696 3.525025 0
M  V30 31 H 1.469870 -3.925364 1.632459 0
M  V30 32 H 2.513046 -4.071307 3.141442 0
M  V30 33 H 2.547055 -3.416297 -0.512453 0
M  V30 34 H 4.512311 -3.431084 -1.894750 0
M  V30 35 H 6.714254 -3.517085 -0.837600 0
M  V30 36 H 6.911717 -3.581503 1.556633 0
M  V30 37 H 4.873372 -3.562145 3.020330 0
M  V30 38 H 1.964928 0.086382 4.191122 0
M  V30 39 H 1.479863 2.454356 4.806268 0
M  V30 40 H 0.423461 3.941602 3.233108 0
M  V30 41 H -0.508186 4.369383 1.125301 0
M  V30 42 H 0.064220 2.721491 -1.128201 0
M  V30 43 H -1.045800 4.127807 -1.100970 0
M  V30 44 H -3.608160 3.680466 -0.358119 0
M  V30 45 H -5.161010 1.705211 -0.643028 0
M  V30 46 H -6.045596 -0.151975 -0.932185 0
M  V30 47 H -6.893199 -2.496353 -1.323807 0
M  V30 48 H -2.986586 -3.907046 -1.779450 0
M  V30 49 H -2.056180 -1.714632 -1.421221 0
M  V30 50 H 0.297113 0.809631 0.404889 0
M  V30 END ATOM
M  V30 BEGIN BOND
M  V30 1 2 1 2
M  V30 2 1 2 3
M  V30 3 1 3 4
M  V30 4 1 4 5
M  V30 5 2 5 6
M  V30 6 1 6 7
M  V30 7 2 7 8
M  V30 8 1 8 9
M  V30 9 2 9 10
M  V30 10 1 2 11
M  V30 11 2 11 12
M  V30 12 1 12 13
M  V30 13 2 13 14
M  V30 14 1 14 15
M  V30 15 1 15 16
M  V30 16 1 16 17
M  V30 17 1 17 18
M  V30 18 2 18 19
M  V30 19 1 19 20
M  V30 20 1 20 21
M  V30 21 1 21 22
M  V30 22 2 22 23
M  V30 23 1 23 24
M  V30 24 2 24 25
M  V30 25 1 25 26
M  V30 26 2 26 27
M  V30 27 2 21 28
M  V30 28 2 15 29
M  V30 29 1 10 5
M  V30 30 1 29 11
M  V30 31 1 28 18
M  V30 32 1 27 22
M  V30 33 1 3 30
M  V30 34 1 4 31
M  V30 35 1 4 32
M  V30 36 1 6 33
M  V30 37 1 7 34
M  V30 38 1 8 35
M  V30 39 1 9 36
M  V30 40 1 10 37
M  V30 41 1 12 38
M  V30 42 1 13 39
M  V30 43 1 14 40
M  V30 44 1 16 41
M  V30 45 1 17 42
M  V30 46 1 17 43
M  V30 47 1 19 44
M  V30 48 1 20 45
M  V30 49 1 23 46
M  V30 50 1 24 47
M  V30 51 1 26 48
M  V30 52 1 27 49
M  V30 53 1 29 50
M  V30 END BOND
M  V30 END CTAB
M  END
>  <Dataset>  (744) 
ChEMBL_Kinases

>  <Ligand_Instance>  (744) 
nan

>  <PDB_ID>  (744) 
nan

>  <Standardized_SMILES>  (744) 
O=C(NCc1ccccc1)c1cccc(NCc2c[nH]c(-c3ccncc3)n2)c1

>  <Name>  (744) 
nan

>  <Pocket>  (744) 
nan

>  <ATP_Site>  (744) 
nan

>  <Peripheral>  (744) 
nan

>  <Num_H_Atoms_ProtBoundConf>  (744) 
nan

>  <Num_Resolved_Atoms>  (744) 
nan

>  <Num_Not_Resolved_Atoms>  (744) 
nan

$$$$
CHEMBL3660056
     RDKit          3D

  0  0  0  0  0  0  0  0  0  0999 V3000
M  V30 BEGIN CTAB
M  V30 COUNTS 45 49 0 0 0
M  V30 BEGIN ATOM
M  V30 1 F 1.489469 -4.205891 2.719930 0
M  V30 2 C 1.346395 -4.387010 1.365776 0
M  V30 3 C 1.598847 -5.654263 0.864472 0
M  V30 4 C 1.444758 -5.791885 -0.490462 0
M  V30 5 C 1.066521 -4.735790 -1.274003 0
M  V30 6 N 0.861540 -4.619215 -2.577636 0
M  V30 7 N 0.517102 -3.395511 -2.835453 0
M  V30 8 C 0.472571 -2.628322 -1.721192 0
M  V30 9 C 0.136322 -1.218725 -1.663227 0
M  V30 10 C -0.078537 -0.623303 -2.914184 0
M  V30 11 C -0.382723 0.692704 -3.140101 0
M  V30 12 C -0.491507 1.520136 -2.049910 0
M  V30 13 C -0.787987 2.848362 -2.248190 0
M  V30 14 C -0.883836 3.655719 -1.151805 0
M  V30 15 C -0.676293 3.083690 0.095973 0
M  V30 16 C -0.375318 1.728639 0.284998 0
M  V30 17 O -0.230230 1.455464 1.577400 0
M  V30 18 C 0.001623 0.367505 2.360593 0
M  V30 19 C -1.115044 0.229311 3.384344 0
M  V30 20 C -0.943566 1.187166 4.541779 0
M  V30 21 N 0.341055 0.978816 5.181705 0
M  V30 22 C 1.443291 1.172303 4.269824 0
M  V30 23 C 1.348736 0.336320 3.038130 0
M  V30 24 F 2.331677 0.716573 2.168225 0
M  V30 25 C -0.281818 0.934500 -0.827244 0
M  V30 26 N 0.020927 -0.381209 -0.627476 0
M  V30 27 N 0.821291 -3.508199 -0.789914 0
M  V30 28 C 0.972185 -3.381414 0.518822 0
M  V30 29 H 1.893007 -6.445884 1.529044 0
M  V30 30 H 1.625255 -6.756770 -0.957219 0
M  V30 31 H -0.017251 -1.191678 -3.860221 0
M  V30 32 H -0.539559 1.109485 -4.119420 0
M  V30 33 H -0.937331 3.219109 -3.263986 0
M  V30 34 H -1.116052 4.694148 -1.321135 0
M  V30 35 H -0.777168 3.816389 0.889460 0
M  V30 36 H -0.059780 -0.538949 1.740550 0
M  V30 37 H -2.059816 0.487525 2.853365 0
M  V30 38 H -1.173728 -0.828331 3.687472 0
M  V30 39 H -1.710670 0.916188 5.292175 0
M  V30 40 H -1.063249 2.206385 4.160763 0
M  V30 41 H 0.430606 1.729456 5.914908 0
M  V30 42 H 2.353536 0.804132 4.825227 0
M  V30 43 H 1.650724 2.208553 3.998293 0
M  V30 44 H 1.555120 -0.735789 3.301940 0
M  V30 45 H 0.807738 -2.443444 0.987757 0
M  V30 END ATOM
M  V30 BEGIN BOND
M  V30 1 1 1 2
M  V30 2 1 2 3
M  V30 3 2 3 4
M  V30 4 1 4 5
M  V30 5 2 5 6
M  V30 6 1 6 7
M  V30 7 2 7 8
M  V30 8 1 8 9
M  V30 9 2 9 10
M  V30 10 1 10 11
M  V30 11 2 11 12
M  V30 12 1 12 13
M  V30 13 2 13 14
M  V30 14 1 14 15
M  V30 15 2 15 16
M  V30 16 1 16 17
M  V30 17 1 17 18
M  V30 18 1 18 19
M  V30 19 1 19 20
M  V30 20 1 20 21
M  V30 21 1 21 22
M  V30 22 1 22 23
M  V30 23 1 23 24
M  V30 24 1 16 25
M  V30 25 2 25 26
M  V30 26 1 8 27
M  V30 27 1 27 28
M  V30 28 2 28 2
M  V30 29 1 27 5
M  V30 30 1 26 9
M  V30 31 1 25 12
M  V30 32 1 23 18
M  V30 33 1 3 29
M  V30 34 1 4 30
M  V30 35 1 10 31
M  V30 36 1 11 32
M  V30 37 1 13 33
M  V30 38 1 14 34
M  V30 39 1 15 35
M  V30 40 1 18 36
M  V30 41 1 19 37
M  V30 42 1 19 38
M  V30 43 1 20 39
M  V30 44 1 20 40
M  V30 45 1 21 41
M  V30 46 1 22 42
M  V30 47 1 22 43
M  V30 48 1 23 44
M  V30 49 1 28 45
M  V30 END BOND
M  V30 END CTAB
M  END
>  <Dataset>  (745) 
ChEMBL_Kinases

>  <Ligand_Instance>  (745) 
nan

>  <PDB_ID>  (745) 
nan

>  <Standardized_SMILES>  (745) 
Fc1ccc2nnc(-c3ccc4cccc(OC5CCNCC5F)c4n3)n2c1

>  <Name>  (745) 
nan

>  <Pocket>  (745) 
nan

>  <ATP_Site>  (745) 
nan

>  <Peripheral>  (745) 
nan

>  <Num_H_Atoms_ProtBoundConf>  (745) 
nan

>  <Num_Resolved_Atoms>  (745) 
nan

>  <Num_Not_Resolved_Atoms>  (745) 
nan

$$$$
CHEMBL3660053
     RDKit          3D

  0  0  0  0  0  0  0  0  0  0999 V3000
M  V30 BEGIN CTAB
M  V30 COUNTS 49 53 0 0 0
M  V30 BEGIN ATOM
M  V30 1 O 0.617613 -2.653888 3.754292 0
M  V30 2 C -0.323741 -2.192690 2.837759 0
M  V30 3 C -0.600045 -3.324266 1.889474 0 CFG=2
M  V30 4 C 0.628904 -3.869336 1.241237 0
M  V30 5 C 0.950350 -3.252535 -0.096342 0
M  V30 6 O 0.993846 -1.862039 -0.040121 0
M  V30 7 C 2.029805 -1.041396 -0.410714 0
M  V30 8 C 3.234716 -1.488877 -0.915505 0
M  V30 9 C 4.273824 -0.660812 -1.286988 0
M  V30 10 C 4.117913 0.701457 -1.153071 0
M  V30 11 C 2.902554 1.171980 -0.642900 0
M  V30 12 C 2.804738 2.561990 -0.530842 0
M  V30 13 C 1.586224 2.980494 -0.022231 0
M  V30 14 C 0.543349 2.161644 0.351245 0
M  V30 15 C -0.671767 2.774264 0.868537 0
M  V30 16 N -0.924705 4.081793 1.038434 0
M  V30 17 N -2.134106 4.267076 1.530805 0
M  V30 18 C -2.707216 3.055649 1.695606 0
M  V30 19 C -3.950492 2.702558 2.173059 0
M  V30 20 C -4.303850 1.354437 2.242938 0
M  V30 21 C -3.376492 0.402253 1.822678 0
M  V30 22 C -2.158605 0.856427 1.360673 0
M  V30 23 N -1.787911 2.149459 1.280973 0
M  V30 24 N 0.712426 0.838045 0.214211 0
M  V30 25 C 1.856914 0.320683 -0.270026 0
M  V30 26 C -0.198216 -3.618995 -1.043164 0
M  V30 27 C -1.467164 -3.855905 -0.279013 0
M  V30 28 N -1.576066 -2.963933 0.876208 0
M  V30 29 H 1.265456 -1.947842 4.021242 0
M  V30 30 H -1.243886 -1.941769 3.383247 0
M  V30 31 H 0.025841 -1.279009 2.308905 0
M  V30 32 H -1.050187 -4.144977 2.511415 0
M  V30 33 H 1.458983 -3.801450 1.957673 0
M  V30 34 H 0.458569 -4.961193 1.047044 0
M  V30 35 H 1.853625 -3.747258 -0.484216 0
M  V30 36 H 3.398125 -2.534501 -1.035763 0
M  V30 37 H 5.212316 -1.073809 -1.683543 0
M  V30 38 H 4.900859 1.394672 -1.429328 0
M  V30 39 H 3.582769 3.234052 -0.806245 0
M  V30 40 H 1.469128 4.065982 0.081548 0
M  V30 41 H -4.682922 3.427584 2.503541 0
M  V30 42 H -5.258104 0.991220 2.604530 0
M  V30 43 H -3.581065 -0.643171 1.849154 0
M  V30 44 H -1.416095 0.147807 1.026991 0
M  V30 45 H 0.012525 -4.493765 -1.659373 0
M  V30 46 H -0.392104 -2.761426 -1.750037 0
M  V30 47 H -1.608896 -4.919680 0.036139 0
M  V30 48 H -2.318643 -3.610583 -0.944194 0
M  V30 49 H -2.566191 -3.103872 1.219656 0
M  V30 END ATOM
M  V30 BEGIN BOND
M  V30 1 1 1 2
M  V30 2 1 2 3
M  V30 3 1 3 4
M  V30 4 1 4 5
M  V30 5 1 5 6
M  V30 6 1 6 7
M  V30 7 2 7 8
M  V30 8 1 8 9
M  V30 9 2 9 10
M  V30 10 1 10 11
M  V30 11 2 11 12
M  V30 12 1 12 13
M  V30 13 2 13 14
M  V30 14 1 14 15
M  V30 15 2 15 16
M  V30 16 1 16 17
M  V30 17 2 17 18
M  V30 18 1 18 19
M  V30 19 2 19 20
M  V30 20 1 20 21
M  V30 21 2 21 22
M  V30 22 1 22 23
M  V30 23 1 14 24
M  V30 24 2 24 25
M  V30 25 1 5 26
M  V30 26 1 26 27
M  V30 27 1 27 28
M  V30 28 1 28 3
M  V30 29 1 25 7
M  V30 30 1 25 11
M  V30 31 1 23 15
M  V30 32 1 23 18
M  V30 33 1 1 29
M  V30 34 1 2 30
M  V30 35 1 2 31
M  V30 36 1 3 32 CFG=1
M  V30 37 1 4 33
M  V30 38 1 4 34
M  V30 39 1 5 35
M  V30 40 1 8 36
M  V30 41 1 9 37
M  V30 42 1 10 38
M  V30 43 1 12 39
M  V30 44 1 13 40
M  V30 45 1 19 41
M  V30 46 1 20 42
M  V30 47 1 21 43
M  V30 48 1 22 44
M  V30 49 1 26 45
M  V30 50 1 26 46
M  V30 51 1 27 47
M  V30 52 1 27 48
M  V30 53 1 28 49
M  V30 END BOND
M  V30 END CTAB
M  END
>  <Dataset>  (746) 
ChEMBL_Kinases

>  <Ligand_Instance>  (746) 
nan

>  <PDB_ID>  (746) 
nan

>  <Standardized_SMILES>  (746) 
OC[C@@H]1CC(Oc2cccc3ccc(-c4nnc5ccccn45)nc23)CCN1

>  <Name>  (746) 
nan

>  <Pocket>  (746) 
nan

>  <ATP_Site>  (746) 
nan

>  <Peripheral>  (746) 
nan

>  <Num_H_Atoms_ProtBoundConf>  (746) 
nan

>  <Num_Resolved_Atoms>  (746) 
nan

>  <Num_Not_Resolved_Atoms>  (746) 
nan

$$$$
CHEMBL3660061
     RDKit          3D

  0  0  0  0  0  0  0  0  0  0999 V3000
M  V30 BEGIN CTAB
M  V30 COUNTS 54 58 0 0 0
M  V30 BEGIN ATOM
M  V30 1 C 2.101075 -2.850501 -0.002678 0
M  V30 2 C 2.421359 -2.426203 1.433745 0
M  V30 3 C 1.236932 -2.800464 2.281802 0
M  V30 4 C 3.657706 -3.185911 1.864530 0
M  V30 5 N 4.043151 -2.848905 3.223331 0
M  V30 6 C 2.664655 -0.950209 1.389484 0
M  V30 7 O 1.538614 -0.235090 0.920507 0
M  V30 8 C 1.570299 1.169126 0.804438 0
M  V30 9 C 2.743934 1.816489 1.165943 0
M  V30 10 C 2.892551 3.183127 1.094766 0
M  V30 11 C 1.819344 3.921714 0.643100 0
M  V30 12 C 0.664863 3.254916 0.290319 0
M  V30 13 C -0.391818 4.020858 -0.157562 0
M  V30 14 C -1.533408 3.330094 -0.503159 0
M  V30 15 C -1.730443 1.964340 -0.449265 0
M  V30 16 C -3.014553 1.409434 -0.855681 0
M  V30 17 N -4.068754 2.135989 -1.303456 0
M  V30 18 N -5.051957 1.296525 -1.573075 0
M  V30 19 C -4.653159 0.038931 -1.307753 0
M  V30 20 C -5.417315 -1.098050 -1.469085 0
M  V30 21 C -4.788038 -2.293216 -1.126327 0
M  V30 22 C -3.490023 -2.217086 -0.669590 0
M  V30 23 C -2.856829 -3.519863 -0.313608 0
M  V30 24 C -1.395749 -3.662619 -0.282848 0
M  V30 25 C -2.083987 -3.451904 1.021305 0
M  V30 26 C -2.772481 -1.032269 -0.529697 0
M  V30 27 N -3.385863 0.117023 -0.862259 0
M  V30 28 N -0.657343 1.272509 -0.002350 0
M  V30 29 C 0.487483 1.887605 0.351249 0
M  V30 30 H 1.487797 -3.768406 -0.024795 0
M  V30 31 H 1.524130 -2.043265 -0.495929 0
M  V30 32 H 3.063045 -2.990784 -0.576060 0
M  V30 33 H 1.045405 -3.876467 2.155284 0
M  V30 34 H 1.416500 -2.533809 3.350361 0
M  V30 35 H 0.380623 -2.190778 1.930579 0
M  V30 36 H 4.510552 -2.946815 1.225531 0
M  V30 37 H 3.379304 -4.266638 1.832520 0
M  V30 38 H 5.032893 -2.540721 3.298224 0
M  V30 39 H 3.398921 -2.172215 3.665087 0
M  V30 40 H 3.556944 -0.781359 0.746625 0
M  V30 41 H 2.851797 -0.593047 2.428369 0
M  V30 42 H 3.605108 1.242571 1.526636 0
M  V30 43 H 3.787207 3.725846 1.366030 0
M  V30 44 H 1.883994 5.003954 0.567604 0
M  V30 45 H -0.346711 5.097674 -0.239429 0
M  V30 46 H -2.359920 3.948018 -0.855149 0
M  V30 47 H -6.416229 -1.088881 -1.827217 0
M  V30 48 H -5.327269 -3.215894 -1.228371 0
M  V30 49 H -3.488668 -4.412362 -0.460825 0
M  V30 50 H -0.716112 -2.878640 -0.673963 0
M  V30 51 H -0.996463 -4.701611 -0.431215 0
M  V30 52 H -2.207983 -4.304439 1.722039 0
M  V30 53 H -1.959974 -2.480628 1.502980 0
M  V30 54 H -1.764177 -1.001148 -0.172340 0
M  V30 END ATOM
M  V30 BEGIN BOND
M  V30 1 1 1 2
M  V30 2 1 2 3
M  V30 3 1 2 4
M  V30 4 1 4 5
M  V30 5 1 2 6
M  V30 6 1 6 7
M  V30 7 1 7 8
M  V30 8 2 8 9
M  V30 9 1 9 10
M  V30 10 2 10 11
M  V30 11 1 11 12
M  V30 12 2 12 13
M  V30 13 1 13 14
M  V30 14 2 14 15
M  V30 15 1 15 16
M  V30 16 2 16 17
M  V30 17 1 17 18
M  V30 18 2 18 19
M  V30 19 1 19 20
M  V30 20 2 20 21
M  V30 21 1 21 22
M  V30 22 1 22 23
M  V30 23 1 23 24
M  V30 24 1 24 25
M  V30 25 2 22 26
M  V30 26 1 26 27
M  V30 27 1 15 28
M  V30 28 2 28 29
M  V30 29 1 29 8
M  V30 30 1 29 12
M  V30 31 1 27 16
M  V30 32 1 27 19
M  V30 33 1 25 23
M  V30 34 1 1 30
M  V30 35 1 1 31
M  V30 36 1 1 32
M  V30 37 1 3 33
M  V30 38 1 3 34
M  V30 39 1 3 35
M  V30 40 1 4 36
M  V30 41 1 4 37
M  V30 42 1 5 38
M  V30 43 1 5 39
M  V30 44 1 6 40
M  V30 45 1 6 41
M  V30 46 1 9 42
M  V30 47 1 10 43
M  V30 48 1 11 44
M  V30 49 1 13 45
M  V30 50 1 14 46
M  V30 51 1 20 47
M  V30 52 1 21 48
M  V30 53 1 23 49
M  V30 54 1 24 50
M  V30 55 1 24 51
M  V30 56 1 25 52
M  V30 57 1 25 53
M  V30 58 1 26 54
M  V30 END BOND
M  V30 END CTAB
M  END
>  <Dataset>  (747) 
ChEMBL_Kinases

>  <Ligand_Instance>  (747) 
nan

>  <PDB_ID>  (747) 
nan

>  <Standardized_SMILES>  (747) 
CC(C)(CN)COc1cccc2ccc(-c3nnc4ccc(C5CC5)cn34)nc12

>  <Name>  (747) 
nan

>  <Pocket>  (747) 
nan

>  <ATP_Site>  (747) 
nan

>  <Peripheral>  (747) 
nan

>  <Num_H_Atoms_ProtBoundConf>  (747) 
nan

>  <Num_Resolved_Atoms>  (747) 
nan

>  <Num_Not_Resolved_Atoms>  (747) 
nan

$$$$
CHEMBL4082713
     RDKit          3D

  0  0  0  0  0  0  0  0  0  0999 V3000
M  V30 BEGIN CTAB
M  V30 COUNTS 57 60 0 0 0
M  V30 BEGIN ATOM
M  V30 1 O 1.518052 -3.096971 2.184402 0
M  V30 2 C 0.537299 -3.606730 2.820726 0
M  V30 3 C 0.411020 -2.904138 4.131567 0
M  V30 4 N 1.456210 -1.900840 4.191515 0
M  V30 5 C 1.619018 -0.742586 3.384534 0
M  V30 6 C 2.710854 0.119745 3.515853 0
M  V30 7 C 2.818931 1.234053 2.716905 0
M  V30 8 C 1.888240 1.561903 1.767904 0
M  V30 9 C 0.802651 0.748764 1.603633 0
M  V30 10 C -0.174524 1.094901 0.604836 0
M  V30 11 O -1.215866 0.396142 0.564183 0
M  V30 12 N -0.030443 2.145327 -0.302836 0
M  V30 13 C -0.971037 2.556133 -1.327984 0
M  V30 14 C -2.053981 3.319359 -0.683388 0
M  V30 15 C -1.782723 4.682838 -0.585773 0
M  V30 16 C -2.671310 5.584217 -0.012996 0
M  V30 17 C -3.858159 5.075548 0.466936 0
M  V30 18 C -4.102062 3.726093 0.357968 0
M  V30 19 C -3.253249 2.799829 -0.199560 0
M  V30 20 C 0.706272 -0.363343 2.408382 0
M  V30 21 N -0.154342 -4.660793 2.162041 0
M  V30 22 N 0.526144 -4.794950 0.948262 0
M  V30 23 C 0.126646 -4.186843 -0.089789 0
M  V30 24 C -1.023457 -3.279058 -0.292941 0
M  V30 25 C -1.612747 -3.369825 -1.676638 0
M  V30 26 C -0.614029 -3.207759 -2.777196 0
M  V30 27 C 0.633015 -3.985704 -2.528326 0
M  V30 28 C 1.407856 -4.208977 -3.653420 0
M  V30 29 N 2.542472 -4.907040 -3.483652 0
M  V30 30 C 2.945933 -5.386508 -2.293555 0
M  V30 31 C 2.170265 -5.160679 -1.178750 0
M  V30 32 C 0.972545 -4.441594 -1.268340 0
M  V30 33 H -0.572383 -2.445885 4.287700 0
M  V30 34 H 0.576905 -3.624981 4.936008 0
M  V30 35 H 2.218819 -2.019413 4.925871 0
M  V30 36 H 3.466293 -0.132272 4.277197 0
M  V30 37 H 3.721540 1.825365 2.921907 0
M  V30 38 H 2.129845 2.451946 1.242193 0
M  V30 39 H 0.821085 2.716835 -0.274761 0
M  V30 40 H -1.435860 1.625159 -1.768781 0
M  V30 41 H -0.514881 3.121951 -2.136814 0
M  V30 42 H -0.869827 5.145912 -0.942477 0
M  V30 43 H -2.464004 6.638398 0.062872 0
M  V30 44 H -4.566269 5.765028 0.918947 0
M  V30 45 H -5.053390 3.362434 0.749715 0
M  V30 46 H -3.414114 1.760088 -0.297266 0
M  V30 47 H -0.179343 -0.967510 2.233498 0
M  V30 48 H -0.924345 -4.979323 2.789922 0
M  V30 49 H -0.787218 -2.237261 -0.002899 0
M  V30 50 H -1.826128 -3.600099 0.403415 0
M  V30 51 H -2.203402 -4.298508 -1.820153 0
M  V30 52 H -2.341497 -2.530302 -1.767680 0
M  V30 53 H -1.092103 -3.482629 -3.721549 0
M  V30 54 H -0.378815 -2.104219 -2.823985 0
M  V30 55 H 1.135677 -3.850400 -4.630847 0
M  V30 56 H 3.862042 -5.955467 -2.134371 0
M  V30 57 H 2.477896 -5.539111 -0.211073 0
M  V30 END ATOM
M  V30 BEGIN BOND
M  V30 1 2 1 2
M  V30 2 1 2 3
M  V30 3 1 3 4
M  V30 4 1 4 5
M  V30 5 2 5 6
M  V30 6 1 6 7
M  V30 7 2 7 8
M  V30 8 1 8 9
M  V30 9 1 9 10
M  V30 10 2 10 11
M  V30 11 1 10 12
M  V30 12 1 12 13
M  V30 13 1 13 14
M  V30 14 2 14 15
M  V30 15 1 15 16
M  V30 16 2 16 17
M  V30 17 1 17 18
M  V30 18 2 18 19
M  V30 19 2 9 20
M  V30 20 1 2 21
M  V30 21 1 21 22
M  V30 22 2 22 23
M  V30 23 1 23 24
M  V30 24 1 24 25
M  V30 25 1 25 26
M  V30 26 1 26 27
M  V30 27 2 27 28
M  V30 28 1 28 29
M  V30 29 2 29 30
M  V30 30 1 30 31
M  V30 31 2 31 32
M  V30 32 1 20 5
M  V30 33 1 32 23
M  V30 34 1 19 14
M  V30 35 1 32 27
M  V30 36 1 3 33
M  V30 37 1 3 34
M  V30 38 1 4 35
M  V30 39 1 6 36
M  V30 40 1 7 37
M  V30 41 1 8 38
M  V30 42 1 12 39
M  V30 43 1 13 40
M  V30 44 1 13 41
M  V30 45 1 15 42
M  V30 46 1 16 43
M  V30 47 1 17 44
M  V30 48 1 18 45
M  V30 49 1 19 46
M  V30 50 1 20 47
M  V30 51 1 21 48
M  V30 52 1 24 49
M  V30 53 1 24 50
M  V30 54 1 25 51
M  V30 55 1 25 52
M  V30 56 1 26 53
M  V30 57 1 26 54
M  V30 58 1 28 55
M  V30 59 1 30 56
M  V30 60 1 31 57
M  V30 END BOND
M  V30 END CTAB
M  END
>  <Dataset>  (748) 
ChEMBL_Kinases

>  <Ligand_Instance>  (748) 
nan

>  <PDB_ID>  (748) 
nan

>  <Standardized_SMILES>  (748) 
O=C(CNc1cccc(C(=O)NCc2ccccc2)c1)N/N=C1\CCCc2cnccc21

>  <Name>  (748) 
nan

>  <Pocket>  (748) 
nan

>  <ATP_Site>  (748) 
nan

>  <Peripheral>  (748) 
nan

>  <Num_H_Atoms_ProtBoundConf>  (748) 
nan

>  <Num_Resolved_Atoms>  (748) 
nan

>  <Num_Not_Resolved_Atoms>  (748) 
nan

$$$$
CHEMBL4082710
     RDKit          3D

  0  0  0  0  0  0  0  0  0  0999 V3000
M  V30 BEGIN CTAB
M  V30 COUNTS 48 52 0 0 0
M  V30 BEGIN ATOM
M  V30 1 C 1.228218 -0.376455 -3.146789 0
M  V30 2 C 0.831626 -0.261757 -1.644155 0 CFG=1
M  V30 3 C 1.719518 -1.267082 -0.986106 0
M  V30 4 C 3.062088 -0.981560 -1.260650 0
M  V30 5 C 4.094131 -1.775915 -0.770189 0
M  V30 6 C 3.829305 -2.882254 0.010548 0
M  V30 7 F 4.719443 -3.731137 0.547095 0
M  V30 8 C 2.499908 -3.149514 0.271496 0
M  V30 9 C 1.474112 -2.374704 -0.206043 0
M  V30 10 N 1.036956 1.073735 -1.220423 0
M  V30 11 N 1.826748 1.877402 -1.923938 0
M  V30 12 N 1.916139 3.087426 -1.403369 0
M  V30 13 C 1.156652 3.123548 -0.292819 0
M  V30 14 C 0.929192 4.149692 0.582525 0
M  V30 15 N 0.105972 3.856212 1.606816 0
M  V30 16 C -0.442915 2.622013 1.734608 0
M  V30 17 C -1.271360 2.414248 2.815424 0
M  V30 18 C -1.821689 1.155293 2.935324 0
M  V30 19 C -1.586985 0.105824 2.038155 0
M  V30 20 N -2.241492 -1.113750 2.332187 0
M  V30 21 C -2.950619 -1.283597 3.556510 0
M  V30 22 C -3.282121 -2.761692 3.702041 0
M  V30 23 O -2.226059 -3.597519 3.434205 0
M  V30 24 C -1.621306 -3.403294 2.209596 0
M  V30 25 C -2.258182 -2.259037 1.444655 0
M  V30 26 C -0.749074 0.380279 0.979658 0
M  V30 27 C -0.187787 1.617714 0.831388 0
M  V30 28 C 0.627869 1.852267 -0.214531 0
M  V30 29 H 2.162002 0.156231 -3.340777 0
M  V30 30 H 1.372953 -1.452971 -3.335901 0
M  V30 31 H 0.378831 -0.047882 -3.770730 0
M  V30 32 H -0.177869 -0.668349 -1.659964 0
M  V30 33 H 3.495242 -0.159839 -1.851843 0
M  V30 34 H 5.152157 -1.616035 -0.941517 0
M  V30 35 H 2.131213 -3.987525 0.872493 0
M  V30 36 H 0.423667 -2.527267 -0.049888 0
M  V30 37 H 1.393599 5.117027 0.433603 0
M  V30 38 H -1.457088 3.206248 3.505154 0
M  V30 39 H -2.466636 1.030672 3.792918 0
M  V30 40 H -3.925082 -0.757923 3.467209 0
M  V30 41 H -2.452559 -0.884098 4.449755 0
M  V30 42 H -3.539615 -2.913302 4.776437 0
M  V30 43 H -4.148678 -3.074610 3.091081 0
M  V30 44 H -1.609902 -4.323733 1.572591 0
M  V30 45 H -0.552511 -3.160920 2.380770 0
M  V30 46 H -3.329428 -2.593306 1.297070 0
M  V30 47 H -1.872340 -2.113079 0.452017 0
M  V30 48 H -0.652219 -0.492937 0.391027 0
M  V30 END ATOM
M  V30 BEGIN BOND
M  V30 1 1 1 2
M  V30 2 1 2 3
M  V30 3 2 3 4
M  V30 4 1 4 5
M  V30 5 2 5 6
M  V30 6 1 6 7
M  V30 7 1 6 8
M  V30 8 2 8 9
M  V30 9 1 2 10
M  V30 10 1 10 11
M  V30 11 2 11 12
M  V30 12 1 12 13
M  V30 13 2 13 14
M  V30 14 1 14 15
M  V30 15 2 15 16
M  V30 16 1 16 17
M  V30 17 2 17 18
M  V30 18 1 18 19
M  V30 19 1 19 20
M  V30 20 1 20 21
M  V30 21 1 21 22
M  V30 22 1 22 23
M  V30 23 1 23 24
M  V30 24 1 24 25
M  V30 25 2 19 26
M  V30 26 1 26 27
M  V30 27 2 27 28
M  V30 28 1 9 3
M  V30 29 1 28 10
M  V30 30 1 28 13
M  V30 31 1 27 16
M  V30 32 1 25 20
M  V30 33 1 1 29
M  V30 34 1 1 30
M  V30 35 1 1 31
M  V30 36 1 2 32 CFG=3
M  V30 37 1 4 33
M  V30 38 1 5 34
M  V30 39 1 8 35
M  V30 40 1 9 36
M  V30 41 1 14 37
M  V30 42 1 17 38
M  V30 43 1 18 39
M  V30 44 1 21 40
M  V30 45 1 21 41
M  V30 46 1 22 42
M  V30 47 1 22 43
M  V30 48 1 24 44
M  V30 49 1 24 45
M  V30 50 1 25 46
M  V30 51 1 25 47
M  V30 52 1 26 48
M  V30 END BOND
M  V30 END CTAB
M  END
>  <Dataset>  (749) 
ChEMBL_Kinases

>  <Ligand_Instance>  (749) 
nan

>  <PDB_ID>  (749) 
nan

>  <Standardized_SMILES>  (749) 
C[C@@H](c1ccc(F)cc1)n1nnc2cnc3ccc(N4CCOCC4)cc3c21

>  <Name>  (749) 
nan

>  <Pocket>  (749) 
nan

>  <ATP_Site>  (749) 
nan

>  <Peripheral>  (749) 
nan

>  <Num_H_Atoms_ProtBoundConf>  (749) 
nan

>  <Num_Resolved_Atoms>  (749) 
nan

>  <Num_Not_Resolved_Atoms>  (749) 
nan

$$$$
CHEMBL4082559
     RDKit          3D

  0  0  0  0  0  0  0  0  0  0999 V3000
M  V30 BEGIN CTAB
M  V30 COUNTS 44 46 0 0 0
M  V30 BEGIN ATOM
M  V30 1 C -0.784253 -6.176630 -1.083731 0
M  V30 2 O -0.499446 -4.782740 -1.196552 0
M  V30 3 C 0.800535 -4.345559 -1.406873 0
M  V30 4 C 1.830643 -5.248282 -1.509181 0
M  V30 5 C 3.105618 -4.773039 -1.717859 0
M  V30 6 C 3.320061 -3.414867 -1.818774 0
M  V30 7 C 2.306763 -2.465305 -1.721262 0
M  V30 8 N 2.569211 -1.073553 -1.833913 0
M  V30 9 C 1.531887 -0.066586 -1.727055 0
M  V30 10 C 0.941919 -0.180372 -0.365669 0
M  V30 11 O 1.014704 -0.820903 0.711559 0
M  V30 12 N -0.094078 0.789643 -0.200400 0
M  V30 13 N -0.862919 0.956384 0.974483 0
M  V30 14 C -0.606728 1.922556 1.794809 0
M  V30 15 C 0.529429 2.841797 1.441123 0
M  V30 16 C 0.739681 3.838082 2.568672 0
M  V30 17 C 0.602744 3.063255 3.883845 0
M  V30 18 C -0.812047 2.666330 4.103995 0
M  V30 19 C -1.552069 2.824881 5.259651 0
M  V30 20 N -2.826302 2.398301 5.261636 0
M  V30 21 C -3.413703 1.828840 4.203166 0
M  V30 22 C -2.728513 1.635330 3.000417 0
M  V30 23 C -1.417553 2.078300 3.010016 0
M  V30 24 C 1.049948 -2.993620 -1.512555 0
M  V30 25 H -0.383187 -6.526303 -0.122655 0
M  V30 26 H -1.867350 -6.365390 -1.122072 0
M  V30 27 H -0.245897 -6.742885 -1.892803 0
M  V30 28 H 1.694966 -6.317455 -1.434432 0
M  V30 29 H 3.954382 -5.469422 -1.804631 0
M  V30 30 H 4.344805 -3.082131 -1.983970 0
M  V30 31 H 3.555009 -0.789096 -1.999998 0
M  V30 32 H 0.789223 -0.296624 -2.517947 0
M  V30 33 H 1.958761 0.922014 -1.916969 0
M  V30 34 H -0.526057 1.545553 -0.800090 0
M  V30 35 H 0.306282 3.340394 0.489530 0
M  V30 36 H 1.474689 2.283034 1.326917 0
M  V30 37 H 0.017009 4.670768 2.543993 0
M  V30 38 H 1.761861 4.261416 2.528628 0
M  V30 39 H 1.003467 3.619953 4.747141 0
M  V30 40 H 1.229941 2.141695 3.736584 0
M  V30 41 H -1.033800 3.286180 6.076628 0
M  V30 42 H -4.451753 1.489106 4.226887 0
M  V30 43 H -3.132522 1.184299 2.103734 0
M  V30 44 H 0.202522 -2.328171 -1.426433 0
M  V30 END ATOM
M  V30 BEGIN BOND
M  V30 1 1 1 2
M  V30 2 1 2 3
M  V30 3 2 3 4
M  V30 4 1 4 5
M  V30 5 2 5 6
M  V30 6 1 6 7
M  V30 7 1 7 8
M  V30 8 1 8 9
M  V30 9 1 9 10
M  V30 10 2 10 11
M  V30 11 1 10 12
M  V30 12 1 12 13
M  V30 13 2 13 14
M  V30 14 1 14 15
M  V30 15 1 15 16
M  V30 16 1 16 17
M  V30 17 1 17 18
M  V30 18 2 18 19
M  V30 19 1 19 20
M  V30 20 2 20 21
M  V30 21 1 21 22
M  V30 22 2 22 23
M  V30 23 2 7 24
M  V30 24 1 24 3
M  V30 25 1 23 14
M  V30 26 1 23 18
M  V30 27 1 1 25
M  V30 28 1 1 26
M  V30 29 1 1 27
M  V30 30 1 4 28
M  V30 31 1 5 29
M  V30 32 1 6 30
M  V30 33 1 8 31
M  V30 34 1 9 32
M  V30 35 1 9 33
M  V30 36 1 12 34
M  V30 37 1 15 35
M  V30 38 1 15 36
M  V30 39 1 16 37
M  V30 40 1 16 38
M  V30 41 1 17 39
M  V30 42 1 17 40
M  V30 43 1 19 41
M  V30 44 1 21 42
M  V30 45 1 22 43
M  V30 46 1 24 44
M  V30 END BOND
M  V30 END CTAB
M  END
>  <Dataset>  (750) 
ChEMBL_Kinases

>  <Ligand_Instance>  (750) 
nan

>  <PDB_ID>  (750) 
nan

>  <Standardized_SMILES>  (750) 
COc1cccc(NCC(=O)N/N=C2\CCCc3cnccc32)c1

>  <Name>  (750) 
nan

>  <Pocket>  (750) 
nan

>  <ATP_Site>  (750) 
nan

>  <Peripheral>  (750) 
nan

>  <Num_H_Atoms_ProtBoundConf>  (750) 
nan

>  <Num_Resolved_Atoms>  (750) 
nan

>  <Num_Not_Resolved_Atoms>  (750) 
nan

$$$$
CHEMBL4082469
     RDKit          3D

  0  0  0  0  0  0  0  0  0  0999 V3000
M  V30 BEGIN CTAB
M  V30 COUNTS 27 29 0 0 0
M  V30 BEGIN ATOM
M  V30 1 C -0.159389 -4.023684 -1.945479 0
M  V30 2 S 1.220928 -2.839426 -1.959063 0
M  V30 3 C 1.179164 -1.975901 -0.390860 0
M  V30 4 S 2.045950 -2.562417 1.036149 0
M  V30 5 C 1.570529 -1.291369 2.114257 0
M  V30 6 C 1.981881 -1.207068 3.501809 0
M  V30 7 N 1.568497 -0.159233 4.327579 0
M  V30 8 O 2.716656 -2.080139 3.973552 0
M  V30 9 C 0.769082 -0.467818 1.346031 0
M  V30 10 C 0.586163 -0.856233 0.040296 0
M  V30 11 C -0.280745 0.021118 -0.851187 0
M  V30 12 S -0.740459 -0.127143 -2.480117 0
M  V30 13 N -1.760476 1.443979 -2.467249 0
M  V30 14 C -1.609235 1.857346 -1.236029 0
M  V30 15 C -0.844916 1.148395 -0.352253 0
M  V30 16 C -0.655821 1.599636 1.037804 0
M  V30 17 C 0.143428 0.750660 1.888964 0
M  V30 18 H -0.789489 -3.930533 -1.053591 0
M  V30 19 H 0.272682 -5.060146 -1.908629 0
M  V30 20 H -0.820913 -3.903359 -2.827005 0
M  V30 21 H 2.318555 0.567127 4.223382 0
M  V30 22 H 0.703413 -0.079546 4.934449 0
M  V30 23 H -2.184178 2.766879 -1.182748 0
M  V30 24 H -0.182095 2.630222 0.981699 0
M  V30 25 H -1.648109 1.856182 1.524479 0
M  V30 26 H -0.487788 0.415538 2.772445 0
M  V30 27 H 0.932344 1.362569 2.429547 0
M  V30 END ATOM
M  V30 BEGIN BOND
M  V30 1 1 1 2
M  V30 2 1 2 3
M  V30 3 1 3 4
M  V30 4 1 4 5
M  V30 5 1 5 6
M  V30 6 1 6 7
M  V30 7 2 6 8
M  V30 8 2 5 9
M  V30 9 1 9 10
M  V30 10 1 10 11
M  V30 11 1 11 12
M  V30 12 1 12 13
M  V30 13 2 13 14
M  V30 14 1 14 15
M  V30 15 1 15 16
M  V30 16 1 16 17
M  V30 17 2 10 3
M  V30 18 2 15 11
M  V30 19 1 17 9
M  V30 20 1 1 18
M  V30 21 1 1 19
M  V30 22 1 1 20
M  V30 23 1 7 21
M  V30 24 1 7 22
M  V30 25 1 14 23
M  V30 26 1 16 24
M  V30 27 1 16 25
M  V30 28 1 17 26
M  V30 29 1 17 27
M  V30 END BOND
M  V30 END CTAB
M  END
>  <Dataset>  (751) 
ChEMBL_Kinases

>  <Ligand_Instance>  (751) 
nan

>  <PDB_ID>  (751) 
nan

>  <Standardized_SMILES>  (751) 
CSc1sc(C(N)=O)c2c1-c1sncc1CC2

>  <Name>  (751) 
nan

>  <Pocket>  (751) 
nan

>  <ATP_Site>  (751) 
nan

>  <Peripheral>  (751) 
nan

>  <Num_H_Atoms_ProtBoundConf>  (751) 
nan

>  <Num_Resolved_Atoms>  (751) 
nan

>  <Num_Not_Resolved_Atoms>  (751) 
nan

$$$$
CHEMBL3660085
     RDKit          3D

  0  0  0  0  0  0  0  0  0  0999 V3000
M  V30 BEGIN CTAB
M  V30 COUNTS 48 52 0 0 0
M  V30 BEGIN ATOM
M  V30 1 F 2.841155 -4.693188 3.488335 0
M  V30 2 C 1.903844 -3.943287 2.864953 0
M  V30 3 C 2.126994 -2.672823 2.321601 0
M  V30 4 C 1.134794 -1.916920 1.679812 0
M  V30 5 O 1.641192 -0.771460 1.276337 0
M  V30 6 C 1.398689 0.390105 0.653227 0
M  V30 7 C 2.162452 0.440965 -0.653462 0
M  V30 8 C 3.545205 1.008228 -0.535091 0
M  V30 9 N 4.221319 0.319097 0.521347 0
M  V30 10 C 3.918675 0.797932 1.831972 0
M  V30 11 C 2.962751 1.958103 1.883221 0
M  V30 12 C 1.578866 1.643535 1.472129 0
M  V30 13 F 1.063294 2.694906 0.723910 0
M  V30 14 C -0.124165 -2.450362 1.578043 0
M  V30 15 N -1.051636 -1.697330 0.955929 0
M  V30 16 C -2.327491 -2.164138 0.817538 0
M  V30 17 C -3.483215 -1.546612 0.195384 0
M  V30 18 N -4.710143 -2.098676 0.111723 0
M  V30 19 N -5.543438 -1.299022 -0.506182 0
M  V30 20 C -4.912560 -0.184520 -0.859947 0
M  V30 21 C -5.308556 0.960501 -1.519045 0
M  V30 22 C -4.413287 1.982967 -1.754014 0
M  V30 23 C -3.119795 1.788600 -1.294954 0
M  V30 24 C -2.804125 0.617434 -0.646108 0
M  V30 25 N -3.657799 -0.368372 -0.416874 0
M  V30 26 C -2.541253 -3.436731 1.364569 0
M  V30 27 C -1.593731 -4.201863 1.998136 0
M  V30 28 C -0.322276 -3.685067 2.111414 0
M  V30 29 C 0.631741 -4.432425 2.738312 0
M  V30 30 H 3.164553 -2.369701 2.470649 0
M  V30 31 H 0.344689 0.446110 0.328751 0
M  V30 32 H 1.624151 1.005416 -1.442043 0
M  V30 33 H 2.261385 -0.603269 -1.035784 0
M  V30 34 H 3.594386 2.100484 -0.472961 0
M  V30 35 H 4.069361 0.724126 -1.482493 0
M  V30 36 H 5.239698 0.183414 0.325224 0
M  V30 37 H 3.513240 0.015959 2.478186 0
M  V30 38 H 4.878981 1.144208 2.275120 0
M  V30 39 H 2.928707 2.230113 2.978352 0
M  V30 40 H 3.383587 2.880758 1.418084 0
M  V30 41 H 0.880669 1.527585 2.339189 0
M  V30 42 H -6.340188 1.029111 -1.843895 0
M  V30 43 H -4.818439 2.837033 -2.276708 0
M  V30 44 H -2.436288 2.608723 -1.493209 0
M  V30 45 H -1.804787 0.540050 -0.326230 0
M  V30 46 H -3.518876 -3.926134 1.321410 0
M  V30 47 H -1.807744 -5.175269 2.402259 0
M  V30 48 H 0.369438 -5.405505 3.128608 0
M  V30 END ATOM
M  V30 BEGIN BOND
M  V30 1 1 1 2
M  V30 2 2 2 3
M  V30 3 1 3 4
M  V30 4 1 4 5
M  V30 5 1 5 6
M  V30 6 1 6 7
M  V30 7 1 7 8
M  V30 8 1 8 9
M  V30 9 1 9 10
M  V30 10 1 10 11
M  V30 11 1 11 12
M  V30 12 1 12 13
M  V30 13 2 4 14
M  V30 14 1 14 15
M  V30 15 2 15 16
M  V30 16 1 16 17
M  V30 17 2 17 18
M  V30 18 1 18 19
M  V30 19 2 19 20
M  V30 20 1 20 21
M  V30 21 2 21 22
M  V30 22 1 22 23
M  V30 23 2 23 24
M  V30 24 1 24 25
M  V30 25 1 16 26
M  V30 26 2 26 27
M  V30 27 1 27 28
M  V30 28 2 28 29
M  V30 29 1 29 2
M  V30 30 1 12 6
M  V30 31 1 28 14
M  V30 32 1 25 17
M  V30 33 1 25 20
M  V30 34 1 3 30
M  V30 35 1 6 31
M  V30 36 1 7 32
M  V30 37 1 7 33
M  V30 38 1 8 34
M  V30 39 1 8 35
M  V30 40 1 9 36
M  V30 41 1 10 37
M  V30 42 1 10 38
M  V30 43 1 11 39
M  V30 44 1 11 40
M  V30 45 1 12 41
M  V30 46 1 21 42
M  V30 47 1 22 43
M  V30 48 1 23 44
M  V30 49 1 24 45
M  V30 50 1 26 46
M  V30 51 1 27 47
M  V30 52 1 29 48
M  V30 END BOND
M  V30 END CTAB
M  END
>  <Dataset>  (752) 
ChEMBL_Kinases

>  <Ligand_Instance>  (752) 
nan

>  <PDB_ID>  (752) 
nan

>  <Standardized_SMILES>  (752) 
Fc1cc(OC2CCNCCC2F)c2nc(-c3nnc4ccccn34)ccc2c1

>  <Name>  (752) 
nan

>  <Pocket>  (752) 
nan

>  <ATP_Site>  (752) 
nan

>  <Peripheral>  (752) 
nan

>  <Num_H_Atoms_ProtBoundConf>  (752) 
nan

>  <Num_Resolved_Atoms>  (752) 
nan

>  <Num_Not_Resolved_Atoms>  (752) 
nan

$$$$
CHEMBL3660084
     RDKit          3D

  0  0  0  0  0  0  0  0  0  0999 V3000
M  V30 BEGIN CTAB
M  V30 COUNTS 45 49 0 0 0
M  V30 BEGIN ATOM
M  V30 1 F 1.165944 2.078054 6.333576 0
M  V30 2 C 0.727928 1.539962 5.172517 0
M  V30 3 C 1.524450 1.253625 4.055476 0
M  V30 4 C 1.023370 0.699057 2.882252 0
M  V30 5 O 2.035665 0.550000 2.002296 0
M  V30 6 C 2.020530 0.156770 0.674091 0
M  V30 7 C 2.544596 -1.257330 0.571882 0
M  V30 8 C 3.144685 -1.589508 -0.763804 0
M  V30 9 N 4.077840 -0.589535 -1.228286 0
M  V30 10 C 4.237439 0.495559 -0.282217 0
M  V30 11 C 2.867806 1.123092 -0.127565 0
M  V30 12 F 2.952983 2.355266 0.488637 0
M  V30 13 C -0.318206 0.429160 2.850098 0
M  V30 14 N -0.764226 -0.123691 1.707067 0
M  V30 15 C -2.057214 -0.450345 1.550564 0
M  V30 16 C -2.765755 -1.092036 0.457579 0
M  V30 17 N -4.089243 -1.304474 0.376078 0
M  V30 18 N -4.416021 -1.929568 -0.731522 0
M  V30 19 C -3.305149 -2.161642 -1.440939 0
M  V30 20 C -3.074380 -2.779572 -2.651229 0
M  V30 21 C -1.796849 -2.895060 -3.156579 0
M  V30 22 C -0.787416 -2.363903 -2.388640 0
M  V30 23 C -1.103839 -1.764083 -1.193626 0
M  V30 24 N -2.334390 -1.640737 -0.686730 0
M  V30 25 C -2.860764 -0.162145 2.665033 0
M  V30 26 C -2.428879 0.400191 3.841823 0
M  V30 27 C -1.094451 0.712990 3.949066 0
M  V30 28 C -0.622671 1.263235 5.121126 0
M  V30 29 H 2.547517 1.533562 4.274994 0
M  V30 30 H 1.009142 0.215746 0.239504 0
M  V30 31 H 1.675865 -1.930705 0.728195 0
M  V30 32 H 3.244029 -1.488990 1.400406 0
M  V30 33 H 2.403670 -1.802654 -1.541766 0
M  V30 34 H 3.744214 -2.513821 -0.609759 0
M  V30 35 H 3.708927 -0.165295 -2.112748 0
M  V30 36 H 4.884659 1.250397 -0.754716 0
M  V30 37 H 4.637115 0.071008 0.654977 0
M  V30 38 H 2.466190 1.233960 -1.141719 0
M  V30 39 H -3.930041 -3.177891 -3.204235 0
M  V30 40 H -1.709056 -3.393562 -4.111327 0
M  V30 41 H 0.215705 -2.453242 -2.781955 0
M  V30 42 H -0.263010 -1.389549 -0.649693 0
M  V30 43 H -3.933857 -0.370523 2.684655 0
M  V30 44 H -3.058996 0.606662 4.669065 0
M  V30 45 H -1.317023 1.448560 5.928245 0
M  V30 END ATOM
M  V30 BEGIN BOND
M  V30 1 1 1 2
M  V30 2 2 2 3
M  V30 3 1 3 4
M  V30 4 1 4 5
M  V30 5 1 5 6
M  V30 6 1 6 7
M  V30 7 1 7 8
M  V30 8 1 8 9
M  V30 9 1 9 10
M  V30 10 1 10 11
M  V30 11 1 11 12
M  V30 12 2 4 13
M  V30 13 1 13 14
M  V30 14 2 14 15
M  V30 15 1 15 16
M  V30 16 2 16 17
M  V30 17 1 17 18
M  V30 18 2 18 19
M  V30 19 1 19 20
M  V30 20 2 20 21
M  V30 21 1 21 22
M  V30 22 2 22 23
M  V30 23 1 23 24
M  V30 24 1 15 25
M  V30 25 2 25 26
M  V30 26 1 26 27
M  V30 27 2 27 28
M  V30 28 1 28 2
M  V30 29 1 11 6
M  V30 30 1 27 13
M  V30 31 1 24 16
M  V30 32 1 24 19
M  V30 33 1 3 29
M  V30 34 1 6 30
M  V30 35 1 7 31
M  V30 36 1 7 32
M  V30 37 1 8 33
M  V30 38 1 8 34
M  V30 39 1 9 35
M  V30 40 1 10 36
M  V30 41 1 10 37
M  V30 42 1 11 38
M  V30 43 1 20 39
M  V30 44 1 21 40
M  V30 45 1 22 41
M  V30 46 1 23 42
M  V30 47 1 25 43
M  V30 48 1 26 44
M  V30 49 1 28 45
M  V30 END BOND
M  V30 END CTAB
M  END
>  <Dataset>  (753) 
ChEMBL_Kinases

>  <Ligand_Instance>  (753) 
nan

>  <PDB_ID>  (753) 
nan

>  <Standardized_SMILES>  (753) 
Fc1cc(OC2CCNCC2F)c2nc(-c3nnc4ccccn34)ccc2c1

>  <Name>  (753) 
nan

>  <Pocket>  (753) 
nan

>  <ATP_Site>  (753) 
nan

>  <Peripheral>  (753) 
nan

>  <Num_H_Atoms_ProtBoundConf>  (753) 
nan

>  <Num_Resolved_Atoms>  (753) 
nan

>  <Num_Not_Resolved_Atoms>  (753) 
nan

$$$$
CHEMBL3660082
     RDKit          3D

  0  0  0  0  0  0  0  0  0  0999 V3000
M  V30 BEGIN CTAB
M  V30 COUNTS 58 62 0 0 0
M  V30 BEGIN ATOM
M  V30 1 C -1.530554 -1.867304 2.094751 0
M  V30 2 C -0.592685 -2.617050 1.139137 0
M  V30 3 C 0.815980 -2.231364 1.547676 0
M  V30 4 O 1.040388 -0.851316 1.450723 0
M  V30 5 C 2.273223 -0.306628 1.783234 0
M  V30 6 C 3.389785 -0.988694 2.228515 0
M  V30 7 C 4.541196 -0.293258 2.516163 0
M  V30 8 C 4.641889 1.077747 2.380617 0
M  V30 9 C 3.542413 1.774656 1.939051 0
M  V30 10 C 3.573211 3.145590 1.781211 0
M  V30 11 C 2.466207 3.873438 1.333771 0
M  V30 12 C 1.326876 3.135456 1.055252 0
M  V30 13 C 0.135227 3.834618 0.584195 0
M  V30 14 N -0.021297 5.154860 0.372341 0
M  V30 15 N -1.241992 5.408479 -0.053344 0
M  V30 16 C -1.924156 4.239234 -0.131182 0
M  V30 17 C -3.225476 4.002013 -0.523155 0
M  V30 18 C -3.630555 2.672552 -0.491954 0
M  V30 19 C -2.752494 1.689819 -0.088014 0
M  V30 20 C -1.482000 2.022996 0.282322 0
M  V30 21 N -1.051251 3.297259 0.266135 0
M  V30 22 N 1.336843 1.805153 1.221277 0
M  V30 23 C 2.380346 1.083218 1.647477 0
M  V30 24 C -0.743473 -4.077387 1.350206 0
M  V30 25 C -1.800220 -4.751374 0.513896 0
M  V30 26 N -1.743432 -4.313539 -0.868490 0
M  V30 27 C -0.856581 -5.064163 -1.669165 0
M  V30 28 C -0.830638 -4.544361 -3.084289 0
M  V30 29 O 0.045715 -5.316018 -3.881507 0
M  V30 30 C -1.825389 -2.921009 -1.027594 0
M  V30 31 C -0.811907 -2.123467 -0.261395 0
M  V30 32 H -2.474344 -1.583697 1.607934 0
M  V30 33 H -1.798668 -2.564964 2.911179 0
M  V30 34 H -1.003920 -1.008408 2.566972 0
M  V30 35 H 0.998951 -2.583770 2.590175 0
M  V30 36 H 1.506692 -2.829012 0.907436 0
M  V30 37 H 3.260281 -2.059288 2.317890 0
M  V30 38 H 5.376901 -0.898304 2.861141 0
M  V30 39 H 5.556770 1.578322 2.615483 0
M  V30 40 H 4.478336 3.690920 2.007422 0
M  V30 41 H 2.509308 4.950315 1.215941 0
M  V30 42 H -3.893352 4.794039 -0.835681 0
M  V30 43 H -4.640023 2.402119 -0.785509 0
M  V30 44 H -3.124879 0.664170 -0.083481 0
M  V30 45 H -0.869222 1.183206 0.583046 0
M  V30 46 H 0.229945 -4.619263 1.199563 0
M  V30 47 H -0.998434 -4.254774 2.415306 0
M  V30 48 H -2.822935 -4.596918 0.874226 0
M  V30 49 H -1.587018 -5.839890 0.525574 0
M  V30 50 H 0.187543 -5.104593 -1.293755 0
M  V30 51 H -1.172574 -6.149129 -1.695036 0
M  V30 52 H -1.825221 -4.465526 -3.532643 0
M  V30 53 H -0.368257 -3.517729 -3.132243 0
M  V30 54 H 0.471427 -4.799179 -4.584041 0
M  V30 55 H -2.852484 -2.594406 -0.679409 0
M  V30 56 H -1.784748 -2.632053 -2.084745 0
M  V30 57 H -1.201181 -1.086278 -0.185493 0
M  V30 58 H 0.140512 -2.063918 -0.827846 0
M  V30 END ATOM
M  V30 BEGIN BOND
M  V30 1 1 1 2
M  V30 2 1 2 3
M  V30 3 1 3 4
M  V30 4 1 4 5
M  V30 5 2 5 6
M  V30 6 1 6 7
M  V30 7 2 7 8
M  V30 8 1 8 9
M  V30 9 2 9 10
M  V30 10 1 10 11
M  V30 11 2 11 12
M  V30 12 1 12 13
M  V30 13 2 13 14
M  V30 14 1 14 15
M  V30 15 2 15 16
M  V30 16 1 16 17
M  V30 17 2 17 18
M  V30 18 1 18 19
M  V30 19 2 19 20
M  V30 20 1 20 21
M  V30 21 1 12 22
M  V30 22 2 22 23
M  V30 23 1 2 24
M  V30 24 1 24 25
M  V30 25 1 25 26
M  V30 26 1 26 27
M  V30 27 1 27 28
M  V30 28 1 28 29
M  V30 29 1 26 30
M  V30 30 1 30 31
M  V30 31 1 31 2
M  V30 32 1 23 5
M  V30 33 1 23 9
M  V30 34 1 21 13
M  V30 35 1 21 16
M  V30 36 1 1 32
M  V30 37 1 1 33
M  V30 38 1 1 34
M  V30 39 1 3 35
M  V30 40 1 3 36
M  V30 41 1 6 37
M  V30 42 1 7 38
M  V30 43 1 8 39
M  V30 44 1 10 40
M  V30 45 1 11 41
M  V30 46 1 17 42
M  V30 47 1 18 43
M  V30 48 1 19 44
M  V30 49 1 20 45
M  V30 50 1 24 46
M  V30 51 1 24 47
M  V30 52 1 25 48
M  V30 53 1 25 49
M  V30 54 1 27 50
M  V30 55 1 27 51
M  V30 56 1 28 52
M  V30 57 1 28 53
M  V30 58 1 29 54
M  V30 59 1 30 55
M  V30 60 1 30 56
M  V30 61 1 31 57
M  V30 62 1 31 58
M  V30 END BOND
M  V30 END CTAB
M  END
>  <Dataset>  (754) 
ChEMBL_Kinases

>  <Ligand_Instance>  (754) 
nan

>  <PDB_ID>  (754) 
nan

>  <Standardized_SMILES>  (754) 
CC1(COc2cccc3ccc(-c4nnc5ccccn45)nc23)CCN(CCO)CC1

>  <Name>  (754) 
nan

>  <Pocket>  (754) 
nan

>  <ATP_Site>  (754) 
nan

>  <Peripheral>  (754) 
nan

>  <Num_H_Atoms_ProtBoundConf>  (754) 
nan

>  <Num_Resolved_Atoms>  (754) 
nan

>  <Num_Not_Resolved_Atoms>  (754) 
nan

$$$$
CHEMBL3883979
     RDKit          3D

  0  0  0  0  0  0  0  0  0  0999 V3000
M  V30 BEGIN CTAB
M  V30 COUNTS 52 56 0 0 0
M  V30 BEGIN ATOM
M  V30 1 C -0.730457 0.558489 5.051496 0
M  V30 2 C -0.105188 -0.685992 4.501096 0
M  V30 3 C 0.242001 -1.700722 5.535173 0
M  V30 4 C 1.091062 -0.251335 3.706194 0
M  V30 5 O 2.032583 0.246634 4.354299 0
M  V30 6 N 0.925293 -0.495537 2.312970 0
M  V30 7 C 1.920343 -0.170430 1.353690 0 CFG=1
M  V30 8 C 2.441744 -1.277960 0.512042 0
M  V30 9 C 3.226415 -0.477094 -0.537158 0
M  V30 10 C 2.285945 0.667452 -0.799964 0
M  V30 11 C 2.037737 1.525682 -1.847331 0
M  V30 12 N 2.830383 1.356310 -3.024340 0
M  V30 13 C 1.075656 2.503917 -1.777446 0
M  V30 14 C 0.316041 2.645248 -0.612584 0
M  V30 15 C 0.534482 1.795943 0.474476 0
M  V30 16 C 1.514646 0.833653 0.342903 0
M  V30 17 C -0.355718 -1.081159 2.182437 0
M  V30 18 N -0.969730 -1.490820 1.066101 0
M  V30 19 C -2.194174 -2.032732 1.087280 0
M  V30 20 N -2.919364 -2.493444 -0.042193 0
M  V30 21 C -2.526279 -2.483617 -1.389922 0
M  V30 22 C -3.370325 -2.980794 -2.386322 0
M  V30 23 C -3.035097 -2.994462 -3.715774 0
M  V30 24 C -1.822023 -2.507416 -4.142706 0
M  V30 25 C -0.954406 -2.007882 -3.212660 0
M  V30 26 C -1.337998 -2.017609 -1.898684 0
M  V30 27 N -2.758341 -2.134996 2.301734 0
M  V30 28 C -2.230963 -1.759620 3.452753 0
M  V30 29 C -0.971207 -1.204914 3.407788 0
M  V30 30 H -1.665637 0.335234 5.604497 0
M  V30 31 H -1.040119 1.184382 4.183591 0
M  V30 32 H -0.050939 1.184217 5.661340 0
M  V30 33 H -0.497164 -2.514942 5.489891 0
M  V30 34 H 1.235604 -2.130326 5.275329 0
M  V30 35 H 0.286618 -1.202751 6.520297 0
M  V30 36 H 2.795565 0.284703 1.892494 0
M  V30 37 H 1.613654 -1.768346 -0.011579 0
M  V30 38 H 3.114654 -1.970363 1.068540 0
M  V30 39 H 4.133043 -0.054799 -0.049798 0
M  V30 40 H 3.454854 -1.052481 -1.433970 0
M  V30 41 H 3.660783 1.979313 -2.819398 0
M  V30 42 H 2.673144 0.789439 -3.869614 0
M  V30 43 H 0.886088 3.175683 -2.606029 0
M  V30 44 H -0.443364 3.411043 -0.546237 0
M  V30 45 H -0.052618 1.899915 1.384038 0
M  V30 46 H -3.884829 -2.900963 0.135809 0
M  V30 47 H -4.340505 -3.379508 -2.119945 0
M  V30 48 H -3.738422 -3.396030 -4.442105 0
M  V30 49 H -1.625266 -2.549731 -5.203223 0
M  V30 50 H -0.010441 -1.629834 -3.552645 0
M  V30 51 H -0.605074 -1.608807 -1.220707 0
M  V30 52 H -2.728351 -1.866383 4.387763 0
M  V30 END ATOM
M  V30 BEGIN BOND
M  V30 1 1 1 2
M  V30 2 1 2 3
M  V30 3 1 2 4
M  V30 4 2 4 5
M  V30 5 1 4 6
M  V30 6 1 6 7
M  V30 7 1 7 8
M  V30 8 1 8 9
M  V30 9 1 9 10
M  V30 10 2 10 11
M  V30 11 1 11 12
M  V30 12 1 11 13
M  V30 13 2 13 14
M  V30 14 1 14 15
M  V30 15 2 15 16
M  V30 16 1 6 17
M  V30 17 2 17 18
M  V30 18 1 18 19
M  V30 19 1 19 20
M  V30 20 1 20 21
M  V30 21 2 21 22
M  V30 22 1 22 23
M  V30 23 2 23 24
M  V30 24 1 24 25
M  V30 25 2 25 26
M  V30 26 2 19 27
M  V30 27 1 27 28
M  V30 28 2 28 29
M  V30 29 1 29 2
M  V30 30 1 16 7
M  V30 31 1 29 17
M  V30 32 1 16 10
M  V30 33 1 26 21
M  V30 34 1 1 30
M  V30 35 1 1 31
M  V30 36 1 1 32
M  V30 37 1 3 33
M  V30 38 1 3 34
M  V30 39 1 3 35
M  V30 40 1 7 36 CFG=1
M  V30 41 1 8 37
M  V30 42 1 8 38
M  V30 43 1 9 39
M  V30 44 1 9 40
M  V30 45 1 12 41
M  V30 46 1 12 42
M  V30 47 1 13 43
M  V30 48 1 14 44
M  V30 49 1 15 45
M  V30 50 1 20 46
M  V30 51 1 22 47
M  V30 52 1 23 48
M  V30 53 1 24 49
M  V30 54 1 25 50
M  V30 55 1 26 51
M  V30 56 1 28 52
M  V30 END BOND
M  V30 END CTAB
M  END
>  <Dataset>  (755) 
ChEMBL_Kinases

>  <Ligand_Instance>  (755) 
nan

>  <PDB_ID>  (755) 
nan

>  <Standardized_SMILES>  (755) 
CC1(C)C(=O)N([C@H]2CCc3c(N)cccc32)c2nc(Nc3ccccc3)ncc21

>  <Name>  (755) 
nan

>  <Pocket>  (755) 
nan

>  <ATP_Site>  (755) 
nan

>  <Peripheral>  (755) 
nan

>  <Num_H_Atoms_ProtBoundConf>  (755) 
nan

>  <Num_Resolved_Atoms>  (755) 
nan

>  <Num_Not_Resolved_Atoms>  (755) 
nan

$$$$
CHEMBL3884031
     RDKit          3D

  0  0  0  0  0  0  0  0  0  0999 V3000
M  V30 BEGIN CTAB
M  V30 COUNTS 32 34 0 0 0
M  V30 BEGIN ATOM
M  V30 1 C 0.126245 -3.884801 5.016140 0
M  V30 2 O 0.291201 -4.338686 3.698159 0
M  V30 3 C 0.267029 -3.510692 2.571270 0
M  V30 4 C 0.447006 -4.128177 1.346896 0
M  V30 5 C 0.415681 -3.271024 0.266708 0
M  V30 6 C 0.217567 -1.901740 0.426481 0
M  V30 7 C 0.146759 -0.855184 -0.486495 0
M  V30 8 C 0.285536 -1.074145 -1.919859 0
M  V30 9 C 1.711207 -1.169540 -2.301140 0
M  V30 10 N 2.810306 -1.236675 -2.575531 0
M  V30 11 C -0.062703 0.317599 0.187723 0
M  V30 12 C -0.216012 1.690829 -0.205183 0
M  V30 13 C -0.625033 2.627475 0.741251 0
M  V30 14 C -0.758214 3.972536 0.421406 0
M  V30 15 N -0.501436 4.458819 -0.818800 0
M  V30 16 C -0.099132 3.588326 -1.778550 0
M  V30 17 C 0.014380 2.274362 -1.405498 0
M  V30 18 N -0.121021 -0.015541 1.487733 0
M  V30 19 C 0.042589 -1.333400 1.667934 0
M  V30 20 N 0.076706 -2.189522 2.708942 0
M  V30 21 H 1.120162 -3.775115 5.530395 0
M  V30 22 H -0.491089 -4.600088 5.615468 0
M  V30 23 H -0.385744 -2.912872 5.084028 0
M  V30 24 H 0.598723 -5.192313 1.258619 0
M  V30 25 H 0.552728 -3.694635 -0.738441 0
M  V30 26 H -0.223028 -0.357297 -2.553033 0
M  V30 27 H -0.198571 -2.083443 -2.169123 0
M  V30 28 H -0.867304 2.379450 1.782130 0
M  V30 29 H -1.076856 4.667757 1.178134 0
M  V30 30 H 0.103955 3.970256 -2.756457 0
M  V30 31 H 0.361973 1.692162 -2.234402 0
M  V30 32 H -0.265725 0.541022 2.360470 0
M  V30 END ATOM
M  V30 BEGIN BOND
M  V30 1 1 1 2
M  V30 2 1 2 3
M  V30 3 2 3 4
M  V30 4 1 4 5
M  V30 5 2 5 6
M  V30 6 1 6 7
M  V30 7 1 7 8
M  V30 8 1 8 9
M  V30 9 3 9 10
M  V30 10 2 7 11
M  V30 11 1 11 12
M  V30 12 2 12 13
M  V30 13 1 13 14
M  V30 14 2 14 15
M  V30 15 1 15 16
M  V30 16 2 16 17
M  V30 17 1 11 18
M  V30 18 1 18 19
M  V30 19 2 19 20
M  V30 20 1 20 3
M  V30 21 1 19 6
M  V30 22 1 17 12
M  V30 23 1 1 21
M  V30 24 1 1 22
M  V30 25 1 1 23
M  V30 26 1 4 24
M  V30 27 1 5 25
M  V30 28 1 8 26
M  V30 29 1 8 27
M  V30 30 1 13 28
M  V30 31 1 14 29
M  V30 32 1 16 30
M  V30 33 1 17 31
M  V30 34 1 18 32
M  V30 END BOND
M  V30 END CTAB
M  END
>  <Dataset>  (756) 
ChEMBL_Kinases

>  <Ligand_Instance>  (756) 
nan

>  <PDB_ID>  (756) 
nan

>  <Standardized_SMILES>  (756) 
COc1ccc2c(CC#N)c(-c3ccncc3)[nH]c2n1

>  <Name>  (756) 
nan

>  <Pocket>  (756) 
nan

>  <ATP_Site>  (756) 
nan

>  <Peripheral>  (756) 
nan

>  <Num_H_Atoms_ProtBoundConf>  (756) 
nan

>  <Num_Resolved_Atoms>  (756) 
nan

>  <Num_Not_Resolved_Atoms>  (756) 
nan

$$$$
CHEMBL359482
     RDKit          3D

  0  0  0  0  0  0  0  0  0  0999 V3000
M  V30 BEGIN CTAB
M  V30 COUNTS 38 41 0 0 0
M  V30 BEGIN ATOM
M  V30 1 C 0.661368 -4.468481 5.368202 0
M  V30 2 C 0.521822 -3.449609 4.264686 0
M  V30 3 C 1.092886 -3.672089 3.019657 0
M  V30 4 C 0.745267 -2.557585 2.290624 0
M  V30 5 N 1.061436 -2.276034 0.909917 0
M  V30 6 C 0.600115 -1.111210 0.262595 0
M  V30 7 N 1.295489 -0.030967 -0.126948 0
M  V30 8 C 0.651569 0.979798 -0.740304 0
M  V30 9 C 1.357801 2.195696 -1.181190 0
M  V30 10 C 2.675057 2.453587 -0.945705 0
M  V30 11 C 3.313734 3.622818 -1.373407 0
M  V30 12 C 2.532688 4.540041 -2.066990 0
M  V30 13 C 1.202361 4.328891 -2.329225 0
M  V30 14 C 0.634716 3.157367 -1.881181 0
M  V30 15 N -0.672734 0.917371 -0.964643 0
M  V30 16 C -1.405803 -0.139635 -0.591584 0
M  V30 17 C -2.747811 -0.079282 -0.870649 0
M  V30 18 C -3.489513 -1.192496 -0.463917 0
M  V30 19 C -2.953317 -2.313514 0.184130 0
M  V30 20 C -1.607532 -2.222945 0.388810 0
M  V30 21 C -0.756009 -1.202129 0.048096 0
M  V30 22 N 0.008932 -1.730778 3.082162 0
M  V30 23 N -0.131590 -2.275950 4.296883 0
M  V30 24 H 1.616782 -5.016127 5.311285 0
M  V30 25 H 0.453470 -3.974288 6.325555 0
M  V30 26 H -0.160242 -5.233776 5.230405 0
M  V30 27 H 1.674990 -4.518104 2.691553 0
M  V30 28 H 1.652253 -2.954210 0.384660 0
M  V30 29 H 3.251828 1.727396 -0.406587 0
M  V30 30 H 4.352023 3.793785 -1.170146 0
M  V30 31 H 3.002958 5.468362 -2.416169 0
M  V30 32 H 0.576876 5.034125 -2.867253 0
M  V30 33 H -0.426156 3.001934 -2.095420 0
M  V30 34 H -3.223562 0.740794 -1.358621 0
M  V30 35 H -4.563335 -1.201581 -0.656816 0
M  V30 36 H -3.531819 -3.163412 0.495808 0
M  V30 37 H -1.160599 -3.077781 0.885496 0
M  V30 38 H -0.631678 -1.921115 5.148411 0
M  V30 END ATOM
M  V30 BEGIN BOND
M  V30 1 1 1 2
M  V30 2 2 2 3
M  V30 3 1 3 4
M  V30 4 1 4 5
M  V30 5 1 5 6
M  V30 6 2 6 7
M  V30 7 1 7 8
M  V30 8 1 8 9
M  V30 9 2 9 10
M  V30 10 1 10 11
M  V30 11 2 11 12
M  V30 12 1 12 13
M  V30 13 2 13 14
M  V30 14 2 8 15
M  V30 15 1 15 16
M  V30 16 2 16 17
M  V30 17 1 17 18
M  V30 18 2 18 19
M  V30 19 1 19 20
M  V30 20 2 20 21
M  V30 21 2 4 22
M  V30 22 1 22 23
M  V30 23 1 23 2
M  V30 24 1 21 6
M  V30 25 1 14 9
M  V30 26 1 21 16
M  V30 27 1 1 24
M  V30 28 1 1 25
M  V30 29 1 1 26
M  V30 30 1 3 27
M  V30 31 1 5 28
M  V30 32 1 10 29
M  V30 33 1 11 30
M  V30 34 1 12 31
M  V30 35 1 13 32
M  V30 36 1 14 33
M  V30 37 1 17 34
M  V30 38 1 18 35
M  V30 39 1 19 36
M  V30 40 1 20 37
M  V30 41 1 23 38
M  V30 END BOND
M  V30 END CTAB
M  END
>  <Dataset>  (757) 
ChEMBL_Kinases

>  <Ligand_Instance>  (757) 
nan

>  <PDB_ID>  (757) 
nan

>  <Standardized_SMILES>  (757) 
Cc1cc(Nc2nc(-c3ccccc3)nc3ccccc23)n[nH]1

>  <Name>  (757) 
nan

>  <Pocket>  (757) 
nan

>  <ATP_Site>  (757) 
nan

>  <Peripheral>  (757) 
nan

>  <Num_H_Atoms_ProtBoundConf>  (757) 
nan

>  <Num_Resolved_Atoms>  (757) 
nan

>  <Num_Not_Resolved_Atoms>  (757) 
nan

$$$$
CHEMBL3594173
     RDKit          3D

  0  0  0  0  0  0  0  0  0  0999 V3000
M  V30 BEGIN CTAB
M  V30 COUNTS 53 56 0 0 0
M  V30 BEGIN ATOM
M  V30 1 C -2.606267 -1.828184 -3.428601 0
M  V30 2 C -3.702623 -2.500331 -2.719468 0
M  V30 3 O -3.755082 -3.739961 -2.519401 0
M  V30 4 N -4.870968 -1.958924 -2.139234 0
M  V30 5 C -5.785149 -2.910087 -1.529418 0
M  V30 6 C -5.101879 -0.498209 -2.139082 0
M  V30 7 C -4.551267 0.082560 -0.873557 0
M  V30 8 C -3.267524 0.469187 -0.496279 0
M  V30 9 C -3.330551 0.965774 0.790358 0
M  V30 10 N -2.197962 1.427554 1.558462 0
M  V30 11 C -0.886342 1.365981 1.029304 0
M  V30 12 C 0.002057 0.909985 1.972536 0
M  V30 13 C 1.366007 0.750018 1.740332 0
M  V30 14 N 1.818722 1.066444 0.517225 0
M  V30 15 C 0.966265 1.515582 -0.420730 0
M  V30 16 N 1.400648 1.825184 -1.734837 0
M  V30 17 C 0.486458 2.335634 -2.744684 0
M  V30 18 C 2.829102 1.650368 -2.078867 0
M  V30 19 C 3.417273 0.545596 -1.290854 0
M  V30 20 C 4.376093 0.989278 -0.362904 0
M  V30 21 C 5.065630 0.152309 0.472819 0
M  V30 22 C 4.824288 -1.225743 0.422557 0
M  V30 23 N 5.328389 -2.262539 1.113264 0
M  V30 24 C 4.686376 -3.354810 0.617639 0
M  V30 25 N 3.805979 -3.001633 -0.356657 0
M  V30 26 C 3.867638 -1.642931 -0.507730 0
M  V30 27 C 3.180624 -0.801300 -1.342171 0
M  V30 28 Cl 1.997004 -1.308747 -2.490797 0
M  V30 29 N -0.357508 1.657821 -0.161186 0
M  V30 30 N -4.607547 0.876900 1.162606 0
M  V30 31 N -5.346187 0.349622 0.173320 0
M  V30 32 H -1.940704 -1.351446 -2.697223 0
M  V30 33 H -2.060492 -2.521444 -4.115603 0
M  V30 34 H -3.060879 -1.021244 -4.078792 0
M  V30 35 H -5.592712 -2.842386 -0.437021 0
M  V30 36 H -6.804760 -2.627424 -1.800025 0
M  V30 37 H -5.588706 -3.938749 -1.901724 0
M  V30 38 H -6.212968 -0.301089 -2.188053 0
M  V30 39 H -4.575907 -0.092203 -3.036898 0
M  V30 40 H -2.408796 0.373814 -1.125238 0
M  V30 41 H -2.398554 1.812227 2.527090 0
M  V30 42 H -0.210978 0.610024 2.999882 0
M  V30 43 H 2.123450 0.387613 2.429244 0
M  V30 44 H -0.306114 1.643001 -3.043218 0
M  V30 45 H -0.012033 3.284815 -2.381664 0
M  V30 46 H 1.093743 2.585164 -3.640720 0
M  V30 47 H 3.347023 2.600587 -1.995782 0
M  V30 48 H 2.823261 1.346326 -3.165315 0
M  V30 49 H 4.673131 2.017857 -0.212885 0
M  V30 50 H 5.814660 0.458342 1.201998 0
M  V30 51 H 6.048799 -2.209181 1.864135 0
M  V30 52 H 4.932692 -4.317721 1.035032 0
M  V30 53 H -6.392077 0.196175 0.259225 0
M  V30 END ATOM
M  V30 BEGIN BOND
M  V30 1 1 1 2
M  V30 2 2 2 3
M  V30 3 1 2 4
M  V30 4 1 4 5
M  V30 5 1 4 6
M  V30 6 1 6 7
M  V30 7 2 7 8
M  V30 8 1 8 9
M  V30 9 1 9 10
M  V30 10 1 10 11
M  V30 11 2 11 12
M  V30 12 1 12 13
M  V30 13 2 13 14
M  V30 14 1 14 15
M  V30 15 1 15 16
M  V30 16 1 16 17
M  V30 17 1 16 18
M  V30 18 1 18 19
M  V30 19 2 19 20
M  V30 20 1 20 21
M  V30 21 2 21 22
M  V30 22 1 22 23
M  V30 23 1 23 24
M  V30 24 2 24 25
M  V30 25 1 25 26
M  V30 26 2 26 27
M  V30 27 1 27 28
M  V30 28 2 15 29
M  V30 29 2 9 30
M  V30 30 1 30 31
M  V30 31 1 31 7
M  V30 32 1 29 11
M  V30 33 1 27 19
M  V30 34 1 26 22
M  V30 35 1 1 32
M  V30 36 1 1 33
M  V30 37 1 1 34
M  V30 38 1 5 35
M  V30 39 1 5 36
M  V30 40 1 5 37
M  V30 41 1 6 38
M  V30 42 1 6 39
M  V30 43 1 8 40
M  V30 44 1 10 41
M  V30 45 1 12 42
M  V30 46 1 13 43
M  V30 47 1 17 44
M  V30 48 1 17 45
M  V30 49 1 17 46
M  V30 50 1 18 47
M  V30 51 1 18 48
M  V30 52 1 20 49
M  V30 53 1 21 50
M  V30 54 1 23 51
M  V30 55 1 24 52
M  V30 56 1 31 53
M  V30 END BOND
M  V30 END CTAB
M  END
>  <Dataset>  (758) 
ChEMBL_Kinases

>  <Ligand_Instance>  (758) 
nan

>  <PDB_ID>  (758) 
nan

>  <Standardized_SMILES>  (758) 
CC(=O)N(C)Cc1cc(Nc2ccnc(N(C)Cc3ccc4[nH]cnc4c3Cl)n2)n[nH]1

>  <Name>  (758) 
nan

>  <Pocket>  (758) 
nan

>  <ATP_Site>  (758) 
nan

>  <Peripheral>  (758) 
nan

>  <Num_H_Atoms_ProtBoundConf>  (758) 
nan

>  <Num_Resolved_Atoms>  (758) 
nan

>  <Num_Not_Resolved_Atoms>  (758) 
nan

$$$$
CHEMBL3594175
     RDKit          3D

  0  0  0  0  0  0  0  0  0  0999 V3000
M  V30 BEGIN CTAB
M  V30 COUNTS 54 58 0 0 0
M  V30 BEGIN ATOM
M  V30 1 C 0.728655 -1.558942 6.302432 0
M  V30 2 N 1.643415 -1.787431 5.186238 0
M  V30 3 C 2.672487 -2.779793 4.945275 0
M  V30 4 C 3.468081 -2.162592 3.800863 0
M  V30 5 C 2.383726 -1.520697 2.990341 0 CFG=2
M  V30 6 C 2.911845 -0.510456 2.038985 0
M  V30 7 C 2.776741 -0.428831 0.654299 0
M  V30 8 C 3.439278 0.692844 0.164416 0
M  V30 9 N 3.395770 0.922453 -1.253124 0
M  V30 10 C 2.223591 1.744185 -1.431147 0
M  V30 11 C 2.085956 3.118588 -1.450012 0
M  V30 12 C 0.814419 3.619656 -1.635200 0
M  V30 13 N -0.231185 2.790264 -1.788546 0
M  V30 14 C -0.099247 1.466141 -1.770360 0
M  V30 15 N -1.255055 0.616436 -1.933820 0
M  V30 16 C -2.524702 1.299517 -2.096077 0
M  V30 17 C -1.017061 -0.820561 -1.922045 0
M  V30 18 C -2.261089 -1.585264 -2.058083 0
M  V30 19 C -2.756379 -2.240039 -3.166646 0
M  V30 20 C -3.947500 -2.925341 -3.155717 0
M  V30 21 C -4.683320 -2.957518 -1.971409 0
M  V30 22 N -5.865452 -3.553113 -1.703701 0
M  V30 23 C -6.156538 -3.289739 -0.402019 0
M  V30 24 N -5.159671 -2.539095 0.120562 0
M  V30 25 C -4.234300 -2.321672 -0.839093 0
M  V30 26 C -3.034021 -1.644965 -0.892247 0
M  V30 27 Cl -2.556670 -0.867729 0.624224 0
M  V30 28 N 1.140401 0.953888 -1.590072 0
M  V30 29 N 3.962851 1.268916 1.262896 0
M  V30 30 N 3.653440 0.568257 2.337510 0
M  V30 31 C 1.563291 -0.883567 4.063149 0
M  V30 32 O 0.981258 0.217419 3.876704 0
M  V30 33 H 0.965388 -0.607045 6.823048 0
M  V30 34 H 0.783972 -2.437064 6.969783 0
M  V30 35 H -0.336345 -1.490593 5.950930 0
M  V30 36 H 2.190225 -3.723617 4.610338 0
M  V30 37 H 3.335150 -2.918760 5.821176 0
M  V30 38 H 4.171919 -1.446932 4.248373 0
M  V30 39 H 3.964009 -3.007242 3.279383 0
M  V30 40 H 1.807118 -2.308411 2.497100 0
M  V30 41 H 2.200710 -1.204493 0.125829 0
M  V30 42 H 4.077396 0.559970 -1.966319 0
M  V30 43 H 3.032869 3.610153 -1.311581 0
M  V30 44 H 0.784961 4.709879 -1.638211 0
M  V30 45 H -3.140467 0.641376 -2.776308 0
M  V30 46 H -3.018057 1.509771 -1.140311 0
M  V30 47 H -2.356219 2.260675 -2.629108 0
M  V30 48 H -0.257535 -1.101377 -2.687218 0
M  V30 49 H -0.558113 -1.057531 -0.930996 0
M  V30 50 H -2.083094 -2.135124 -4.022221 0
M  V30 51 H -4.246399 -3.405744 -4.082984 0
M  V30 52 H -6.425609 -4.107545 -2.396625 0
M  V30 53 H -7.053124 -3.651769 0.070659 0
M  V30 54 H 3.989189 0.886752 3.285389 0
M  V30 END ATOM
M  V30 BEGIN BOND
M  V30 1 1 1 2
M  V30 2 1 2 3
M  V30 3 1 3 4
M  V30 4 1 4 5
M  V30 5 1 5 6
M  V30 6 2 6 7
M  V30 7 1 7 8
M  V30 8 1 8 9
M  V30 9 1 9 10
M  V30 10 2 10 11
M  V30 11 1 11 12
M  V30 12 2 12 13
M  V30 13 1 13 14
M  V30 14 1 14 15
M  V30 15 1 15 16
M  V30 16 1 15 17
M  V30 17 1 17 18
M  V30 18 2 18 19
M  V30 19 1 19 20
M  V30 20 2 20 21
M  V30 21 1 21 22
M  V30 22 1 22 23
M  V30 23 2 23 24
M  V30 24 1 24 25
M  V30 25 2 25 26
M  V30 26 1 26 27
M  V30 27 2 14 28
M  V30 28 2 8 29
M  V30 29 1 29 30
M  V30 30 1 5 31
M  V30 31 2 31 32
M  V30 32 1 31 2
M  V30 33 1 30 6
M  V30 34 1 28 10
M  V30 35 1 26 18
M  V30 36 1 25 21
M  V30 37 1 1 33
M  V30 38 1 1 34
M  V30 39 1 1 35
M  V30 40 1 3 36
M  V30 41 1 3 37
M  V30 42 1 4 38
M  V30 43 1 4 39
M  V30 44 1 5 40 CFG=3
M  V30 45 1 7 41
M  V30 46 1 9 42
M  V30 47 1 11 43
M  V30 48 1 12 44
M  V30 49 1 16 45
M  V30 50 1 16 46
M  V30 51 1 16 47
M  V30 52 1 17 48
M  V30 53 1 17 49
M  V30 54 1 19 50
M  V30 55 1 20 51
M  V30 56 1 22 52
M  V30 57 1 23 53
M  V30 58 1 30 54
M  V30 END BOND
M  V30 END CTAB
M  END
>  <Dataset>  (759) 
ChEMBL_Kinases

>  <Ligand_Instance>  (759) 
nan

>  <PDB_ID>  (759) 
nan

>  <Standardized_SMILES>  (759) 
CN1CC[C@H](c2cc(Nc3ccnc(N(C)Cc4ccc5[nH]cnc5c4Cl)n3)n[nH]2)C1=O

>  <Name>  (759) 
nan

>  <Pocket>  (759) 
nan

>  <ATP_Site>  (759) 
nan

>  <Peripheral>  (759) 
nan

>  <Num_H_Atoms_ProtBoundConf>  (759) 
nan

>  <Num_Resolved_Atoms>  (759) 
nan

>  <Num_Not_Resolved_Atoms>  (759) 
nan

$$$$
CHEMBL3594176
     RDKit          3D

  0  0  0  0  0  0  0  0  0  0999 V3000
M  V30 BEGIN CTAB
M  V30 COUNTS 56 59 0 0 0
M  V30 BEGIN ATOM
M  V30 1 C 0.996049 -4.023501 4.545023 0
M  V30 2 N 1.796722 -3.794869 3.367583 0
M  V30 3 C 2.271959 -2.459226 3.017682 0
M  V30 4 C 3.576627 -2.762193 2.320023 0
M  V30 5 C 3.238971 -3.930432 1.441476 0 CFG=2
M  V30 6 C 2.499472 -3.489158 0.232581 0
M  V30 7 C 2.242901 -2.151973 -0.094161 0
M  V30 8 C 1.499522 -2.213705 -1.282496 0
M  V30 9 N 1.017731 -1.056723 -1.951604 0
M  V30 10 C 1.288749 0.235925 -1.423219 0
M  V30 11 C 2.140188 1.265092 -1.746816 0
M  V30 12 C 2.121259 2.388891 -0.953083 0
M  V30 13 N 1.316036 2.514659 0.104937 0
M  V30 14 C 0.488479 1.486700 0.398864 0
M  V30 15 N -0.323497 1.745438 1.564443 0
M  V30 16 C -1.492408 2.454467 1.029841 0
M  V30 17 C -2.239015 1.594908 0.036662 0 CFG=1
M  V30 18 C -2.708254 0.355809 0.717442 0
M  V30 19 C -3.623893 -0.480650 -0.156371 0
M  V30 20 C -3.861740 0.146066 -1.499856 0 CFG=2
M  V30 21 N -2.697750 -0.078813 -2.305416 0
M  V30 22 C -4.271864 1.584455 -1.415891 0
M  V30 23 C -3.362019 2.427500 -0.549435 0
M  V30 24 N 0.479851 0.364978 -0.358059 0
M  V30 25 N 1.345403 -3.511662 -1.614157 0
M  V30 26 N 1.940905 -4.293831 -0.711098 0
M  V30 27 C 2.272343 -4.662153 2.357950 0
M  V30 28 O 1.867156 -5.850323 2.342987 0
M  V30 29 H 1.140586 -3.228624 5.311009 0
M  V30 30 H 1.199067 -5.016738 5.009394 0
M  V30 31 H -0.082891 -3.956016 4.242120 0
M  V30 32 H 1.527270 -1.996795 2.334066 0
M  V30 33 H 2.419315 -1.821451 3.923737 0
M  V30 34 H 3.945302 -1.886386 1.728171 0
M  V30 35 H 4.305755 -3.057097 3.104656 0
M  V30 36 H 4.083535 -4.603212 1.196254 0
M  V30 37 H 2.523338 -1.234627 0.396040 0
M  V30 38 H 0.460251 -1.015750 -2.824138 0
M  V30 39 H 2.710474 0.995153 -2.619865 0
M  V30 40 H 2.827494 3.151550 -1.291149 0
M  V30 41 H -0.132812 1.488312 2.576216 0
M  V30 42 H -2.108393 2.682481 1.946933 0
M  V30 43 H -1.188672 3.422052 0.607723 0
M  V30 44 H -1.539920 1.391753 -0.803084 0
M  V30 45 H -1.846086 -0.262690 0.991173 0
M  V30 46 H -3.199163 0.634321 1.677362 0
M  V30 47 H -4.598460 -0.551865 0.368481 0
M  V30 48 H -3.229859 -1.499085 -0.317628 0
M  V30 49 H -4.721008 -0.398270 -1.961032 0
M  V30 50 H -2.751407 -0.993702 -2.842819 0
M  V30 51 H -2.436809 0.726704 -2.929353 0
M  V30 52 H -4.346603 2.004181 -2.437752 0
M  V30 53 H -5.282834 1.609402 -0.973320 0
M  V30 54 H -2.909534 3.221337 -1.199225 0
M  V30 55 H -3.927536 2.935364 0.237638 0
M  V30 56 H 1.963221 -5.351840 -0.744592 0
M  V30 END ATOM
M  V30 BEGIN BOND
M  V30 1 1 1 2
M  V30 2 1 2 3
M  V30 3 1 3 4
M  V30 4 1 4 5
M  V30 5 1 5 6
M  V30 6 2 6 7
M  V30 7 1 7 8
M  V30 8 1 8 9
M  V30 9 1 9 10
M  V30 10 2 10 11
M  V30 11 1 11 12
M  V30 12 2 12 13
M  V30 13 1 13 14
M  V30 14 1 14 15
M  V30 15 1 15 16
M  V30 16 1 16 17
M  V30 17 1 17 18
M  V30 18 1 18 19
M  V30 19 1 19 20
M  V30 20 1 20 21
M  V30 21 1 20 22
M  V30 22 1 22 23
M  V30 23 2 14 24
M  V30 24 2 8 25
M  V30 25 1 25 26
M  V30 26 1 5 27
M  V30 27 2 27 28
M  V30 28 1 27 2
M  V30 29 1 26 6
M  V30 30 1 24 10
M  V30 31 1 23 17
M  V30 32 1 1 29
M  V30 33 1 1 30
M  V30 34 1 1 31
M  V30 35 1 3 32
M  V30 36 1 3 33
M  V30 37 1 4 34
M  V30 38 1 4 35
M  V30 39 1 5 36 CFG=3
M  V30 40 1 7 37
M  V30 41 1 9 38
M  V30 42 1 11 39
M  V30 43 1 12 40
M  V30 44 1 15 41
M  V30 45 1 16 42
M  V30 46 1 16 43
M  V30 47 1 17 44 CFG=3
M  V30 48 1 18 45
M  V30 49 1 18 46
M  V30 50 1 19 47
M  V30 51 1 19 48
M  V30 52 1 20 49 CFG=3
M  V30 53 1 21 50
M  V30 54 1 21 51
M  V30 55 1 22 52
M  V30 56 1 22 53
M  V30 57 1 23 54
M  V30 58 1 23 55
M  V30 59 1 26 56
M  V30 END BOND
M  V30 END CTAB
M  END
>  <Dataset>  (760) 
ChEMBL_Kinases

>  <Ligand_Instance>  (760) 
nan

>  <PDB_ID>  (760) 
nan

>  <Standardized_SMILES>  (760) 
CN1CC[C@H](c2cc(Nc3ccnc(NC[C@H]4CC[C@H](N)CC4)n3)n[nH]2)C1=O

>  <Name>  (760) 
nan

>  <Pocket>  (760) 
nan

>  <ATP_Site>  (760) 
nan

>  <Peripheral>  (760) 
nan

>  <Num_H_Atoms_ProtBoundConf>  (760) 
nan

>  <Num_Resolved_Atoms>  (760) 
nan

>  <Num_Not_Resolved_Atoms>  (760) 
nan

$$$$
CHEMBL3660069
     RDKit          3D

  0  0  0  0  0  0  0  0  0  0999 V3000
M  V30 BEGIN CTAB
M  V30 COUNTS 52 56 0 0 0
M  V30 BEGIN ATOM
M  V30 1 C 0.477969 -2.454571 2.304582 0
M  V30 2 O -0.654969 -3.045090 1.846365 0
M  V30 3 C -0.850809 -3.150236 0.499029 0
M  V30 4 C -0.862511 -1.846420 -0.242013 0
M  V30 5 O 0.235269 -1.120932 -0.217553 0
M  V30 6 C 1.498500 -0.880610 -0.468388 0
M  V30 7 C 2.514658 -1.540115 -1.086122 0
M  V30 8 C 3.809547 -1.117765 -1.259594 0
M  V30 9 C 4.071654 0.125029 -0.733176 0
M  V30 10 C 3.142250 0.903822 -0.083516 0
M  V30 11 C 3.575239 2.124221 0.381687 0
M  V30 12 C 2.642525 2.901272 1.031281 0
M  V30 13 C 1.358566 2.424769 1.175691 0
M  V30 14 C 0.353530 3.232079 1.862725 0
M  V30 15 N 0.571837 4.450547 2.387469 0
M  V30 16 N -0.544951 4.913213 2.940448 0
M  V30 17 C -1.512839 3.993376 2.781219 0
M  V30 18 C -2.854751 3.967841 3.164495 0
M  V30 19 C -3.609696 2.857197 2.850273 0
M  V30 20 C -2.982276 1.833920 2.170564 0
M  V30 21 C -1.655259 1.876059 1.799644 0
M  V30 22 N -0.939559 2.965460 2.115244 0
M  V30 23 N 1.019867 1.220636 0.690803 0
M  V30 24 C 1.848719 0.382039 0.041731 0
M  V30 25 C -2.283885 -3.710577 0.325280 0
M  V30 26 C -2.290438 -4.838922 -0.660172 0
M  V30 27 N -1.536333 -4.614735 -1.851168 0
M  V30 28 C -0.144197 -4.297331 -1.584249 0
M  V30 29 C 0.125115 -4.129955 -0.125576 0
M  V30 30 H 0.449050 -2.513926 3.444776 0
M  V30 31 H 0.515945 -1.352818 2.121838 0
M  V30 32 H 1.433726 -2.893143 2.004365 0
M  V30 33 H -1.105721 -2.122877 -1.323252 0
M  V30 34 H -1.797763 -1.323675 0.160321 0
M  V30 35 H 2.265584 -2.493681 -1.491290 0
M  V30 36 H 4.535339 -1.726712 -1.767144 0
M  V30 37 H 5.089821 0.493470 -0.851897 0
M  V30 38 H 4.577388 2.454194 0.248529 0
M  V30 39 H 2.942393 3.866463 1.411735 0
M  V30 40 H -3.316211 4.793147 3.699516 0
M  V30 41 H -4.655011 2.804213 3.133006 0
M  V30 42 H -3.621880 0.975283 1.944123 0
M  V30 43 H -1.270649 1.016717 1.270977 0
M  V30 44 H -2.670059 -4.091149 1.277377 0
M  V30 45 H -2.984519 -2.936408 -0.021154 0
M  V30 46 H -1.966215 -5.764756 -0.148130 0
M  V30 47 H -3.365725 -4.952999 -0.986402 0
M  V30 48 H -1.975597 -3.993405 -2.535213 0
M  V30 49 H 0.426533 -5.189453 -1.944311 0
M  V30 50 H 0.197179 -3.425709 -2.157278 0
M  V30 51 H -0.017320 -5.133172 0.395943 0
M  V30 52 H 1.155284 -3.810364 0.040250 0
M  V30 END ATOM
M  V30 BEGIN BOND
M  V30 1 1 1 2
M  V30 2 1 2 3
M  V30 3 1 3 4
M  V30 4 1 4 5
M  V30 5 1 5 6
M  V30 6 2 6 7
M  V30 7 1 7 8
M  V30 8 2 8 9
M  V30 9 1 9 10
M  V30 10 2 10 11
M  V30 11 1 11 12
M  V30 12 2 12 13
M  V30 13 1 13 14
M  V30 14 2 14 15
M  V30 15 1 15 16
M  V30 16 2 16 17
M  V30 17 1 17 18
M  V30 18 2 18 19
M  V30 19 1 19 20
M  V30 20 2 20 21
M  V30 21 1 21 22
M  V30 22 1 13 23
M  V30 23 2 23 24
M  V30 24 1 3 25
M  V30 25 1 25 26
M  V30 26 1 26 27
M  V30 27 1 27 28
M  V30 28 1 28 29
M  V30 29 1 29 3
M  V30 30 1 24 6
M  V30 31 1 24 10
M  V30 32 1 22 14
M  V30 33 1 22 17
M  V30 34 1 1 30
M  V30 35 1 1 31
M  V30 36 1 1 32
M  V30 37 1 4 33
M  V30 38 1 4 34
M  V30 39 1 7 35
M  V30 40 1 8 36
M  V30 41 1 9 37
M  V30 42 1 11 38
M  V30 43 1 12 39
M  V30 44 1 18 40
M  V30 45 1 19 41
M  V30 46 1 20 42
M  V30 47 1 21 43
M  V30 48 1 25 44
M  V30 49 1 25 45
M  V30 50 1 26 46
M  V30 51 1 26 47
M  V30 52 1 27 48
M  V30 53 1 28 49
M  V30 54 1 28 50
M  V30 55 1 29 51
M  V30 56 1 29 52
M  V30 END BOND
M  V30 END CTAB
M  END
>  <Dataset>  (761) 
ChEMBL_Kinases

>  <Ligand_Instance>  (761) 
nan

>  <PDB_ID>  (761) 
nan

>  <Standardized_SMILES>  (761) 
COC1(COc2cccc3ccc(-c4nnc5ccccn45)nc23)CCNCC1

>  <Name>  (761) 
nan

>  <Pocket>  (761) 
nan

>  <ATP_Site>  (761) 
nan

>  <Peripheral>  (761) 
nan

>  <Num_H_Atoms_ProtBoundConf>  (761) 
nan

>  <Num_Resolved_Atoms>  (761) 
nan

>  <Num_Not_Resolved_Atoms>  (761) 
nan

$$$$
CHEMBL3594178
     RDKit          3D

  0  0  0  0  0  0  0  0  0  0999 V3000
M  V30 BEGIN CTAB
M  V30 COUNTS 62 65 0 0 0
M  V30 BEGIN ATOM
M  V30 1 C 1.205330 4.301183 0.592152 0
M  V30 2 C 2.195547 3.174839 0.904402 0
M  V30 3 N 1.492862 2.231441 1.756424 0
M  V30 4 C 2.333474 1.121883 2.130786 0
M  V30 5 C 2.703694 0.229083 0.959666 0 CFG=1
M  V30 6 C 3.544988 -0.884002 1.430335 0
M  V30 7 C 3.109055 -2.275872 1.154013 0
M  V30 8 C 1.956893 -2.426357 0.219177 0 CFG=2
M  V30 9 N 2.348353 -2.255020 -1.175135 0
M  V30 10 C 0.895524 -1.348844 0.492353 0
M  V30 11 C 1.568825 -0.076121 0.051704 0
M  V30 12 C 0.136374 2.231033 2.252490 0
M  V30 13 N -0.049744 3.181438 3.182707 0
M  V30 14 C -1.229466 3.364250 3.805106 0
M  V30 15 C -2.308440 2.566118 3.503074 0
M  V30 16 C -2.092022 1.598170 2.544983 0
M  V30 17 N -3.104107 0.676863 2.150782 0
M  V30 18 C -3.095232 -0.367262 1.182526 0
M  V30 19 C -3.488440 -0.652771 -0.099061 0
M  V30 20 C -3.099437 -1.938995 -0.379766 0
M  V30 21 C -3.377232 -2.572387 -1.678388 0 CFG=1
M  V30 22 C -2.115103 -2.602810 -2.530888 0
M  V30 23 C -1.522309 -3.967465 -2.418556 0
M  V30 24 N -2.439978 -4.694260 -1.551035 0
M  V30 25 C -2.071502 -5.940404 -0.894296 0
M  V30 26 C -3.695398 -4.000735 -1.466284 0
M  V30 27 O -4.733613 -4.657735 -1.250682 0
M  V30 28 N -2.486313 -2.405938 0.715403 0
M  V30 29 N -2.478507 -1.467461 1.663104 0
M  V30 30 N -0.911165 1.447722 1.950373 0
M  V30 31 H 0.326065 3.951244 0.038842 0
M  V30 32 H 1.722516 5.154214 0.087120 0
M  V30 33 H 0.839697 4.688354 1.564457 0
M  V30 34 H 3.010308 3.643051 1.500936 0
M  V30 35 H 2.574730 2.713875 -0.026775 0
M  V30 36 H 3.288788 1.544669 2.539725 0
M  V30 37 H 1.813595 0.470420 2.843917 0
M  V30 38 H 3.393427 0.901702 0.341239 0
M  V30 39 H 3.640141 -0.818509 2.561622 0
M  V30 40 H 4.623267 -0.751181 1.106200 0
M  V30 41 H 3.954197 -2.841893 0.714979 0
M  V30 42 H 2.859008 -2.858703 2.088855 0
M  V30 43 H 1.509536 -3.426356 0.335034 0
M  V30 44 H 2.856052 -3.089635 -1.540387 0
M  V30 45 H 1.510917 -2.111547 -1.781557 0
M  V30 46 H 0.039693 -1.646099 -0.137703 0
M  V30 47 H 0.681656 -1.336947 1.569514 0
M  V30 48 H 2.007918 -0.290806 -0.955492 0
M  V30 49 H 0.912546 0.788560 -0.040793 0
M  V30 50 H -1.361603 4.148078 4.562353 0
M  V30 51 H -3.282436 2.652278 3.960044 0
M  V30 52 H -4.014854 0.732499 2.615081 0
M  V30 53 H -3.996635 0.140117 -0.604113 0
M  V30 54 H -4.152506 -2.015564 -2.248459 0
M  V30 55 H -2.334166 -2.303169 -3.582674 0
M  V30 56 H -1.418636 -1.822916 -2.142107 0
M  V30 57 H -1.566858 -4.508495 -3.405126 0
M  V30 58 H -0.482218 -3.958833 -2.003825 0
M  V30 59 H -1.506400 -5.748337 0.059002 0
M  V30 60 H -2.969586 -6.547431 -0.680688 0
M  V30 61 H -1.364028 -6.484583 -1.561968 0
M  V30 62 H -2.108224 -3.379881 0.708987 0
M  V30 END ATOM
M  V30 BEGIN BOND
M  V30 1 1 1 2
M  V30 2 1 2 3
M  V30 3 1 3 4
M  V30 4 1 4 5
M  V30 5 1 5 6
M  V30 6 1 6 7
M  V30 7 1 7 8
M  V30 8 1 8 9
M  V30 9 1 8 10
M  V30 10 1 10 11
M  V30 11 1 3 12
M  V30 12 2 12 13
M  V30 13 1 13 14
M  V30 14 2 14 15
M  V30 15 1 15 16
M  V30 16 1 16 17
M  V30 17 1 17 18
M  V30 18 1 18 19
M  V30 19 2 19 20
M  V30 20 1 20 21
M  V30 21 1 21 22
M  V30 22 1 22 23
M  V30 23 1 23 24
M  V30 24 1 24 25
M  V30 25 1 24 26
M  V30 26 2 26 27
M  V30 27 1 20 28
M  V30 28 1 28 29
M  V30 29 2 16 30
M  V30 30 1 11 5
M  V30 31 1 30 12
M  V30 32 2 29 18
M  V30 33 1 26 21
M  V30 34 1 1 31
M  V30 35 1 1 32
M  V30 36 1 1 33
M  V30 37 1 2 34
M  V30 38 1 2 35
M  V30 39 1 4 36
M  V30 40 1 4 37
M  V30 41 1 5 38 CFG=3
M  V30 42 1 6 39
M  V30 43 1 6 40
M  V30 44 1 7 41
M  V30 45 1 7 42
M  V30 46 1 8 43 CFG=3
M  V30 47 1 9 44
M  V30 48 1 9 45
M  V30 49 1 10 46
M  V30 50 1 10 47
M  V30 51 1 11 48
M  V30 52 1 11 49
M  V30 53 1 14 50
M  V30 54 1 15 51
M  V30 55 1 17 52
M  V30 56 1 19 53
M  V30 57 1 21 54 CFG=3
M  V30 58 1 22 55
M  V30 59 1 22 56
M  V30 60 1 23 57
M  V30 61 1 23 58
M  V30 62 1 25 59
M  V30 63 1 25 60
M  V30 64 1 25 61
M  V30 65 1 28 62
M  V30 END BOND
M  V30 END CTAB
M  END
>  <Dataset>  (762) 
ChEMBL_Kinases

>  <Ligand_Instance>  (762) 
nan

>  <PDB_ID>  (762) 
nan

>  <Standardized_SMILES>  (762) 
CCN(C[C@H]1CC[C@H](N)CC1)c1nccc(Nc2cc([C@H]3CCN(C)C3=O)[nH]n2)n1

>  <Name>  (762) 
nan

>  <Pocket>  (762) 
nan

>  <ATP_Site>  (762) 
nan

>  <Peripheral>  (762) 
nan

>  <Num_H_Atoms_ProtBoundConf>  (762) 
nan

>  <Num_Resolved_Atoms>  (762) 
nan

>  <Num_Not_Resolved_Atoms>  (762) 
nan

$$$$
CHEMBL3594179
     RDKit          3D

  0  0  0  0  0  0  0  0  0  0999 V3000
M  V30 BEGIN CTAB
M  V30 COUNTS 62 65 0 0 0
M  V30 BEGIN ATOM
M  V30 1 C -0.937697 1.201396 4.099375 0
M  V30 2 N 0.391380 0.649218 3.930118 0
M  V30 3 C 0.830319 -0.677758 4.248096 0
M  V30 4 C 1.861100 -1.255046 3.342756 0
M  V30 5 C 2.998202 -0.364810 2.972047 0
M  V30 6 C 2.684560 1.078408 2.808121 0
M  V30 7 C 2.648292 1.499117 1.384806 0
M  V30 8 C 1.865117 0.717081 0.563519 0
M  V30 9 C 1.898019 1.204817 -0.728790 0
M  V30 10 N 1.343294 0.869148 -2.020827 0
M  V30 11 C -0.011333 1.329121 -1.813390 0
M  V30 12 C -0.479486 2.616558 -1.911747 0
M  V30 13 C -1.813645 2.827819 -1.660139 0
M  V30 14 N -2.621196 1.781513 -1.327221 0
M  V30 15 C -2.175431 0.512021 -1.228373 0
M  V30 16 N -3.169587 -0.442316 -0.875076 0
M  V30 17 C -4.515528 0.095292 -0.615177 0
M  V30 18 C -3.186121 -1.849741 -0.732216 0
M  V30 19 C -1.937810 -2.611001 -0.901009 0 CFG=1
M  V30 20 C -0.811382 -2.329014 0.024295 0
M  V30 21 C 0.454783 -2.670718 -0.754380 0
M  V30 22 C 0.383163 -4.143296 -1.042639 0 CFG=2
M  V30 23 N 0.680867 -4.471833 -2.420600 0
M  V30 24 C -0.861559 -4.820359 -0.551135 0
M  V30 25 C -2.144579 -4.125237 -0.843566 0
M  V30 26 N -0.876199 0.392246 -1.486418 0
M  V30 27 N 2.719424 2.298908 -0.661650 0
M  V30 28 N 3.147743 2.447829 0.599819 0
M  V30 29 C 1.374530 1.492312 3.392164 0
M  V30 30 O 1.231877 2.753944 3.350140 0
M  V30 31 H -0.835882 2.229402 4.508356 0
M  V30 32 H -1.513938 1.265410 3.175769 0
M  V30 33 H -1.510909 0.552347 4.814842 0
M  V30 34 H -0.093388 -1.326618 4.149796 0
M  V30 35 H 1.088084 -0.736993 5.330334 0
M  V30 36 H 1.345705 -1.711442 2.472648 0
M  V30 37 H 2.314989 -2.129381 3.891122 0
M  V30 38 H 3.884810 -0.548723 3.632441 0
M  V30 39 H 3.364186 -0.718589 1.960385 0
M  V30 40 H 3.462340 1.677717 3.365862 0
M  V30 41 H 1.243155 -0.163178 0.673052 0
M  V30 42 H 1.895526 0.421355 -2.789564 0
M  V30 43 H 0.253139 3.353176 -2.175737 0
M  V30 44 H -2.182407 3.840722 -1.731912 0
M  V30 45 H -4.355411 1.130491 -0.229219 0
M  V30 46 H -5.074886 -0.530687 0.080855 0
M  V30 47 H -5.105224 0.201622 -1.562556 0
M  V30 48 H -3.948916 -2.233115 -1.484281 0
M  V30 49 H -3.646351 -2.135241 0.243053 0
M  V30 50 H -1.582080 -2.425184 -1.966576 0
M  V30 51 H -0.825301 -3.109185 0.859014 0
M  V30 52 H -0.795642 -1.383551 0.545482 0
M  V30 53 H 0.300572 -2.155828 -1.748142 0
M  V30 54 H 1.373469 -2.323564 -0.291213 0
M  V30 55 H 1.239240 -4.590970 -0.451738 0
M  V30 56 H 0.760199 -3.649738 -3.031364 0
M  V30 57 H 1.525819 -5.060604 -2.547725 0
M  V30 58 H -0.892843 -5.808567 -1.096583 0
M  V30 59 H -0.719381 -5.111721 0.514095 0
M  V30 60 H -2.721871 -4.514502 -1.690738 0
M  V30 61 H -2.797205 -4.281928 0.065736 0
M  V30 62 H 3.778106 3.149205 1.057316 0
M  V30 END ATOM
M  V30 BEGIN BOND
M  V30 1 1 1 2
M  V30 2 1 2 3
M  V30 3 1 3 4
M  V30 4 1 4 5
M  V30 5 1 5 6
M  V30 6 1 6 7
M  V30 7 2 7 8
M  V30 8 1 8 9
M  V30 9 1 9 10
M  V30 10 1 10 11
M  V30 11 2 11 12
M  V30 12 1 12 13
M  V30 13 2 13 14
M  V30 14 1 14 15
M  V30 15 1 15 16
M  V30 16 1 16 17
M  V30 17 1 16 18
M  V30 18 1 18 19
M  V30 19 1 19 20
M  V30 20 1 20 21
M  V30 21 1 21 22
M  V30 22 1 22 23
M  V30 23 1 22 24
M  V30 24 1 24 25
M  V30 25 2 15 26
M  V30 26 2 9 27
M  V30 27 1 27 28
M  V30 28 1 6 29
M  V30 29 2 29 30
M  V30 30 1 29 2
M  V30 31 1 28 7
M  V30 32 1 26 11
M  V30 33 1 25 19
M  V30 34 1 1 31
M  V30 35 1 1 32
M  V30 36 1 1 33
M  V30 37 1 3 34
M  V30 38 1 3 35
M  V30 39 1 4 36
M  V30 40 1 4 37
M  V30 41 1 5 38
M  V30 42 1 5 39
M  V30 43 1 6 40
M  V30 44 1 8 41
M  V30 45 1 10 42
M  V30 46 1 12 43
M  V30 47 1 13 44
M  V30 48 1 17 45
M  V30 49 1 17 46
M  V30 50 1 17 47
M  V30 51 1 18 48
M  V30 52 1 18 49
M  V30 53 1 19 50 CFG=3
M  V30 54 1 20 51
M  V30 55 1 20 52
M  V30 56 1 21 53
M  V30 57 1 21 54
M  V30 58 1 22 55 CFG=1
M  V30 59 1 23 56
M  V30 60 1 23 57
M  V30 61 1 24 58
M  V30 62 1 24 59
M  V30 63 1 25 60
M  V30 64 1 25 61
M  V30 65 1 28 62
M  V30 END BOND
M  V30 END CTAB
M  END
>  <Dataset>  (763) 
ChEMBL_Kinases

>  <Ligand_Instance>  (763) 
nan

>  <PDB_ID>  (763) 
nan

>  <Standardized_SMILES>  (763) 
CN1CCCC(c2cc(Nc3ccnc(N(C)C[C@H]4CC[C@H](N)CC4)n3)n[nH]2)C1=O

>  <Name>  (763) 
nan

>  <Pocket>  (763) 
nan

>  <ATP_Site>  (763) 
nan

>  <Peripheral>  (763) 
nan

>  <Num_H_Atoms_ProtBoundConf>  (763) 
nan

>  <Num_Resolved_Atoms>  (763) 
nan

>  <Num_Not_Resolved_Atoms>  (763) 
nan

$$$$
CHEMBL3660067
     RDKit          3D

  0  0  0  0  0  0  0  0  0  0999 V3000
M  V30 BEGIN CTAB
M  V30 COUNTS 62 67 0 0 0
M  V30 BEGIN ATOM
M  V30 1 O 0.877850 -3.077602 0.390187 0
M  V30 2 C -0.141762 -2.730018 1.215240 0
M  V30 3 C 0.190379 -1.945111 2.431881 0
M  V30 4 O 0.771740 -0.735683 2.216106 0
M  V30 5 C 1.930336 -0.326756 1.692548 0
M  V30 6 C 3.048009 -0.881853 1.166962 0
M  V30 7 C 4.156446 -0.250579 0.673710 0
M  V30 8 C 4.156056 1.126212 0.707731 0
M  V30 9 C 3.073674 1.792468 1.220975 0
M  V30 10 C 3.189653 3.164272 1.202062 0
M  V30 11 C 2.139182 3.902447 1.702522 0
M  V30 12 C 1.045360 3.223288 2.187449 0
M  V30 13 C -0.096207 3.951447 2.728899 0
M  V30 14 N -0.196203 5.289060 2.808664 0
M  V30 15 N -1.358446 5.648895 3.349840 0
M  V30 16 C -2.022185 4.499875 3.624493 0
M  V30 17 C -3.266295 4.263601 4.187925 0
M  V30 18 C -3.739831 2.975971 4.371932 0
M  V30 19 C -2.926696 1.922541 3.972962 0
M  V30 20 C -1.697512 2.211564 3.417713 0
M  V30 21 N -1.234065 3.457642 3.237272 0
M  V30 22 N 1.013497 1.883749 2.168553 0
M  V30 23 C 1.970886 1.080967 1.709168 0
M  V30 24 C -0.874706 -4.023115 1.579284 0
M  V30 25 C -0.962579 -4.864985 0.331121 0
M  V30 26 N -0.870932 -4.017078 -0.820435 0
M  V30 27 C -0.986584 -4.709379 -2.064209 0
M  V30 28 C -0.905392 -3.848191 -3.256413 0
M  V30 29 C 0.348225 -3.603661 -3.807571 0
M  V30 30 C 0.464815 -2.798545 -4.933084 0
M  V30 31 C -0.616759 -2.207704 -5.558542 0
M  V30 32 C -1.840137 -2.459120 -5.003215 0
M  V30 33 C -1.986762 -3.255222 -3.884976 0
M  V30 34 C -1.773496 -2.906157 -0.653802 0
M  V30 35 C -1.147540 -1.945883 0.366507 0
M  V30 36 H 1.199878 -4.010917 0.447022 0
M  V30 37 H 0.866232 -2.526242 3.124379 0
M  V30 38 H -0.801585 -1.781032 2.967867 0
M  V30 39 H 3.066810 -1.951656 1.159514 0
M  V30 40 H 4.979026 -0.820408 0.282309 0
M  V30 41 H 5.033421 1.629319 0.317475 0
M  V30 42 H 4.037474 3.678082 0.825901 0
M  V30 43 H 2.091272 4.980844 1.751405 0
M  V30 44 H -3.840320 5.154131 4.473317 0
M  V30 45 H -4.723678 2.831439 4.818621 0
M  V30 46 H -3.271896 0.906761 4.104990 0
M  V30 47 H -1.095727 1.367490 3.120899 0
M  V30 48 H -0.245705 -4.555265 2.310269 0
M  V30 49 H -1.885250 -3.805325 1.962343 0
M  V30 50 H -1.908665 -5.438693 0.370605 0
M  V30 51 H -0.146603 -5.635922 0.324723 0
M  V30 52 H -0.189418 -5.475408 -2.110220 0
M  V30 53 H -1.980011 -5.220879 -2.077596 0
M  V30 54 H 1.276033 -3.992306 -3.433228 0
M  V30 55 H 1.445033 -2.592454 -5.384396 0
M  V30 56 H -0.503108 -1.596451 -6.417416 0
M  V30 57 H -2.749015 -2.038670 -5.424446 0
M  V30 58 H -2.968528 -3.429695 -3.479393 0
M  V30 59 H -2.744673 -3.245812 -0.190868 0
M  V30 60 H -1.977677 -2.348948 -1.591218 0
M  V30 61 H -1.942983 -1.481558 0.967021 0
M  V30 62 H -0.553534 -1.230020 -0.215633 0
M  V30 END ATOM
M  V30 BEGIN BOND
M  V30 1 1 1 2
M  V30 2 1 2 3
M  V30 3 1 3 4
M  V30 4 1 4 5
M  V30 5 2 5 6
M  V30 6 1 6 7
M  V30 7 2 7 8
M  V30 8 1 8 9
M  V30 9 2 9 10
M  V30 10 1 10 11
M  V30 11 2 11 12
M  V30 12 1 12 13
M  V30 13 2 13 14
M  V30 14 1 14 15
M  V30 15 2 15 16
M  V30 16 1 16 17
M  V30 17 2 17 18
M  V30 18 1 18 19
M  V30 19 2 19 20
M  V30 20 1 20 21
M  V30 21 1 12 22
M  V30 22 2 22 23
M  V30 23 1 2 24
M  V30 24 1 24 25
M  V30 25 1 25 26
M  V30 26 1 26 27
M  V30 27 1 27 28
M  V30 28 2 28 29
M  V30 29 1 29 30
M  V30 30 2 30 31
M  V30 31 1 31 32
M  V30 32 2 32 33
M  V30 33 1 26 34
M  V30 34 1 34 35
M  V30 35 1 35 2
M  V30 36 1 23 5
M  V30 37 1 33 28
M  V30 38 1 23 9
M  V30 39 1 21 13
M  V30 40 1 21 16
M  V30 41 1 1 36
M  V30 42 1 3 37
M  V30 43 1 3 38
M  V30 44 1 6 39
M  V30 45 1 7 40
M  V30 46 1 8 41
M  V30 47 1 10 42
M  V30 48 1 11 43
M  V30 49 1 17 44
M  V30 50 1 18 45
M  V30 51 1 19 46
M  V30 52 1 20 47
M  V30 53 1 24 48
M  V30 54 1 24 49
M  V30 55 1 25 50
M  V30 56 1 25 51
M  V30 57 1 27 52
M  V30 58 1 27 53
M  V30 59 1 29 54
M  V30 60 1 30 55
M  V30 61 1 31 56
M  V30 62 1 32 57
M  V30 63 1 33 58
M  V30 64 1 34 59
M  V30 65 1 34 60
M  V30 66 1 35 61
M  V30 67 1 35 62
M  V30 END BOND
M  V30 END CTAB
M  END
>  <Dataset>  (764) 
ChEMBL_Kinases

>  <Ligand_Instance>  (764) 
nan

>  <PDB_ID>  (764) 
nan

>  <Standardized_SMILES>  (764) 
OC1(COc2cccc3ccc(-c4nnc5ccccn45)nc23)CCN(Cc2ccccc2)CC1

>  <Name>  (764) 
nan

>  <Pocket>  (764) 
nan

>  <ATP_Site>  (764) 
nan

>  <Peripheral>  (764) 
nan

>  <Num_H_Atoms_ProtBoundConf>  (764) 
nan

>  <Num_Resolved_Atoms>  (764) 
nan

>  <Num_Not_Resolved_Atoms>  (764) 
nan

$$$$
CHEMBL3594180
     RDKit          3D

  0  0  0  0  0  0  0  0  0  0999 V3000
M  V30 BEGIN CTAB
M  V30 COUNTS 62 65 0 0 0
M  V30 BEGIN ATOM
M  V30 1 C -0.476760 -0.041377 4.729825 0
M  V30 2 C 0.466972 -1.212995 4.641962 0
M  V30 3 N 1.732215 -0.785527 4.080023 0
M  V30 4 C 2.929443 -0.291217 4.676462 0
M  V30 5 C 3.659906 0.367878 3.538754 0
M  V30 6 C 3.011997 0.010511 2.251476 0 CFG=2
M  V30 7 C 2.353732 1.177856 1.580733 0
M  V30 8 C 2.012259 1.299702 0.234243 0
M  V30 9 C 1.419429 2.552094 0.002834 0
M  V30 10 N 1.018020 2.739614 -1.375307 0
M  V30 11 C -0.388156 2.445879 -1.267859 0
M  V30 12 C -1.331910 3.459826 -1.344031 0
M  V30 13 C -2.675747 3.159296 -1.202852 0
M  V30 14 N -3.012591 1.869631 -0.993338 0
M  V30 15 C -2.119363 0.867792 -0.914999 0
M  V30 16 N -2.635007 -0.453132 -0.652872 0
M  V30 17 C -2.586704 -0.764016 0.752004 0
M  V30 18 C -3.117353 -1.236152 -1.751795 0
M  V30 19 C -2.336206 -2.451124 -2.109113 0 CFG=1
M  V30 20 C -0.918276 -2.207196 -2.508044 0
M  V30 21 C -0.002979 -2.964207 -1.564347 0
M  V30 22 C -0.256227 -4.437813 -1.759099 0 CFG=2
M  V30 23 N 0.054272 -4.824821 -3.138168 0
M  V30 24 C -1.668598 -4.746988 -1.381745 0
M  V30 25 C -2.457745 -3.498323 -1.021285 0
M  V30 26 N -0.818817 1.203674 -1.059061 0
M  V30 27 N 1.421147 3.151529 1.217072 0
M  V30 28 N 1.958479 2.349366 2.102942 0
M  V30 29 C 1.842983 -0.860895 2.667617 0
M  V30 30 O 1.182432 -1.483726 1.769626 0
M  V30 31 H -0.377181 0.538625 5.677299 0
M  V30 32 H -0.304998 0.695470 3.904911 0
M  V30 33 H -1.550885 -0.360755 4.591519 0
M  V30 34 H 0.679065 -1.617935 5.674446 0
M  V30 35 H -0.020052 -2.031572 4.111787 0
M  V30 36 H 2.751615 0.394050 5.530716 0
M  V30 37 H 3.510115 -1.188206 5.015473 0
M  V30 38 H 3.640385 1.459872 3.754637 0
M  V30 39 H 4.732616 0.007072 3.589671 0
M  V30 40 H 3.640594 -0.553894 1.530056 0
M  V30 41 H 2.242727 0.443274 -0.426758 0
M  V30 42 H 1.648939 3.012395 -2.157659 0
M  V30 43 H -0.976577 4.475830 -1.516679 0
M  V30 44 H -3.401995 3.957070 -1.263595 0
M  V30 45 H -1.587171 -1.081986 1.109847 0
M  V30 46 H -2.807932 0.186630 1.328891 0
M  V30 47 H -3.364839 -1.488238 1.088649 0
M  V30 48 H -3.247914 -0.580279 -2.667760 0
M  V30 49 H -4.176029 -1.593051 -1.574353 0
M  V30 50 H -2.865951 -2.916636 -2.996725 0
M  V30 51 H -0.710878 -1.135737 -2.535790 0
M  V30 52 H -0.713103 -2.670116 -3.522671 0
M  V30 53 H -0.197353 -2.702684 -0.525199 0
M  V30 54 H 1.049334 -2.698482 -1.879480 0
M  V30 55 H 0.488333 -4.960434 -1.086369 0
M  V30 56 H 0.718553 -4.127598 -3.580062 0
M  V30 57 H 0.574922 -5.741446 -3.103939 0
M  V30 58 H -1.660641 -5.401463 -0.487664 0
M  V30 59 H -2.173701 -5.303253 -2.194062 0
M  V30 60 H -3.521272 -3.784324 -0.938904 0
M  V30 61 H -2.129810 -3.082780 -0.069440 0
M  V30 62 H 2.049059 2.633201 3.101259 0
M  V30 END ATOM
M  V30 BEGIN BOND
M  V30 1 1 1 2
M  V30 2 1 2 3
M  V30 3 1 3 4
M  V30 4 1 4 5
M  V30 5 1 5 6
M  V30 6 1 6 7
M  V30 7 2 7 8
M  V30 8 1 8 9
M  V30 9 1 9 10
M  V30 10 1 10 11
M  V30 11 2 11 12
M  V30 12 1 12 13
M  V30 13 2 13 14
M  V30 14 1 14 15
M  V30 15 1 15 16
M  V30 16 1 16 17
M  V30 17 1 16 18
M  V30 18 1 18 19
M  V30 19 1 19 20
M  V30 20 1 20 21
M  V30 21 1 21 22
M  V30 22 1 22 23
M  V30 23 1 22 24
M  V30 24 1 24 25
M  V30 25 2 15 26
M  V30 26 2 9 27
M  V30 27 1 27 28
M  V30 28 1 6 29
M  V30 29 2 29 30
M  V30 30 1 29 3
M  V30 31 1 28 7
M  V30 32 1 26 11
M  V30 33 1 25 19
M  V30 34 1 1 31
M  V30 35 1 1 32
M  V30 36 1 1 33
M  V30 37 1 2 34
M  V30 38 1 2 35
M  V30 39 1 4 36
M  V30 40 1 4 37
M  V30 41 1 5 38
M  V30 42 1 5 39
M  V30 43 1 6 40 CFG=3
M  V30 44 1 8 41
M  V30 45 1 10 42
M  V30 46 1 12 43
M  V30 47 1 13 44
M  V30 48 1 17 45
M  V30 49 1 17 46
M  V30 50 1 17 47
M  V30 51 1 18 48
M  V30 52 1 18 49
M  V30 53 1 19 50 CFG=3
M  V30 54 1 20 51
M  V30 55 1 20 52
M  V30 56 1 21 53
M  V30 57 1 21 54
M  V30 58 1 22 55 CFG=1
M  V30 59 1 23 56
M  V30 60 1 23 57
M  V30 61 1 24 58
M  V30 62 1 24 59
M  V30 63 1 25 60
M  V30 64 1 25 61
M  V30 65 1 28 62
M  V30 END BOND
M  V30 END CTAB
M  END
>  <Dataset>  (765) 
ChEMBL_Kinases

>  <Ligand_Instance>  (765) 
nan

>  <PDB_ID>  (765) 
nan

>  <Standardized_SMILES>  (765) 
CCN1CC[C@H](c2cc(Nc3ccnc(N(C)C[C@H]4CC[C@H](N)CC4)n3)n[nH]2)C1=O

>  <Name>  (765) 
nan

>  <Pocket>  (765) 
nan

>  <ATP_Site>  (765) 
nan

>  <Peripheral>  (765) 
nan

>  <Num_H_Atoms_ProtBoundConf>  (765) 
nan

>  <Num_Resolved_Atoms>  (765) 
nan

>  <Num_Not_Resolved_Atoms>  (765) 
nan

$$$$
CHEMBL3594181
     RDKit          3D

  0  0  0  0  0  0  0  0  0  0999 V3000
M  V30 BEGIN CTAB
M  V30 COUNTS 62 65 0 0 0
M  V30 BEGIN ATOM
M  V30 1 C 0.495732 -0.668896 2.712185 0
M  V30 2 C 1.781851 -0.051355 3.134626 0 CFG=1
M  V30 3 C 2.755882 -1.034990 3.765011 0
M  V30 4 N 3.954870 -0.192977 3.835979 0
M  V30 5 C 4.804556 -0.348475 5.026781 0
M  V30 6 C 3.933668 0.595209 2.623408 0
M  V30 7 O 4.990451 1.271958 2.430128 0
M  V30 8 C 2.657511 0.385124 1.933531 0 CFG=2
M  V30 9 C 2.071554 1.624347 1.344807 0
M  V30 10 C 1.268333 1.489810 0.199560 0
M  V30 11 C 0.799349 2.745507 -0.191133 0
M  V30 12 N -0.072943 2.857677 -1.348695 0
M  V30 13 C -1.340037 2.569908 -0.696654 0
M  V30 14 C -2.263669 3.413554 -0.167586 0
M  V30 15 C -3.369625 2.841226 0.425237 0
M  V30 16 N -3.512670 1.499124 0.469252 0
M  V30 17 C -2.587827 0.656585 -0.060913 0
M  V30 18 N -3.008730 -0.693983 0.144434 0
M  V30 19 C -2.913742 -1.116939 1.549443 0
M  V30 20 C -3.496088 -1.659931 -0.823857 0
M  V30 21 C -2.459752 -2.754329 -0.928767 0 CFG=1
M  V30 22 C -2.848817 -3.829876 -1.921815 0
M  V30 23 C -2.079198 -3.733667 -3.199544 0
M  V30 24 C -0.582605 -3.719248 -2.977891 0 CFG=2
M  V30 25 N 0.014554 -4.990373 -3.377758 0
M  V30 26 C -0.192824 -3.357573 -1.579891 0
M  V30 27 C -1.091236 -2.198988 -1.136281 0
M  V30 28 N -1.492390 1.217122 -0.648711 0
M  V30 29 N 1.323866 3.588951 0.712043 0
M  V30 30 N 2.051855 2.923660 1.585074 0
M  V30 31 H 0.326372 -0.581084 1.620015 0
M  V30 32 H 0.327966 -1.707109 3.072328 0
M  V30 33 H -0.337829 -0.052775 3.164048 0
M  V30 34 H 1.686373 0.798741 3.811040 0
M  V30 35 H 2.411130 -1.403794 4.727808 0
M  V30 36 H 2.899216 -1.851557 3.019210 0
M  V30 37 H 4.941672 -1.428453 5.252425 0
M  V30 38 H 5.776548 0.150759 4.911595 0
M  V30 39 H 4.219002 0.070092 5.876494 0
M  V30 40 H 2.645260 -0.420106 1.191308 0
M  V30 41 H 1.012805 0.567578 -0.353836 0
M  V30 42 H 0.186606 3.080492 -2.341297 0
M  V30 43 H -2.000292 4.447466 -0.287426 0
M  V30 44 H -4.083911 3.545111 0.840799 0
M  V30 45 H -2.252751 -1.987239 1.659658 0
M  V30 46 H -3.963936 -1.439357 1.817504 0
M  V30 47 H -2.654672 -0.309959 2.232848 0
M  V30 48 H -3.596329 -1.111852 -1.797537 0
M  V30 49 H -4.466508 -2.076338 -0.493953 0
M  V30 50 H -2.439102 -3.240668 0.092935 0
M  V30 51 H -3.927796 -3.835351 -2.167261 0
M  V30 52 H -2.631457 -4.838542 -1.474691 0
M  V30 53 H -2.423822 -2.887718 -3.822745 0
M  V30 54 H -2.312157 -4.652672 -3.794219 0
M  V30 55 H -0.171703 -2.931329 -3.648447 0
M  V30 56 H -0.724833 -5.718870 -3.508619 0
M  V30 57 H 0.785959 -5.281377 -2.744777 0
M  V30 58 H 0.843540 -2.950760 -1.566961 0
M  V30 59 H -0.328356 -4.146736 -0.835195 0
M  V30 60 H -1.062751 -1.363887 -1.857813 0
M  V30 61 H -0.663975 -1.869757 -0.147428 0
M  V30 62 H 2.586672 3.276648 2.403892 0
M  V30 END ATOM
M  V30 BEGIN BOND
M  V30 1 1 1 2
M  V30 2 1 2 3
M  V30 3 1 3 4
M  V30 4 1 4 5
M  V30 5 1 4 6
M  V30 6 2 6 7
M  V30 7 1 6 8
M  V30 8 1 8 9
M  V30 9 2 9 10
M  V30 10 1 10 11
M  V30 11 1 11 12
M  V30 12 1 12 13
M  V30 13 2 13 14
M  V30 14 1 14 15
M  V30 15 2 15 16
M  V30 16 1 16 17
M  V30 17 1 17 18
M  V30 18 1 18 19
M  V30 19 1 18 20
M  V30 20 1 20 21
M  V30 21 1 21 22
M  V30 22 1 22 23
M  V30 23 1 23 24
M  V30 24 1 24 25
M  V30 25 1 24 26
M  V30 26 1 26 27
M  V30 27 2 17 28
M  V30 28 2 11 29
M  V30 29 1 29 30
M  V30 30 1 8 2
M  V30 31 1 30 9
M  V30 32 1 28 13
M  V30 33 1 27 21
M  V30 34 1 1 31
M  V30 35 1 1 32
M  V30 36 1 1 33
M  V30 37 1 2 34 CFG=1
M  V30 38 1 3 35
M  V30 39 1 3 36
M  V30 40 1 5 37
M  V30 41 1 5 38
M  V30 42 1 5 39
M  V30 43 1 8 40 CFG=3
M  V30 44 1 10 41
M  V30 45 1 12 42
M  V30 46 1 14 43
M  V30 47 1 15 44
M  V30 48 1 19 45
M  V30 49 1 19 46
M  V30 50 1 19 47
M  V30 51 1 20 48
M  V30 52 1 20 49
M  V30 53 1 21 50 CFG=1
M  V30 54 1 22 51
M  V30 55 1 22 52
M  V30 56 1 23 53
M  V30 57 1 23 54
M  V30 58 1 24 55 CFG=3
M  V30 59 1 25 56
M  V30 60 1 25 57
M  V30 61 1 26 58
M  V30 62 1 26 59
M  V30 63 1 27 60
M  V30 64 1 27 61
M  V30 65 1 30 62
M  V30 END BOND
M  V30 END CTAB
M  END
>  <Dataset>  (766) 
ChEMBL_Kinases

>  <Ligand_Instance>  (766) 
nan

>  <PDB_ID>  (766) 
nan

>  <Standardized_SMILES>  (766) 
C[C@H]1CN(C)C(=O)[C@@H]1c1cc(Nc2ccnc(N(C)C[C@H]3CC[C@H](N)CC3)n2)n[nH]1

>  <Name>  (766) 
nan

>  <Pocket>  (766) 
nan

>  <ATP_Site>  (766) 
nan

>  <Peripheral>  (766) 
nan

>  <Num_H_Atoms_ProtBoundConf>  (766) 
nan

>  <Num_Resolved_Atoms>  (766) 
nan

>  <Num_Not_Resolved_Atoms>  (766) 
nan

$$$$
CHEMBL3884086
     RDKit          3D

  0  0  0  0  0  0  0  0  0  0999 V3000
M  V30 BEGIN CTAB
M  V30 COUNTS 30 32 0 0 0
M  V30 BEGIN ATOM
M  V30 1 N 1.225558 -0.810750 -2.593838 0
M  V30 2 C 0.855557 -0.779295 -1.473668 0
M  V30 3 C 0.376226 -0.729910 -0.097451 0
M  V30 4 C 1.195011 -1.353977 0.689355 0
M  V30 5 C 2.440850 -2.041920 0.408553 0
M  V30 6 C 2.801670 -3.284920 0.891032 0
M  V30 7 C 4.048973 -3.817379 0.555482 0
M  V30 8 C 4.958435 -3.162892 -0.243357 0
M  V30 9 N 4.579357 -1.942765 -0.704321 0
M  V30 10 C 3.385049 -1.406584 -0.397370 0
M  V30 11 C -0.843396 -0.005086 0.165275 0
M  V30 12 C -1.610475 0.503819 -0.892991 0
M  V30 13 N -2.679737 1.147899 -0.415602 0
M  V30 14 C -2.710047 1.122382 0.922854 0
M  V30 15 C -3.520808 1.601189 1.925720 0
M  V30 16 C -3.254587 1.405197 3.261193 0
M  V30 17 C -2.116210 0.693375 3.557378 0
M  V30 18 F -1.865586 0.507751 4.875579 0
M  V30 19 C -1.291286 0.205519 2.571209 0
M  V30 20 C -1.574868 0.410812 1.249691 0
M  V30 21 H 0.970219 -1.418405 1.718904 0
M  V30 22 H 2.080897 -3.811462 1.528683 0
M  V30 23 H 4.280723 -4.782334 0.954961 0
M  V30 24 H 5.923360 -3.588076 -0.496182 0
M  V30 25 H 3.292467 -0.447658 -0.844997 0
M  V30 26 H -1.488725 0.460972 -1.969390 0
M  V30 27 H -3.440335 1.635001 -0.947243 0
M  V30 28 H -4.400197 2.157592 1.558285 0
M  V30 29 H -3.980969 1.840139 3.946513 0
M  V30 30 H -0.434250 -0.325374 2.878649 0
M  V30 END ATOM
M  V30 BEGIN BOND
M  V30 1 3 1 2
M  V30 2 1 2 3
M  V30 3 2 3 4
M  V30 4 1 4 5
M  V30 5 2 5 6
M  V30 6 1 6 7
M  V30 7 2 7 8
M  V30 8 1 8 9
M  V30 9 2 9 10
M  V30 10 1 3 11
M  V30 11 2 11 12
M  V30 12 1 12 13
M  V30 13 1 13 14
M  V30 14 2 14 15
M  V30 15 1 15 16
M  V30 16 2 16 17
M  V30 17 1 17 18
M  V30 18 1 17 19
M  V30 19 2 19 20
M  V30 20 1 10 5
M  V30 21 1 20 11
M  V30 22 1 20 14
M  V30 23 1 4 21
M  V30 24 1 6 22
M  V30 25 1 7 23
M  V30 26 1 8 24
M  V30 27 1 10 25
M  V30 28 1 12 26
M  V30 29 1 13 27
M  V30 30 1 15 28
M  V30 31 1 16 29
M  V30 32 1 19 30
M  V30 END BOND
M  V30 END CTAB
M  END
>  <Dataset>  (767) 
ChEMBL_Kinases

>  <Ligand_Instance>  (767) 
nan

>  <PDB_ID>  (767) 
nan

>  <Standardized_SMILES>  (767) 
N#C/C(=C\c1cccnc1)c1c[nH]c2ccc(F)cc12

>  <Name>  (767) 
nan

>  <Pocket>  (767) 
nan

>  <ATP_Site>  (767) 
nan

>  <Peripheral>  (767) 
nan

>  <Num_H_Atoms_ProtBoundConf>  (767) 
nan

>  <Num_Resolved_Atoms>  (767) 
nan

>  <Num_Not_Resolved_Atoms>  (767) 
nan

$$$$
CHEMBL3660036
     RDKit          3D

  0  0  0  0  0  0  0  0  0  0999 V3000
M  V30 BEGIN CTAB
M  V30 COUNTS 53 56 0 0 0
M  V30 BEGIN ATOM
M  V30 1 C -2.848496 -0.390727 -1.177967 0
M  V30 2 C -1.471912 -0.717646 -1.590490 0
M  V30 3 C -0.557361 -1.388419 -0.621933 0
M  V30 4 O 0.689897 -1.474771 -1.304992 0
M  V30 5 C 1.876532 -0.925606 -1.062502 0
M  V30 6 C 2.809182 -1.409336 -1.989972 0
M  V30 7 C 4.154549 -1.023276 -1.998798 0
M  V30 8 C 4.567275 -0.124239 -1.044664 0
M  V30 9 C 3.646307 0.338481 -0.149422 0
M  V30 10 C 4.028792 1.246864 0.805749 0
M  V30 11 C 3.074112 1.701586 1.680819 0
M  V30 12 C 1.722878 1.324116 1.695951 0
M  V30 13 C 0.934368 2.006811 2.702222 0
M  V30 14 N 1.385776 2.823876 3.654839 0
M  V30 15 N 0.416894 3.303455 4.398184 0
M  V30 16 C -0.750531 2.811070 3.956617 0
M  V30 17 C -2.056316 2.985915 4.355123 0
M  V30 18 C -3.086112 2.349549 3.695577 0
M  V30 19 C -2.732552 1.545460 2.635299 0
M  V30 20 C -1.404631 1.427780 2.306210 0
M  V30 21 N -0.387370 2.031743 2.928676 0
M  V30 22 N 1.384243 0.433523 0.750074 0
M  V30 23 C 2.322321 -0.029844 -0.127678 0
M  V30 24 C -0.977510 -2.868971 -0.442995 0 CFG=2
M  V30 25 C -2.330942 -3.091715 0.063750 0
M  V30 26 C -2.677769 -4.582971 0.226549 0
M  V30 27 C 0.051156 -3.531915 0.445529 0
M  V30 28 N -0.251298 -4.906471 0.638114 0
M  V30 29 H -3.111453 -0.501613 -0.119845 0
M  V30 30 H -2.997648 0.743335 -1.341945 0
M  V30 31 H -3.654945 -0.834199 -1.796158 0
M  V30 32 H -1.582038 -1.358755 -2.534734 0
M  V30 33 H -0.976511 0.208910 -2.037158 0
M  V30 34 H -0.479157 -0.959570 0.355660 0
M  V30 35 H 2.620958 -2.114524 -2.787645 0
M  V30 36 H 4.898041 -1.365885 -2.685158 0
M  V30 37 H 5.601578 0.229133 -0.980617 0
M  V30 38 H 5.053596 1.563033 0.828735 0
M  V30 39 H 3.491860 2.420492 2.397521 0
M  V30 40 H -2.289463 3.630666 5.197950 0
M  V30 41 H -4.124633 2.457748 3.974127 0
M  V30 42 H -3.521316 1.035184 2.100517 0
M  V30 43 H -1.215729 0.801275 1.467915 0
M  V30 44 H -0.839658 -3.309600 -1.454965 0
M  V30 45 H -2.545409 -2.625818 1.046271 0
M  V30 46 H -3.141413 -2.718270 -0.619875 0
M  V30 47 H -3.791206 -4.712420 0.098400 0
M  V30 48 H -2.166389 -5.159400 -0.550806 0
M  V30 49 H -2.427888 -4.942072 1.234404 0
M  V30 50 H 1.040036 -3.495301 -0.091807 0
M  V30 51 H 0.119164 -3.044837 1.439287 0
M  V30 52 H 0.163866 -5.549809 -0.092152 0
M  V30 53 H -0.069659 -5.276005 1.591807 0
M  V30 END ATOM
M  V30 BEGIN BOND
M  V30 1 1 1 2
M  V30 2 1 2 3
M  V30 3 1 3 4
M  V30 4 1 4 5
M  V30 5 2 5 6
M  V30 6 1 6 7
M  V30 7 2 7 8
M  V30 8 1 8 9
M  V30 9 2 9 10
M  V30 10 1 10 11
M  V30 11 2 11 12
M  V30 12 1 12 13
M  V30 13 2 13 14
M  V30 14 1 14 15
M  V30 15 2 15 16
M  V30 16 1 16 17
M  V30 17 2 17 18
M  V30 18 1 18 19
M  V30 19 2 19 20
M  V30 20 1 20 21
M  V30 21 1 12 22
M  V30 22 2 22 23
M  V30 23 1 3 24
M  V30 24 1 24 25
M  V30 25 1 25 26
M  V30 26 1 24 27
M  V30 27 1 27 28
M  V30 28 1 23 5
M  V30 29 1 23 9
M  V30 30 1 21 13
M  V30 31 1 21 16
M  V30 32 1 1 29
M  V30 33 1 1 30
M  V30 34 1 1 31
M  V30 35 1 2 32
M  V30 36 1 2 33
M  V30 37 1 3 34
M  V30 38 1 6 35
M  V30 39 1 7 36
M  V30 40 1 8 37
M  V30 41 1 10 38
M  V30 42 1 11 39
M  V30 43 1 17 40
M  V30 44 1 18 41
M  V30 45 1 19 42
M  V30 46 1 20 43
M  V30 47 1 24 44 CFG=3
M  V30 48 1 25 45
M  V30 49 1 25 46
M  V30 50 1 26 47
M  V30 51 1 26 48
M  V30 52 1 26 49
M  V30 53 1 27 50
M  V30 54 1 27 51
M  V30 55 1 28 52
M  V30 56 1 28 53
M  V30 END BOND
M  V30 END CTAB
M  END
>  <Dataset>  (768) 
ChEMBL_Kinases

>  <Ligand_Instance>  (768) 
nan

>  <PDB_ID>  (768) 
nan

>  <Standardized_SMILES>  (768) 
CCC(Oc1cccc2ccc(-c3nnc4ccccn34)nc12)[C@H](CC)CN

>  <Name>  (768) 
nan

>  <Pocket>  (768) 
nan

>  <ATP_Site>  (768) 
nan

>  <Peripheral>  (768) 
nan

>  <Num_H_Atoms_ProtBoundConf>  (768) 
nan

>  <Num_Resolved_Atoms>  (768) 
nan

>  <Num_Not_Resolved_Atoms>  (768) 
nan

$$$$
CHEMBL3604771
     RDKit          3D

  0  0  0  0  0  0  0  0  0  0999 V3000
M  V30 BEGIN CTAB
M  V30 COUNTS 31 33 0 0 0
M  V30 BEGIN ATOM
M  V30 1 O -2.986194 -3.464683 2.768868 0
M  V30 2 C -1.919936 -3.068350 1.947746 0
M  V30 3 C -0.778216 -2.533340 2.510028 0
M  V30 4 C 0.273432 -2.141927 1.703615 0
M  V30 5 C 0.103726 -2.317433 0.362696 0
M  V30 6 C 1.174257 -1.929149 -0.544172 0
M  V30 7 C 1.921579 -2.652066 -1.449357 0
M  V30 8 N 2.764495 -1.802927 -2.017675 0
M  V30 9 N 2.605043 -0.574613 -1.531947 0
M  V30 10 C 1.618171 -0.618589 -0.608239 0
M  V30 11 C 1.158482 0.550930 0.152096 0
M  V30 12 C -0.162679 0.916759 -0.026255 0
M  V30 13 C -0.653593 2.010428 0.661966 0
M  V30 14 C 0.176439 2.716502 1.511585 0
M  V30 15 O -0.341183 3.802036 2.184251 0
M  V30 16 C 1.501722 2.321778 1.668381 0
M  V30 17 C 2.040365 1.224780 0.994231 0
M  V30 18 C -1.042962 -2.857118 -0.233703 0
M  V30 19 C -2.083347 -3.241224 0.608203 0
M  V30 20 H -3.837423 -2.905869 2.780625 0
M  V30 21 H -0.670547 -2.405479 3.577008 0
M  V30 22 H 1.205563 -1.711443 2.075228 0
M  V30 23 H 1.766710 -3.711864 -1.589745 0
M  V30 24 H 3.193573 0.244908 -1.865658 0
M  V30 25 H -0.814623 0.365314 -0.690477 0
M  V30 26 H -1.682634 2.264928 0.499159 0
M  V30 27 H -0.493702 3.787427 3.202635 0
M  V30 28 H 2.122553 2.901091 2.344678 0
M  V30 29 H 3.056635 0.926239 1.118613 0
M  V30 30 H -1.103300 -2.966034 -1.321818 0
M  V30 31 H -2.957771 -3.655326 0.122896 0
M  V30 END ATOM
M  V30 BEGIN BOND
M  V30 1 1 1 2
M  V30 2 2 2 3
M  V30 3 1 3 4
M  V30 4 2 4 5
M  V30 5 1 5 6
M  V30 6 1 6 7
M  V30 7 2 7 8
M  V30 8 1 8 9
M  V30 9 1 9 10
M  V30 10 1 10 11
M  V30 11 2 11 12
M  V30 12 1 12 13
M  V30 13 2 13 14
M  V30 14 1 14 15
M  V30 15 1 14 16
M  V30 16 2 16 17
M  V30 17 1 5 18
M  V30 18 2 18 19
M  V30 19 1 19 2
M  V30 20 2 10 6
M  V30 21 1 17 11
M  V30 22 1 1 20
M  V30 23 1 3 21
M  V30 24 1 4 22
M  V30 25 1 7 23
M  V30 26 1 9 24
M  V30 27 1 12 25
M  V30 28 1 13 26
M  V30 29 1 15 27
M  V30 30 1 16 28
M  V30 31 1 17 29
M  V30 32 1 18 30
M  V30 33 1 19 31
M  V30 END BOND
M  V30 END CTAB
M  END
>  <Dataset>  (769) 
ChEMBL_Kinases

>  <Ligand_Instance>  (769) 
nan

>  <PDB_ID>  (769) 
nan

>  <Standardized_SMILES>  (769) 
Oc1ccc(-c2cn[nH]c2-c2ccc(O)cc2)cc1

>  <Name>  (769) 
nan

>  <Pocket>  (769) 
nan

>  <ATP_Site>  (769) 
nan

>  <Peripheral>  (769) 
nan

>  <Num_H_Atoms_ProtBoundConf>  (769) 
nan

>  <Num_Resolved_Atoms>  (769) 
nan

>  <Num_Not_Resolved_Atoms>  (769) 
nan

$$$$
CHEMBL3604774
     RDKit          3D

  0  0  0  0  0  0  0  0  0  0999 V3000
M  V30 BEGIN CTAB
M  V30 COUNTS 32 34 0 0 0
M  V30 BEGIN ATOM
M  V30 1 N -0.697983 -0.450736 4.603008 0
M  V30 2 C -0.144874 -1.159835 3.539709 0
M  V30 3 N 0.374139 -2.385589 3.787521 0
M  V30 4 N 0.842400 -2.866193 2.624565 0
M  V30 5 C 0.591715 -1.906192 1.687752 0
M  V30 6 C 0.933762 -1.996428 0.247839 0
M  V30 7 C 1.804347 -1.063996 -0.281079 0
M  V30 8 C 2.127221 -1.143370 -1.621363 0
M  V30 9 C 1.555648 -2.157865 -2.355306 0
M  V30 10 O 1.896501 -2.217969 -3.706528 0
M  V30 11 C 0.681335 -3.111283 -1.868947 0
M  V30 12 C 0.366873 -3.012970 -0.508527 0
M  V30 13 C -0.035739 -0.798872 2.219691 0
M  V30 14 C -0.479095 0.438010 1.595966 0
M  V30 15 C 0.007694 1.691802 1.963873 0
M  V30 16 C -0.482295 2.810566 1.301741 0
M  V30 17 C -1.430196 2.671639 0.302617 0
M  V30 18 C -1.913643 1.417508 -0.061364 0
M  V30 19 C -1.429815 0.300069 0.594117 0
M  V30 20 H -1.103539 0.069499 5.383306 0
M  V30 21 H -1.685801 -0.104793 4.501151 0
M  V30 22 H 1.300901 -3.780646 2.469133 0
M  V30 23 H 2.198824 -0.305922 0.379836 0
M  V30 24 H 2.799349 -0.434716 -2.061136 0
M  V30 25 H 1.215308 -1.943312 -4.429654 0
M  V30 26 H 0.263327 -3.887606 -2.499266 0
M  V30 27 H -0.322117 -3.749584 -0.087686 0
M  V30 28 H 0.750855 1.701648 2.759129 0
M  V30 29 H -0.051288 3.737886 1.650644 0
M  V30 30 H -1.758366 3.597204 -0.164403 0
M  V30 31 H -2.655933 1.378525 -0.853798 0
M  V30 32 H -1.821629 -0.680780 0.294835 0
M  V30 END ATOM
M  V30 BEGIN BOND
M  V30 1 1 1 2
M  V30 2 2 2 3
M  V30 3 1 3 4
M  V30 4 1 4 5
M  V30 5 1 5 6
M  V30 6 2 6 7
M  V30 7 1 7 8
M  V30 8 2 8 9
M  V30 9 1 9 10
M  V30 10 1 9 11
M  V30 11 2 11 12
M  V30 12 2 5 13
M  V30 13 1 13 14
M  V30 14 2 14 15
M  V30 15 1 15 16
M  V30 16 2 16 17
M  V30 17 1 17 18
M  V30 18 2 18 19
M  V30 19 1 13 2
M  V30 20 1 19 14
M  V30 21 1 12 6
M  V30 22 1 1 20
M  V30 23 1 1 21
M  V30 24 1 4 22
M  V30 25 1 7 23
M  V30 26 1 8 24
M  V30 27 1 10 25
M  V30 28 1 11 26
M  V30 29 1 12 27
M  V30 30 1 15 28
M  V30 31 1 16 29
M  V30 32 1 17 30
M  V30 33 1 18 31
M  V30 34 1 19 32
M  V30 END BOND
M  V30 END CTAB
M  END
>  <Dataset>  (770) 
ChEMBL_Kinases

>  <Ligand_Instance>  (770) 
nan

>  <PDB_ID>  (770) 
nan

>  <Standardized_SMILES>  (770) 
Nc1n[nH]c(-c2ccc(O)cc2)c1-c1ccccc1

>  <Name>  (770) 
nan

>  <Pocket>  (770) 
nan

>  <ATP_Site>  (770) 
nan

>  <Peripheral>  (770) 
nan

>  <Num_H_Atoms_ProtBoundConf>  (770) 
nan

>  <Num_Resolved_Atoms>  (770) 
nan

>  <Num_Not_Resolved_Atoms>  (770) 
nan

$$$$
CHEMBL3604775
     RDKit          3D

  0  0  0  0  0  0  0  0  0  0999 V3000
M  V30 BEGIN CTAB
M  V30 COUNTS 31 33 0 0 0
M  V30 BEGIN ATOM
M  V30 1 O 0.606951 -3.392920 4.797911 0
M  V30 2 C 0.363962 -3.044158 3.481742 0
M  V30 3 C 1.025801 -3.613309 2.417347 0
M  V30 4 C 0.839629 -3.319451 1.084788 0
M  V30 5 C -0.120858 -2.343608 0.802114 0
M  V30 6 C -0.329854 -2.021322 -0.603165 0
M  V30 7 C -0.755031 -2.868967 -1.628632 0
M  V30 8 N -0.804372 -2.144364 -2.758757 0
M  V30 9 N -0.435970 -0.917285 -2.475250 0
M  V30 10 C -0.132586 -0.779190 -1.169957 0
M  V30 11 C 0.307401 0.471511 -0.564129 0
M  V30 12 C 1.510912 0.762193 0.058891 0
M  V30 13 C 1.707750 2.036399 0.563235 0
M  V30 14 F 2.924989 2.195268 1.147631 0
M  V30 15 C 0.738087 3.011534 0.458101 0
M  V30 16 O 1.079295 4.252269 1.014960 0
M  V30 17 C -0.465253 2.727469 -0.162512 0
M  V30 18 F -1.362584 3.736001 -0.224883 0
M  V30 19 C -0.668026 1.453776 -0.669357 0
M  V30 20 C -0.805081 -1.750354 1.841894 0
M  V30 21 C -0.590874 -2.072008 3.172162 0
M  V30 22 H -0.194634 -3.515778 5.405647 0
M  V30 23 H 1.758899 -4.364864 2.714997 0
M  V30 24 H 1.444714 -3.860375 0.353825 0
M  V30 25 H -0.979310 -3.920265 -1.428746 0
M  V30 26 H -0.416306 -0.219056 -3.236748 0
M  V30 27 H 2.190966 -0.078016 0.081932 0
M  V30 28 H 1.063837 4.267573 2.046541 0
M  V30 29 H -1.645291 1.354975 -1.130433 0
M  V30 30 H -1.544850 -0.996243 1.596052 0
M  V30 31 H -1.157675 -1.571748 3.928261 0
M  V30 END ATOM
M  V30 BEGIN BOND
M  V30 1 1 1 2
M  V30 2 2 2 3
M  V30 3 1 3 4
M  V30 4 2 4 5
M  V30 5 1 5 6
M  V30 6 1 6 7
M  V30 7 2 7 8
M  V30 8 1 8 9
M  V30 9 1 9 10
M  V30 10 1 10 11
M  V30 11 2 11 12
M  V30 12 1 12 13
M  V30 13 1 13 14
M  V30 14 2 13 15
M  V30 15 1 15 16
M  V30 16 1 15 17
M  V30 17 1 17 18
M  V30 18 2 17 19
M  V30 19 1 5 20
M  V30 20 2 20 21
M  V30 21 1 21 2
M  V30 22 2 10 6
M  V30 23 1 19 11
M  V30 24 1 1 22
M  V30 25 1 3 23
M  V30 26 1 4 24
M  V30 27 1 7 25
M  V30 28 1 9 26
M  V30 29 1 12 27
M  V30 30 1 16 28
M  V30 31 1 19 29
M  V30 32 1 20 30
M  V30 33 1 21 31
M  V30 END BOND
M  V30 END CTAB
M  END
>  <Dataset>  (771) 
ChEMBL_Kinases

>  <Ligand_Instance>  (771) 
nan

>  <PDB_ID>  (771) 
nan

>  <Standardized_SMILES>  (771) 
Oc1ccc(-c2cn[nH]c2-c2cc(F)c(O)c(F)c2)cc1

>  <Name>  (771) 
nan

>  <Pocket>  (771) 
nan

>  <ATP_Site>  (771) 
nan

>  <Peripheral>  (771) 
nan

>  <Num_H_Atoms_ProtBoundConf>  (771) 
nan

>  <Num_Resolved_Atoms>  (771) 
nan

>  <Num_Not_Resolved_Atoms>  (771) 
nan

$$$$
CHEMBL3660035
     RDKit          3D

  0  0  0  0  0  0  0  0  0  0999 V3000
M  V30 BEGIN CTAB
M  V30 COUNTS 53 56 0 0 0
M  V30 BEGIN ATOM
M  V30 1 C -4.086364 -1.988404 0.719356 0
M  V30 2 C -2.893587 -1.124644 0.453592 0
M  V30 3 C -1.755380 -1.706503 -0.279510 0
M  V30 4 O -0.765170 -0.698827 -0.420150 0
M  V30 5 C -0.312607 -0.148172 -1.578727 0
M  V30 6 C -0.655737 -0.385148 -2.892673 0
M  V30 7 C -0.076893 0.284174 -3.949571 0
M  V30 8 C 0.892558 1.241639 -3.734046 0
M  V30 9 C 1.254990 1.498575 -2.426770 0
M  V30 10 C 2.228226 2.465563 -2.280179 0
M  V30 11 C 2.650879 2.786265 -1.010982 0
M  V30 12 C 2.066951 2.112224 0.041187 0
M  V30 13 C 2.482133 2.417734 1.403930 0
M  V30 14 N 3.405490 3.315848 1.779608 0
M  V30 15 N 3.523295 3.325317 3.103543 0
M  V30 16 C 2.658792 2.414612 3.599728 0
M  V30 17 C 2.363025 2.011479 4.880911 0
M  V30 18 C 1.426086 1.046268 5.154006 0
M  V30 19 C 0.770193 0.475067 4.076819 0
M  V30 20 C 1.109245 0.920068 2.815996 0
M  V30 21 N 2.025023 1.864220 2.540113 0
M  V30 22 N 1.123796 1.182119 -0.185900 0
M  V30 23 C 0.672134 0.825698 -1.375585 0
M  V30 24 C -1.132721 -2.967579 0.280726 0 CFG=1
M  V30 25 C -0.628101 -2.780631 1.664157 0
M  V30 26 C 0.013210 -4.005071 2.252710 0
M  V30 27 C -1.901203 -4.202456 0.037370 0
M  V30 28 N -1.274511 -5.429465 0.563705 0
M  V30 29 H -4.054216 -2.545057 1.677710 0
M  V30 30 H -4.378796 -2.547207 -0.164495 0
M  V30 31 H -4.951361 -1.250966 0.867487 0
M  V30 32 H -2.550369 -0.597137 1.382378 0
M  V30 33 H -3.286337 -0.282791 -0.206157 0
M  V30 34 H -2.098823 -1.968057 -1.298697 0
M  V30 35 H -1.415669 -1.139768 -3.012061 0
M  V30 36 H -0.458925 -0.020615 -4.915067 0
M  V30 37 H 1.280993 1.706169 -4.630152 0
M  V30 38 H 2.674004 2.982821 -3.116139 0
M  V30 39 H 3.413684 3.541554 -0.864313 0
M  V30 40 H 2.908185 2.492717 5.697848 0
M  V30 41 H 1.197964 0.733201 6.168145 0
M  V30 42 H 0.032578 -0.282113 4.258802 0
M  V30 43 H 0.576004 0.449961 2.009544 0
M  V30 44 H -0.184397 -3.080764 -0.362309 0
M  V30 45 H 0.004494 -1.873687 1.785018 0
M  V30 46 H -1.523849 -2.558935 2.322894 0
M  V30 47 H 0.772823 -3.705386 3.048142 0
M  V30 48 H 0.640474 -4.511082 1.494452 0
M  V30 49 H -0.691917 -4.729270 2.693178 0
M  V30 50 H -2.023912 -4.436911 -1.058600 0
M  V30 51 H -2.887136 -4.191037 0.546303 0
M  V30 52 H -0.587672 -5.779209 -0.136105 0
M  V30 53 H -2.005509 -6.170381 0.646433 0
M  V30 END ATOM
M  V30 BEGIN BOND
M  V30 1 1 1 2
M  V30 2 1 2 3
M  V30 3 1 3 4
M  V30 4 1 4 5
M  V30 5 2 5 6
M  V30 6 1 6 7
M  V30 7 2 7 8
M  V30 8 1 8 9
M  V30 9 2 9 10
M  V30 10 1 10 11
M  V30 11 2 11 12
M  V30 12 1 12 13
M  V30 13 2 13 14
M  V30 14 1 14 15
M  V30 15 2 15 16
M  V30 16 1 16 17
M  V30 17 2 17 18
M  V30 18 1 18 19
M  V30 19 2 19 20
M  V30 20 1 20 21
M  V30 21 1 12 22
M  V30 22 2 22 23
M  V30 23 1 3 24
M  V30 24 1 24 25
M  V30 25 1 25 26
M  V30 26 1 24 27
M  V30 27 1 27 28
M  V30 28 1 23 5
M  V30 29 1 23 9
M  V30 30 1 21 13
M  V30 31 1 21 16
M  V30 32 1 1 29
M  V30 33 1 1 30
M  V30 34 1 1 31
M  V30 35 1 2 32
M  V30 36 1 2 33
M  V30 37 1 3 34
M  V30 38 1 6 35
M  V30 39 1 7 36
M  V30 40 1 8 37
M  V30 41 1 10 38
M  V30 42 1 11 39
M  V30 43 1 17 40
M  V30 44 1 18 41
M  V30 45 1 19 42
M  V30 46 1 20 43
M  V30 47 1 24 44 CFG=3
M  V30 48 1 25 45
M  V30 49 1 25 46
M  V30 50 1 26 47
M  V30 51 1 26 48
M  V30 52 1 26 49
M  V30 53 1 27 50
M  V30 54 1 27 51
M  V30 55 1 28 52
M  V30 56 1 28 53
M  V30 END BOND
M  V30 END CTAB
M  END
>  <Dataset>  (772) 
ChEMBL_Kinases

>  <Ligand_Instance>  (772) 
nan

>  <PDB_ID>  (772) 
nan

>  <Standardized_SMILES>  (772) 
CCC(Oc1cccc2ccc(-c3nnc4ccccn34)nc12)[C@@H](CC)CN

>  <Name>  (772) 
nan

>  <Pocket>  (772) 
nan

>  <ATP_Site>  (772) 
nan

>  <Peripheral>  (772) 
nan

>  <Num_H_Atoms_ProtBoundConf>  (772) 
nan

>  <Num_Resolved_Atoms>  (772) 
nan

>  <Num_Not_Resolved_Atoms>  (772) 
nan

$$$$
CHEMBL3604776
     RDKit          3D

  0  0  0  0  0  0  0  0  0  0999 V3000
M  V30 BEGIN CTAB
M  V30 COUNTS 33 35 0 0 0
M  V30 BEGIN ATOM
M  V30 1 O -2.659120 -2.053957 4.010583 0
M  V30 2 C -1.819210 -2.039773 2.895881 0
M  V30 3 C -0.553682 -2.606164 2.970559 0
M  V30 4 C 0.295389 -2.606827 1.888396 0
M  V30 5 C -0.087870 -2.041661 0.690790 0
M  V30 6 C 0.620126 -1.924884 -0.561079 0
M  V30 7 C 1.018933 -3.058381 -1.241271 0
M  V30 8 C 1.700084 -3.126253 -2.441858 0
M  V30 9 N 1.997935 -1.912586 -2.992548 0
M  V30 10 C 1.637448 -0.768773 -2.380132 0
M  V30 11 C 0.956524 -0.731115 -1.179387 0
M  V30 12 C 0.562474 0.505193 -0.510006 0
M  V30 13 C 1.165868 0.668657 0.741791 0
M  V30 14 C 0.908004 1.776832 1.511918 0
M  V30 15 C 0.041585 2.774052 1.079311 0
M  V30 16 O -0.246388 3.908881 1.825641 0
M  V30 17 C -0.541465 2.586947 -0.162552 0
M  V30 18 C -0.285023 1.473110 -0.941541 0
M  V30 19 C -1.360483 -1.469601 0.608348 0
M  V30 20 C -2.227583 -1.466134 1.705132 0
M  V30 21 H -3.098532 -1.159926 4.260964 0
M  V30 22 H -0.181913 -3.068445 3.875616 0
M  V30 23 H 1.293443 -3.019269 1.845617 0
M  V30 24 H 0.767023 -4.023034 -0.776944 0
M  V30 25 H 1.950824 -4.090379 -2.864296 0
M  V30 26 H 1.900841 0.177095 -2.864364 0
M  V30 27 H 1.867131 -0.052289 1.187927 0
M  V30 28 H 1.379877 1.906497 2.492716 0
M  V30 29 H -0.100520 3.886366 2.828359 0
M  V30 30 H -1.232514 3.314088 -0.582869 0
M  V30 31 H -0.718904 1.290496 -1.913456 0
M  V30 32 H -1.797203 -0.993274 -0.255588 0
M  V30 33 H -3.212118 -1.037560 1.683450 0
M  V30 END ATOM
M  V30 BEGIN BOND
M  V30 1 1 1 2
M  V30 2 2 2 3
M  V30 3 1 3 4
M  V30 4 2 4 5
M  V30 5 1 5 6
M  V30 6 2 6 7
M  V30 7 1 7 8
M  V30 8 2 8 9
M  V30 9 1 9 10
M  V30 10 2 10 11
M  V30 11 1 11 12
M  V30 12 2 12 13
M  V30 13 1 13 14
M  V30 14 2 14 15
M  V30 15 1 15 16
M  V30 16 1 15 17
M  V30 17 2 17 18
M  V30 18 1 5 19
M  V30 19 2 19 20
M  V30 20 1 20 2
M  V30 21 1 11 6
M  V30 22 1 18 12
M  V30 23 1 1 21
M  V30 24 1 3 22
M  V30 25 1 4 23
M  V30 26 1 7 24
M  V30 27 1 8 25
M  V30 28 1 10 26
M  V30 29 1 13 27
M  V30 30 1 14 28
M  V30 31 1 16 29
M  V30 32 1 17 30
M  V30 33 1 18 31
M  V30 34 1 19 32
M  V30 35 1 20 33
M  V30 END BOND
M  V30 END CTAB
M  END
>  <Dataset>  (773) 
ChEMBL_Kinases

>  <Ligand_Instance>  (773) 
nan

>  <PDB_ID>  (773) 
nan

>  <Standardized_SMILES>  (773) 
Oc1ccc(-c2ccncc2-c2ccc(O)cc2)cc1

>  <Name>  (773) 
nan

>  <Pocket>  (773) 
nan

>  <ATP_Site>  (773) 
nan

>  <Peripheral>  (773) 
nan

>  <Num_H_Atoms_ProtBoundConf>  (773) 
nan

>  <Num_Resolved_Atoms>  (773) 
nan

>  <Num_Not_Resolved_Atoms>  (773) 
nan

$$$$
CHEMBL3604777
     RDKit          3D

  0  0  0  0  0  0  0  0  0  0999 V3000
M  V30 BEGIN CTAB
M  V30 COUNTS 33 35 0 0 0
M  V30 BEGIN ATOM
M  V30 1 O -1.851454 -3.340732 3.994071 0
M  V30 2 C -1.021822 -2.819470 2.997689 0
M  V30 3 C -0.823810 -3.607100 1.879521 0
M  V30 4 C -0.007355 -3.110982 0.882765 0
M  V30 5 C 0.587001 -1.863269 1.013082 0
M  V30 6 C 1.406438 -1.477910 -0.098586 0
M  V30 7 C 2.514058 -2.216766 -0.469680 0
M  V30 8 C 3.313691 -1.841224 -1.556237 0
M  V30 9 N 3.049366 -0.747260 -2.294209 0
M  V30 10 C 1.959479 -0.030259 -1.919970 0
M  V30 11 C 1.122150 -0.349452 -0.848801 0
M  V30 12 C -0.004275 0.486145 -0.542583 0
M  V30 13 C 0.412645 1.787672 -0.234689 0
M  V30 14 C -0.513640 2.783267 0.098981 0
M  V30 15 F -0.167567 4.044930 0.402243 0
M  V30 16 C -1.862027 2.502277 0.131633 0
M  V30 17 O -2.815747 3.463363 0.458451 0
M  V30 18 C -2.264291 1.199290 -0.177766 0
M  V30 19 F -3.565774 0.864017 -0.162808 0
M  V30 20 C -1.345503 0.226374 -0.504861 0
M  V30 21 C 0.344228 -1.133117 2.156325 0
M  V30 22 C -0.457257 -1.555593 3.197020 0
M  V30 23 H -2.857248 -3.373955 3.783910 0
M  V30 24 H -1.289529 -4.560070 1.800782 0
M  V30 25 H 0.126823 -3.751767 0.021438 0
M  V30 26 H 2.796511 -3.123584 0.082849 0
M  V30 27 H 4.183375 -2.402862 -1.864114 0
M  V30 28 H 1.718079 0.867451 -2.503790 0
M  V30 29 H 1.444394 2.162741 -0.218830 0
M  V30 30 H -2.807360 3.885237 1.391200 0
M  V30 31 H -1.570972 -0.803191 -0.756566 0
M  V30 32 H 0.823819 -0.165546 2.223127 0
M  V30 33 H -0.635444 -0.980725 4.073512 0
M  V30 END ATOM
M  V30 BEGIN BOND
M  V30 1 1 1 2
M  V30 2 2 2 3
M  V30 3 1 3 4
M  V30 4 2 4 5
M  V30 5 1 5 6
M  V30 6 2 6 7
M  V30 7 1 7 8
M  V30 8 2 8 9
M  V30 9 1 9 10
M  V30 10 2 10 11
M  V30 11 1 11 12
M  V30 12 2 12 13
M  V30 13 1 13 14
M  V30 14 1 14 15
M  V30 15 2 14 16
M  V30 16 1 16 17
M  V30 17 1 16 18
M  V30 18 1 18 19
M  V30 19 2 18 20
M  V30 20 1 5 21
M  V30 21 2 21 22
M  V30 22 1 22 2
M  V30 23 1 11 6
M  V30 24 1 20 12
M  V30 25 1 1 23
M  V30 26 1 3 24
M  V30 27 1 4 25
M  V30 28 1 7 26
M  V30 29 1 8 27
M  V30 30 1 10 28
M  V30 31 1 13 29
M  V30 32 1 17 30
M  V30 33 1 20 31
M  V30 34 1 21 32
M  V30 35 1 22 33
M  V30 END BOND
M  V30 END CTAB
M  END
>  <Dataset>  (774) 
ChEMBL_Kinases

>  <Ligand_Instance>  (774) 
nan

>  <PDB_ID>  (774) 
nan

>  <Standardized_SMILES>  (774) 
Oc1ccc(-c2ccncc2-c2cc(F)c(O)c(F)c2)cc1

>  <Name>  (774) 
nan

>  <Pocket>  (774) 
nan

>  <ATP_Site>  (774) 
nan

>  <Peripheral>  (774) 
nan

>  <Num_H_Atoms_ProtBoundConf>  (774) 
nan

>  <Num_Resolved_Atoms>  (774) 
nan

>  <Num_Not_Resolved_Atoms>  (774) 
nan

$$$$
CHEMBL3604778
     RDKit          3D

  0  0  0  0  0  0  0  0  0  0999 V3000
M  V30 BEGIN CTAB
M  V30 COUNTS 32 34 0 0 0
M  V30 BEGIN ATOM
M  V30 1 O -0.326249 -2.794460 4.788059 0
M  V30 2 C -0.100586 -2.499488 3.446380 0
M  V30 3 C 1.198370 -2.704136 2.995765 0
M  V30 4 F 2.203473 -3.159585 3.784398 0
M  V30 5 C 1.497980 -2.432889 1.674675 0
M  V30 6 C 0.483997 -1.968181 0.860647 0
M  V30 7 C 0.754759 -1.665536 -0.553795 0
M  V30 8 C 1.178409 -2.702910 -1.358173 0
M  V30 9 N 1.419093 -2.383012 -2.661907 0
M  V30 10 C 1.242199 -1.118726 -3.100008 0
M  V30 11 C 0.814709 -0.056624 -2.302291 0
M  V30 12 C 0.566050 -0.363787 -0.977449 0
M  V30 13 C 0.119355 0.684854 -0.093555 0
M  V30 14 C 0.781443 1.150960 1.022368 0
M  V30 15 C 0.191528 2.169939 1.750033 0
M  V30 16 C -1.020701 2.737217 1.412429 0
M  V30 17 C -1.667061 2.255818 0.291616 0
M  V30 18 C -1.102731 1.234445 -0.460640 0
M  V30 19 C -0.814691 -1.763816 1.312080 0
M  V30 20 C -1.108651 -2.037418 2.636709 0
M  V30 21 F -2.366077 -1.851542 3.118069 0
M  V30 22 H -1.261685 -2.834581 5.187611 0
M  V30 23 H 2.486632 -2.561887 1.230613 0
M  V30 24 H 1.305686 -3.686502 -0.972148 0
M  V30 25 H 1.442208 -0.886030 -4.155219 0
M  V30 26 H 0.690420 0.924851 -2.693393 0
M  V30 27 H 1.717019 0.690861 1.256176 0
M  V30 28 H 0.732290 2.524775 2.631032 0
M  V30 29 H -1.474768 3.539711 1.994077 0
M  V30 30 H -2.615820 2.697991 0.025225 0
M  V30 31 H -1.681083 0.913526 -1.331590 0
M  V30 32 H -1.587631 -1.398132 0.649583 0
M  V30 END ATOM
M  V30 BEGIN BOND
M  V30 1 1 1 2
M  V30 2 2 2 3
M  V30 3 1 3 4
M  V30 4 1 3 5
M  V30 5 2 5 6
M  V30 6 1 6 7
M  V30 7 2 7 8
M  V30 8 1 8 9
M  V30 9 2 9 10
M  V30 10 1 10 11
M  V30 11 2 11 12
M  V30 12 1 12 13
M  V30 13 2 13 14
M  V30 14 1 14 15
M  V30 15 2 15 16
M  V30 16 1 16 17
M  V30 17 2 17 18
M  V30 18 1 6 19
M  V30 19 2 19 20
M  V30 20 1 20 21
M  V30 21 1 20 2
M  V30 22 1 12 7
M  V30 23 1 18 13
M  V30 24 1 1 22
M  V30 25 1 5 23
M  V30 26 1 8 24
M  V30 27 1 10 25
M  V30 28 1 11 26
M  V30 29 1 14 27
M  V30 30 1 15 28
M  V30 31 1 16 29
M  V30 32 1 17 30
M  V30 33 1 18 31
M  V30 34 1 19 32
M  V30 END BOND
M  V30 END CTAB
M  END
>  <Dataset>  (775) 
ChEMBL_Kinases

>  <Ligand_Instance>  (775) 
nan

>  <PDB_ID>  (775) 
nan

>  <Standardized_SMILES>  (775) 
Oc1c(F)cc(-c2cnccc2-c2ccccc2)cc1F

>  <Name>  (775) 
nan

>  <Pocket>  (775) 
nan

>  <ATP_Site>  (775) 
nan

>  <Peripheral>  (775) 
nan

>  <Num_H_Atoms_ProtBoundConf>  (775) 
nan

>  <Num_Resolved_Atoms>  (775) 
nan

>  <Num_Not_Resolved_Atoms>  (775) 
nan

$$$$
CHEMBL3604779
     RDKit          3D

  0  0  0  0  0  0  0  0  0  0999 V3000
M  V30 BEGIN CTAB
M  V30 COUNTS 36 38 0 0 0
M  V30 BEGIN ATOM
M  V30 1 O 1.778383 -3.397017 4.989678 0
M  V30 2 C 1.484426 -2.953130 3.699432 0
M  V30 3 C 2.385648 -2.101420 3.097984 0
M  V30 4 F 3.523059 -1.671048 3.666318 0
M  V30 5 C 2.129687 -1.642480 1.825485 0
M  V30 6 C 1.002942 -1.993638 1.109886 0
M  V30 7 C 0.540011 -1.601752 -0.210302 0
M  V30 8 C 0.404093 -2.735834 -1.017043 0
M  V30 9 N 0.023256 -2.738692 -2.310169 0
M  V30 10 C -0.253055 -1.548416 -2.885497 0
M  V30 11 C -0.129110 -0.411095 -2.116675 0
M  V30 12 C 0.255739 -0.358810 -0.792106 0
M  V30 13 C 0.391208 0.774473 0.088063 0
M  V30 14 C -0.765108 1.131759 0.969300 0
M  V30 15 C -1.991884 1.534460 0.190099 0
M  V30 16 O -1.718856 2.198233 -0.964597 0
M  V30 17 C -0.497589 2.707668 -1.159746 0
M  V30 18 C 0.701215 2.086221 -0.595340 0
M  V30 19 C 0.133447 -2.863806 1.788601 0
M  V30 20 C 0.332492 -3.358386 3.060652 0
M  V30 21 F -0.550188 -4.195078 3.653771 0
M  V30 22 H 1.047094 -3.368548 5.683259 0
M  V30 23 H 2.811349 -0.990437 1.307722 0
M  V30 24 H 0.585913 -3.781629 -0.718492 0
M  V30 25 H -0.567259 -1.466075 -3.928216 0
M  V30 26 H -0.346320 0.512947 -2.588936 0
M  V30 27 H 1.259410 0.620811 0.799673 0
M  V30 28 H -1.008646 0.418535 1.748977 0
M  V30 29 H -0.440827 2.047839 1.511853 0
M  V30 30 H -2.641331 2.174472 0.822779 0
M  V30 31 H -2.592211 0.632702 -0.046214 0
M  V30 32 H -0.390563 2.869997 -2.279422 0
M  V30 33 H -0.544527 3.784644 -0.794856 0
M  V30 34 H 1.140131 2.772075 0.196214 0
M  V30 35 H 1.522469 2.001539 -1.329918 0
M  V30 36 H -0.800833 -3.217957 1.322763 0
M  V30 END ATOM
M  V30 BEGIN BOND
M  V30 1 1 1 2
M  V30 2 2 2 3
M  V30 3 1 3 4
M  V30 4 1 3 5
M  V30 5 2 5 6
M  V30 6 1 6 7
M  V30 7 2 7 8
M  V30 8 1 8 9
M  V30 9 2 9 10
M  V30 10 1 10 11
M  V30 11 2 11 12
M  V30 12 1 12 13
M  V30 13 1 13 14
M  V30 14 1 14 15
M  V30 15 1 15 16
M  V30 16 1 16 17
M  V30 17 1 17 18
M  V30 18 1 6 19
M  V30 19 2 19 20
M  V30 20 1 20 21
M  V30 21 1 20 2
M  V30 22 1 12 7
M  V30 23 1 18 13
M  V30 24 1 1 22
M  V30 25 1 5 23
M  V30 26 1 8 24
M  V30 27 1 10 25
M  V30 28 1 11 26
M  V30 29 1 13 27
M  V30 30 1 14 28
M  V30 31 1 14 29
M  V30 32 1 15 30
M  V30 33 1 15 31
M  V30 34 1 17 32
M  V30 35 1 17 33
M  V30 36 1 18 34
M  V30 37 1 18 35
M  V30 38 1 19 36
M  V30 END BOND
M  V30 END CTAB
M  END
>  <Dataset>  (776) 
ChEMBL_Kinases

>  <Ligand_Instance>  (776) 
nan

>  <PDB_ID>  (776) 
nan

>  <Standardized_SMILES>  (776) 
Oc1c(F)cc(-c2cnccc2C2CCOCC2)cc1F

>  <Name>  (776) 
nan

>  <Pocket>  (776) 
nan

>  <ATP_Site>  (776) 
nan

>  <Peripheral>  (776) 
nan

>  <Num_H_Atoms_ProtBoundConf>  (776) 
nan

>  <Num_Resolved_Atoms>  (776) 
nan

>  <Num_Not_Resolved_Atoms>  (776) 
nan

$$$$
CHEMBL3660052
     RDKit          3D

  0  0  0  0  0  0  0  0  0  0999 V3000
M  V30 BEGIN CTAB
M  V30 COUNTS 56 60 0 0 0
M  V30 BEGIN ATOM
M  V30 1 C 2.708571 -0.315623 3.473504 0
M  V30 2 O 3.270504 -1.440719 2.924056 0
M  V30 3 N 2.446206 -2.085095 2.034836 0
M  V30 4 C 1.704128 -3.011981 2.863331 0
M  V30 5 C 2.182980 -2.055322 0.641061 0
M  V30 6 O 1.406467 -2.675444 -0.132691 0
M  V30 7 C 2.722933 -1.273997 -0.476629 0 CFG=2
M  V30 8 C 2.712410 0.199909 -0.323950 0
M  V30 9 C 1.691060 0.884308 -1.225202 0
M  V30 10 O 0.459404 0.812159 -0.607346 0
M  V30 11 C -0.307881 1.773864 -0.032737 0
M  V30 12 C 0.012725 3.098152 0.059332 0
M  V30 13 C -0.746201 4.082478 0.634133 0
M  V30 14 C -1.976731 3.719728 1.189249 0
M  V30 15 C -2.344285 2.377449 1.117467 0
M  V30 16 C -3.565788 2.058968 1.675176 0
M  V30 17 C -3.905959 0.725069 1.589635 0
M  V30 18 C -3.124171 -0.255692 1.003525 0
M  V30 19 C -3.622540 -1.627925 0.987553 0
M  V30 20 N -4.787286 -2.070349 1.496173 0
M  V30 21 N -4.904682 -3.371399 1.297338 0
M  V30 22 C -3.806530 -3.804117 0.648674 0
M  V30 23 C -3.509197 -5.088373 0.240270 0
M  V30 24 C -2.302817 -5.271334 -0.414742 0
M  V30 25 C -1.504096 -4.162512 -0.603303 0
M  V30 26 C -1.871200 -2.908048 -0.165013 0
M  V30 27 N -3.038290 -2.707724 0.473365 0
M  V30 28 N -1.948383 0.120777 0.480311 0
M  V30 29 C -1.523980 1.415694 0.515744 0
M  V30 30 C 1.730218 0.445744 -2.641249 0
M  V30 31 C 2.401339 -0.895563 -2.809484 0
M  V30 32 N 2.039981 -1.722930 -1.682651 0
M  V30 33 H 1.621071 -0.219887 3.322715 0
M  V30 34 H 3.014842 -0.271536 4.547188 0
M  V30 35 H 3.166870 0.608228 3.014945 0
M  V30 36 H 1.177580 -2.521669 3.717170 0
M  V30 37 H 0.905968 -3.470218 2.250927 0
M  V30 38 H 2.426814 -3.767218 3.235795 0
M  V30 39 H 3.782822 -1.613052 -0.613436 0
M  V30 40 H 2.518099 0.486965 0.707825 0
M  V30 41 H 3.714558 0.624611 -0.586407 0
M  V30 42 H 2.013852 1.968069 -1.217841 0
M  V30 43 H 0.941468 3.452407 -0.343970 0
M  V30 44 H -0.451619 5.118184 0.683600 0
M  V30 45 H -2.603560 4.455213 1.649106 0
M  V30 46 H -4.195744 2.792402 2.136488 0
M  V30 47 H -4.878360 0.453928 2.030096 0
M  V30 48 H -4.199487 -5.898214 0.432808 0
M  V30 49 H -2.023422 -6.254326 -0.753978 0
M  V30 50 H -0.565068 -4.318621 -1.115830 0
M  V30 51 H -1.256962 -2.032492 -0.306319 0
M  V30 52 H 0.734546 0.372464 -3.122439 0
M  V30 53 H 2.297930 1.163456 -3.301705 0
M  V30 54 H 3.510824 -0.794689 -2.892849 0
M  V30 55 H 2.012212 -1.381263 -3.721919 0
M  V30 56 H 2.259360 -2.728762 -1.858861 0
M  V30 END ATOM
M  V30 BEGIN BOND
M  V30 1 1 1 2
M  V30 2 1 2 3
M  V30 3 1 3 4
M  V30 4 1 3 5
M  V30 5 2 5 6
M  V30 6 1 5 7
M  V30 7 1 7 8
M  V30 8 1 8 9
M  V30 9 1 9 10
M  V30 10 1 10 11
M  V30 11 2 11 12
M  V30 12 1 12 13
M  V30 13 2 13 14
M  V30 14 1 14 15
M  V30 15 2 15 16
M  V30 16 1 16 17
M  V30 17 2 17 18
M  V30 18 1 18 19
M  V30 19 2 19 20
M  V30 20 1 20 21
M  V30 21 2 21 22
M  V30 22 1 22 23
M  V30 23 2 23 24
M  V30 24 1 24 25
M  V30 25 2 25 26
M  V30 26 1 26 27
M  V30 27 1 18 28
M  V30 28 2 28 29
M  V30 29 1 9 30
M  V30 30 1 30 31
M  V30 31 1 31 32
M  V30 32 1 32 7
M  V30 33 1 29 11
M  V30 34 1 29 15
M  V30 35 1 27 19
M  V30 36 1 27 22
M  V30 37 1 1 33
M  V30 38 1 1 34
M  V30 39 1 1 35
M  V30 40 1 4 36
M  V30 41 1 4 37
M  V30 42 1 4 38
M  V30 43 1 7 39 CFG=3
M  V30 44 1 8 40
M  V30 45 1 8 41
M  V30 46 1 9 42
M  V30 47 1 12 43
M  V30 48 1 13 44
M  V30 49 1 14 45
M  V30 50 1 16 46
M  V30 51 1 17 47
M  V30 52 1 23 48
M  V30 53 1 24 49
M  V30 54 1 25 50
M  V30 55 1 26 51
M  V30 56 1 30 52
M  V30 57 1 30 53
M  V30 58 1 31 54
M  V30 59 1 31 55
M  V30 60 1 32 56
M  V30 END BOND
M  V30 END CTAB
M  END
>  <Dataset>  (777) 
ChEMBL_Kinases

>  <Ligand_Instance>  (777) 
nan

>  <PDB_ID>  (777) 
nan

>  <Standardized_SMILES>  (777) 
CON(C)C(=O)[C@@H]1CC(Oc2cccc3ccc(-c4nnc5ccccn45)nc23)CCN1

>  <Name>  (777) 
nan

>  <Pocket>  (777) 
nan

>  <ATP_Site>  (777) 
nan

>  <Peripheral>  (777) 
nan

>  <Num_H_Atoms_ProtBoundConf>  (777) 
nan

>  <Num_Resolved_Atoms>  (777) 
nan

>  <Num_Not_Resolved_Atoms>  (777) 
nan

$$$$
CHEMBL3604783
     RDKit          3D

  0  0  0  0  0  0  0  0  0  0999 V3000
M  V30 BEGIN CTAB
M  V30 COUNTS 36 38 0 0 0
M  V30 BEGIN ATOM
M  V30 1 C -0.830935 -4.383546 0.806000 0
M  V30 2 O 0.430243 -4.199130 1.409481 0
M  V30 3 C 1.165901 -3.082870 1.111291 0
M  V30 4 C 2.399496 -2.886297 1.693171 0
M  V30 5 C 3.146091 -1.752010 1.389709 0
M  V30 6 C 2.639524 -0.819742 0.496797 0
M  V30 7 C 1.381103 -1.012034 -0.101649 0
M  V30 8 C 1.070518 0.088383 -0.997507 0
M  V30 9 C 1.883449 0.041598 -2.138894 0
M  V30 10 C 1.719056 1.034774 -3.111759 0
M  V30 11 N 0.801524 2.018970 -2.963052 0
M  V30 12 C 0.012191 2.059520 -1.849002 0
M  V30 13 C 0.140767 1.100090 -0.865023 0
M  V30 14 C -0.657019 1.064927 0.347947 0
M  V30 15 C -1.681586 0.197903 0.676029 0
M  V30 16 C -2.348323 0.280683 1.880161 0
M  V30 17 F -3.334275 -0.635556 2.067723 0
M  V30 18 C -2.027845 1.237331 2.826649 0
M  V30 19 O -2.723752 1.286973 4.025692 0
M  V30 20 C -1.001177 2.087684 2.469370 0
M  V30 21 F -0.675118 3.032736 3.385498 0
M  V30 22 C -0.322276 2.034207 1.290738 0
M  V30 23 C 0.681989 -2.145588 0.228141 0
M  V30 24 H -1.524682 -3.581735 1.164603 0
M  V30 25 H -1.296933 -5.343615 1.057191 0
M  V30 26 H -0.695099 -4.323609 -0.296821 0
M  V30 27 H 2.837475 -3.589142 2.398950 0
M  V30 28 H 4.116065 -1.630093 1.866982 0
M  V30 29 H 3.314376 0.029444 0.336450 0
M  V30 30 H 2.649385 -0.700006 -2.361898 0
M  V30 31 H 2.279426 1.117617 -4.040700 0
M  V30 32 H -0.740110 2.811776 -1.661578 0
M  V30 33 H -1.912460 -0.531891 -0.083318 0
M  V30 34 H -2.892680 0.412826 4.492431 0
M  V30 35 H 0.473912 2.765924 1.124127 0
M  V30 36 H -0.264559 -2.213374 -0.278944 0
M  V30 END ATOM
M  V30 BEGIN BOND
M  V30 1 1 1 2
M  V30 2 1 2 3
M  V30 3 2 3 4
M  V30 4 1 4 5
M  V30 5 2 5 6
M  V30 6 1 6 7
M  V30 7 1 7 8
M  V30 8 2 8 9
M  V30 9 1 9 10
M  V30 10 2 10 11
M  V30 11 1 11 12
M  V30 12 2 12 13
M  V30 13 1 13 14
M  V30 14 2 14 15
M  V30 15 1 15 16
M  V30 16 1 16 17
M  V30 17 2 16 18
M  V30 18 1 18 19
M  V30 19 1 18 20
M  V30 20 1 20 21
M  V30 21 2 20 22
M  V30 22 2 7 23
M  V30 23 1 23 3
M  V30 24 1 13 8
M  V30 25 1 22 14
M  V30 26 1 1 24
M  V30 27 1 1 25
M  V30 28 1 1 26
M  V30 29 1 4 27
M  V30 30 1 5 28
M  V30 31 1 6 29
M  V30 32 1 9 30
M  V30 33 1 10 31
M  V30 34 1 12 32
M  V30 35 1 15 33
M  V30 36 1 19 34
M  V30 37 1 22 35
M  V30 38 1 23 36
M  V30 END BOND
M  V30 END CTAB
M  END
>  <Dataset>  (778) 
ChEMBL_Kinases

>  <Ligand_Instance>  (778) 
nan

>  <PDB_ID>  (778) 
nan

>  <Standardized_SMILES>  (778) 
COc1cccc(-c2ccncc2-c2cc(F)c(O)c(F)c2)c1

>  <Name>  (778) 
nan

>  <Pocket>  (778) 
nan

>  <ATP_Site>  (778) 
nan

>  <Peripheral>  (778) 
nan

>  <Num_H_Atoms_ProtBoundConf>  (778) 
nan

>  <Num_Resolved_Atoms>  (778) 
nan

>  <Num_Not_Resolved_Atoms>  (778) 
nan

$$$$
CHEMBL3604784
     RDKit          3D

  0  0  0  0  0  0  0  0  0  0999 V3000
M  V30 BEGIN CTAB
M  V30 COUNTS 41 43 0 0 0
M  V30 BEGIN ATOM
M  V30 1 N -1.140178 -4.899883 1.626788 0
M  V30 2 C 0.150611 -4.592086 2.213812 0
M  V30 3 C 0.562418 -3.249550 1.661310 0
M  V30 4 O 0.670183 -3.266902 0.251124 0
M  V30 5 C 1.036320 -2.141643 -0.478181 0
M  V30 6 C 1.133234 -2.189535 -1.856109 0
M  V30 7 C 1.503969 -1.035783 -2.547536 0
M  V30 8 C 1.769944 0.137796 -1.858419 0
M  V30 9 C 1.676862 0.203876 -0.465533 0
M  V30 10 C 1.948714 1.420838 0.296211 0
M  V30 11 C 3.226344 1.979859 0.218713 0
M  V30 12 C 3.546730 3.130310 0.915003 0
M  V30 13 N 2.628332 3.717313 1.671287 0
M  V30 14 C 1.389634 3.194857 1.760270 0
M  V30 15 C 1.004237 2.051973 1.093424 0
M  V30 16 C -0.321977 1.457491 1.164394 0
M  V30 17 C -0.614792 1.084874 2.474067 0
M  V30 18 C -1.834569 0.489108 2.801429 0
M  V30 19 F -2.167652 0.108694 4.058169 0
M  V30 20 C -2.747188 0.275751 1.800385 0
M  V30 21 O -3.971384 -0.316154 2.097263 0
M  V30 22 C -2.457153 0.644816 0.503032 0
M  V30 23 F -3.321376 0.457530 -0.523297 0
M  V30 24 C -1.252938 1.233825 0.175342 0
M  V30 25 C 1.307180 -0.959889 0.178082 0
M  V30 26 H -1.756336 -5.311057 2.348037 0
M  V30 27 H -0.951708 -5.530531 0.815578 0
M  V30 28 H 0.885738 -5.379087 1.988916 0
M  V30 29 H 0.072885 -4.544024 3.318472 0
M  V30 30 H 1.592987 -3.043891 2.055071 0
M  V30 31 H -0.066342 -2.428170 1.993680 0
M  V30 32 H 0.931053 -3.090317 -2.408685 0
M  V30 33 H 1.589786 -1.040250 -3.637070 0
M  V30 34 H 2.061085 1.047322 -2.392612 0
M  V30 35 H 3.974908 1.501675 -0.397209 0
M  V30 36 H 4.564427 3.513582 0.809589 0
M  V30 37 H 0.577644 3.617730 2.360948 0
M  V30 38 H 0.025222 1.200955 3.356493 0
M  V30 39 H -3.989596 -1.161376 2.657169 0
M  V30 40 H -0.909022 1.564354 -0.788828 0
M  V30 41 H 1.224600 -0.950453 1.244505 0
M  V30 END ATOM
M  V30 BEGIN BOND
M  V30 1 1 1 2
M  V30 2 1 2 3
M  V30 3 1 3 4
M  V30 4 1 4 5
M  V30 5 2 5 6
M  V30 6 1 6 7
M  V30 7 2 7 8
M  V30 8 1 8 9
M  V30 9 1 9 10
M  V30 10 2 10 11
M  V30 11 1 11 12
M  V30 12 2 12 13
M  V30 13 1 13 14
M  V30 14 2 14 15
M  V30 15 1 15 16
M  V30 16 2 16 17
M  V30 17 1 17 18
M  V30 18 1 18 19
M  V30 19 2 18 20
M  V30 20 1 20 21
M  V30 21 1 20 22
M  V30 22 1 22 23
M  V30 23 2 22 24
M  V30 24 2 9 25
M  V30 25 1 25 5
M  V30 26 1 15 10
M  V30 27 1 24 16
M  V30 28 1 1 26
M  V30 29 1 1 27
M  V30 30 1 2 28
M  V30 31 1 2 29
M  V30 32 1 3 30
M  V30 33 1 3 31
M  V30 34 1 6 32
M  V30 35 1 7 33
M  V30 36 1 8 34
M  V30 37 1 11 35
M  V30 38 1 12 36
M  V30 39 1 14 37
M  V30 40 1 17 38
M  V30 41 1 21 39
M  V30 42 1 24 40
M  V30 43 1 25 41
M  V30 END BOND
M  V30 END CTAB
M  END
>  <Dataset>  (779) 
ChEMBL_Kinases

>  <Ligand_Instance>  (779) 
nan

>  <PDB_ID>  (779) 
nan

>  <Standardized_SMILES>  (779) 
NCCOc1cccc(-c2ccncc2-c2cc(F)c(O)c(F)c2)c1

>  <Name>  (779) 
nan

>  <Pocket>  (779) 
nan

>  <ATP_Site>  (779) 
nan

>  <Peripheral>  (779) 
nan

>  <Num_H_Atoms_ProtBoundConf>  (779) 
nan

>  <Num_Resolved_Atoms>  (779) 
nan

>  <Num_Not_Resolved_Atoms>  (779) 
nan

$$$$
CHEMBL3604785
     RDKit          3D

  0  0  0  0  0  0  0  0  0  0999 V3000
M  V30 BEGIN CTAB
M  V30 COUNTS 39 42 0 0 0
M  V30 BEGIN ATOM
M  V30 1 O 3.196122 -2.921834 3.959683 0
M  V30 2 C 2.978634 -2.205139 2.783871 0
M  V30 3 C 3.795361 -1.131692 2.504790 0
M  V30 4 F 4.805550 -0.715597 3.296208 0
M  V30 5 C 3.620593 -0.389885 1.352730 0
M  V30 6 C 2.611996 -0.738143 0.478189 0
M  V30 7 C 2.220302 -0.131190 -0.790115 0
M  V30 8 C 3.132689 -0.125807 -1.842716 0
M  V30 9 N 2.825274 0.416831 -3.029936 0
M  V30 10 C 1.632103 0.983501 -3.278535 0
M  V30 11 C 0.701636 0.991562 -2.243802 0
M  V30 12 C 0.984413 0.441627 -1.007500 0
M  V30 13 C 0.012738 0.448252 0.082652 0
M  V30 14 C 0.481466 1.190394 1.166307 0
M  V30 15 C -0.262808 1.342581 2.317554 0
M  V30 16 C -1.518166 0.731151 2.385971 0
M  V30 17 C -1.973392 -0.001265 1.308337 0
M  V30 18 C -3.275833 -0.657201 1.333187 0
M  V30 19 C -3.647516 -1.842436 0.688507 0
M  V30 20 N -4.913215 -2.149951 0.928799 0
M  V30 21 N -5.390990 -1.191165 1.721784 0
M  V30 22 C -4.434468 -0.271825 1.988840 0
M  V30 23 C -1.228159 -0.150640 0.162076 0
M  V30 24 C 1.792542 -1.832491 0.779982 0
M  V30 25 C 1.960904 -2.578801 1.929138 0
M  V30 26 F 1.192969 -3.638992 2.254500 0
M  V30 27 H 2.857629 -3.893549 3.990669 0
M  V30 28 H 4.180646 0.468713 1.008912 0
M  V30 29 H 4.097491 -0.572852 -1.673585 0
M  V30 30 H 1.358552 1.431953 -4.238130 0
M  V30 31 H -0.262764 1.442000 -2.422965 0
M  V30 32 H 1.448961 1.712407 1.222678 0
M  V30 33 H 0.078238 1.917567 3.182239 0
M  V30 34 H -2.142930 0.812269 3.253228 0
M  V30 35 H -2.938561 -2.389666 0.084165 0
M  V30 36 H -6.366705 -1.157391 2.083966 0
M  V30 37 H -4.498839 0.617137 2.591957 0
M  V30 38 H -1.484907 -0.696019 -0.730839 0
M  V30 39 H 0.959407 -2.205218 0.163317 0
M  V30 END ATOM
M  V30 BEGIN BOND
M  V30 1 1 1 2
M  V30 2 2 2 3
M  V30 3 1 3 4
M  V30 4 1 3 5
M  V30 5 2 5 6
M  V30 6 1 6 7
M  V30 7 2 7 8
M  V30 8 1 8 9
M  V30 9 2 9 10
M  V30 10 1 10 11
M  V30 11 2 11 12
M  V30 12 1 12 13
M  V30 13 2 13 14
M  V30 14 1 14 15
M  V30 15 2 15 16
M  V30 16 1 16 17
M  V30 17 1 17 18
M  V30 18 1 18 19
M  V30 19 2 19 20
M  V30 20 1 20 21
M  V30 21 1 21 22
M  V30 22 2 17 23
M  V30 23 1 6 24
M  V30 24 2 24 25
M  V30 25 1 25 26
M  V30 26 1 25 2
M  V30 27 1 12 7
M  V30 28 1 23 13
M  V30 29 2 22 18
M  V30 30 1 1 27
M  V30 31 1 5 28
M  V30 32 1 8 29
M  V30 33 1 10 30
M  V30 34 1 11 31
M  V30 35 1 14 32
M  V30 36 1 15 33
M  V30 37 1 16 34
M  V30 38 1 19 35
M  V30 39 1 21 36
M  V30 40 1 22 37
M  V30 41 1 23 38
M  V30 42 1 24 39
M  V30 END BOND
M  V30 END CTAB
M  END
>  <Dataset>  (780) 
ChEMBL_Kinases

>  <Ligand_Instance>  (780) 
nan

>  <PDB_ID>  (780) 
nan

>  <Standardized_SMILES>  (780) 
Oc1c(F)cc(-c2cnccc2-c2cccc(-c3cn[nH]c3)c2)cc1F

>  <Name>  (780) 
nan

>  <Pocket>  (780) 
nan

>  <ATP_Site>  (780) 
nan

>  <Peripheral>  (780) 
nan

>  <Num_H_Atoms_ProtBoundConf>  (780) 
nan

>  <Num_Resolved_Atoms>  (780) 
nan

>  <Num_Not_Resolved_Atoms>  (780) 
nan

$$$$
CHEMBL3604786
     RDKit          3D

  0  0  0  0  0  0  0  0  0  0999 V3000
M  V30 BEGIN CTAB
M  V30 COUNTS 45 48 0 0 0
M  V30 BEGIN ATOM
M  V30 1 O -2.645155 -3.399311 2.806550 0
M  V30 2 C -2.206223 -2.831493 1.615116 0
M  V30 3 C -1.344176 -3.557505 0.808248 0
M  V30 4 F -0.961514 -4.793497 1.210522 0
M  V30 5 C -0.910911 -2.977040 -0.384034 0
M  V30 6 C -1.326897 -1.701303 -0.764856 0
M  V30 7 C -0.740114 -1.328188 -2.034699 0
M  V30 8 C -0.897146 -1.963502 -3.236791 0
M  V30 9 N -0.306635 -1.541428 -4.373534 0
M  V30 10 C 0.485149 -0.446731 -4.376905 0
M  V30 11 C 0.675196 0.230674 -3.185325 0
M  V30 12 C 0.067059 -0.207859 -2.025927 0
M  V30 13 C 0.380513 0.631297 -0.873214 0
M  V30 14 C -0.022947 1.964292 -1.019097 0
M  V30 15 C 0.251122 2.795009 0.045270 0
M  V30 16 C 0.881817 2.348038 1.183231 0
M  V30 17 C 1.277908 1.037387 1.325346 0
M  V30 18 N 1.928985 0.519613 2.470645 0
M  V30 19 C 2.372142 -0.841448 2.697683 0
M  V30 20 C 1.518435 -1.353662 3.866314 0
M  V30 21 O 1.967610 -0.723719 4.998749 0
M  V30 22 C 1.774597 0.633071 4.934322 0
M  V30 23 C 2.282418 1.249248 3.646382 0
M  V30 24 C 1.006170 0.204755 0.265003 0
M  V30 25 C -2.185343 -1.005331 0.060938 0
M  V30 26 C -2.619631 -1.569327 1.241257 0
M  V30 27 F -3.454555 -0.834068 1.996235 0
M  V30 28 H -2.519667 -4.380070 2.986467 0
M  V30 29 H -0.232683 -3.641216 -0.941475 0
M  V30 30 H -1.547879 -2.850053 -3.196151 0
M  V30 31 H 0.946974 -0.134270 -5.316463 0
M  V30 32 H 1.326497 1.097924 -3.284252 0
M  V30 33 H -0.517999 2.363725 -1.885766 0
M  V30 34 H -0.042558 3.838890 -0.019998 0
M  V30 35 H 1.059150 3.052822 1.965218 0
M  V30 36 H 2.153575 -1.526202 1.869344 0
M  V30 37 H 3.462019 -0.896112 2.986028 0
M  V30 38 H 0.473636 -1.117809 3.629864 0
M  V30 39 H 1.695319 -2.447658 3.912467 0
M  V30 40 H 0.738411 0.969945 5.162264 0
M  V30 41 H 2.403053 1.075004 5.762838 0
M  V30 42 H 1.982440 2.293944 3.588144 0
M  V30 43 H 3.396055 1.252048 3.730605 0
M  V30 44 H 1.242757 -0.830251 0.209373 0
M  V30 45 H -2.438140 -0.031633 -0.335785 0
M  V30 END ATOM
M  V30 BEGIN BOND
M  V30 1 1 1 2
M  V30 2 2 2 3
M  V30 3 1 3 4
M  V30 4 1 3 5
M  V30 5 2 5 6
M  V30 6 1 6 7
M  V30 7 2 7 8
M  V30 8 1 8 9
M  V30 9 2 9 10
M  V30 10 1 10 11
M  V30 11 2 11 12
M  V30 12 1 12 13
M  V30 13 2 13 14
M  V30 14 1 14 15
M  V30 15 2 15 16
M  V30 16 1 16 17
M  V30 17 1 17 18
M  V30 18 1 18 19
M  V30 19 1 19 20
M  V30 20 1 20 21
M  V30 21 1 21 22
M  V30 22 1 22 23
M  V30 23 2 17 24
M  V30 24 1 6 25
M  V30 25 2 25 26
M  V30 26 1 26 27
M  V30 27 1 26 2
M  V30 28 1 12 7
M  V30 29 1 24 13
M  V30 30 1 23 18
M  V30 31 1 1 28
M  V30 32 1 5 29
M  V30 33 1 8 30
M  V30 34 1 10 31
M  V30 35 1 11 32
M  V30 36 1 14 33
M  V30 37 1 15 34
M  V30 38 1 16 35
M  V30 39 1 19 36
M  V30 40 1 19 37
M  V30 41 1 20 38
M  V30 42 1 20 39
M  V30 43 1 22 40
M  V30 44 1 22 41
M  V30 45 1 23 42
M  V30 46 1 23 43
M  V30 47 1 24 44
M  V30 48 1 25 45
M  V30 END BOND
M  V30 END CTAB
M  END
>  <Dataset>  (781) 
ChEMBL_Kinases

>  <Ligand_Instance>  (781) 
nan

>  <PDB_ID>  (781) 
nan

>  <Standardized_SMILES>  (781) 
Oc1c(F)cc(-c2cnccc2-c2cccc(N3CCOCC3)c2)cc1F

>  <Name>  (781) 
nan

>  <Pocket>  (781) 
nan

>  <ATP_Site>  (781) 
nan

>  <Peripheral>  (781) 
nan

>  <Num_H_Atoms_ProtBoundConf>  (781) 
nan

>  <Num_Resolved_Atoms>  (781) 
nan

>  <Num_Not_Resolved_Atoms>  (781) 
nan

$$$$
CHEMBL3604787
     RDKit          3D

  0  0  0  0  0  0  0  0  0  0999 V3000
M  V30 BEGIN CTAB
M  V30 COUNTS 49 52 0 0 0
M  V30 BEGIN ATOM
M  V30 1 C -2.031033 -3.099853 2.286952 0
M  V30 2 N -1.257371 -4.012062 1.477961 0
M  V30 3 C -0.910825 -3.508736 0.198920 0
M  V30 4 C 0.593363 -3.390954 0.016668 0
M  V30 5 N 1.072712 -2.886425 1.306275 0
M  V30 6 C 1.452702 -1.563030 1.656318 0
M  V30 7 C 1.855813 -1.169756 2.934430 0
M  V30 8 C 2.186023 0.147549 3.098623 0
M  V30 9 C 2.142421 1.092968 2.086363 0
M  V30 10 C 1.732413 0.663046 0.813794 0
M  V30 11 C 1.772463 1.806811 -0.083184 0
M  V30 12 C 3.002345 2.398558 -0.359401 0
M  V30 13 C 2.990733 3.486754 -1.210913 0
M  V30 14 N 1.883006 4.005336 -1.783039 0
M  V30 15 C 0.704358 3.398941 -1.487951 0
M  V30 16 C 0.638857 2.305700 -0.644592 0
M  V30 17 C -0.714683 1.804273 -0.480456 0
M  V30 18 C -1.142485 0.757556 -1.311183 0
M  V30 19 C -2.371948 0.168583 -1.308032 0
M  V30 20 F -2.675289 -0.833076 -2.153390 0
M  V30 21 C -3.304256 0.637105 -0.400374 0
M  V30 22 O -4.542908 0.032892 -0.409054 0
M  V30 23 C -2.942071 1.666521 0.445442 0
M  V30 24 F -3.851168 2.130777 1.336342 0
M  V30 25 C -1.685090 2.233397 0.406728 0
M  V30 26 C 1.395378 -0.657605 0.623699 0
M  V30 27 C 1.091055 -4.009714 2.226582 0
M  V30 28 C -0.236473 -4.721633 2.194091 0
M  V30 29 H -1.502817 -2.203337 2.613967 0
M  V30 30 H -2.434404 -3.679333 3.146811 0
M  V30 31 H -2.908692 -2.795861 1.667833 0
M  V30 32 H -1.308854 -4.185498 -0.583229 0
M  V30 33 H -1.355624 -2.501846 0.039163 0
M  V30 34 H 0.828752 -2.708354 -0.797958 0
M  V30 35 H 1.010343 -4.378211 -0.211765 0
M  V30 36 H 1.888211 -1.912068 3.716477 0
M  V30 37 H 2.490564 0.370960 4.134685 0
M  V30 38 H 2.441547 2.071264 2.431821 0
M  V30 39 H 3.900601 2.002111 0.085820 0
M  V30 40 H 3.983332 3.902771 -1.386948 0
M  V30 41 H -0.142001 3.871681 -1.985409 0
M  V30 42 H -0.419636 0.373147 -2.032627 0
M  V30 43 H -5.027693 -0.387400 0.347646 0
M  V30 44 H -1.372775 3.042034 1.058427 0
M  V30 45 H 1.117241 -0.775809 -0.409772 0
M  V30 46 H 1.446822 -3.789940 3.227210 0
M  V30 47 H 1.860571 -4.710865 1.788032 0
M  V30 48 H -0.122103 -5.701623 1.703968 0
M  V30 49 H -0.628529 -4.895194 3.213832 0
M  V30 END ATOM
M  V30 BEGIN BOND
M  V30 1 1 1 2
M  V30 2 1 2 3
M  V30 3 1 3 4
M  V30 4 1 4 5
M  V30 5 1 5 6
M  V30 6 2 6 7
M  V30 7 1 7 8
M  V30 8 2 8 9
M  V30 9 1 9 10
M  V30 10 1 10 11
M  V30 11 2 11 12
M  V30 12 1 12 13
M  V30 13 2 13 14
M  V30 14 1 14 15
M  V30 15 2 15 16
M  V30 16 1 16 17
M  V30 17 2 17 18
M  V30 18 1 18 19
M  V30 19 1 19 20
M  V30 20 2 19 21
M  V30 21 1 21 22
M  V30 22 1 21 23
M  V30 23 1 23 24
M  V30 24 2 23 25
M  V30 25 2 10 26
M  V30 26 1 5 27
M  V30 27 1 27 28
M  V30 28 1 28 2
M  V30 29 1 26 6
M  V30 30 1 16 11
M  V30 31 1 25 17
M  V30 32 1 1 29
M  V30 33 1 1 30
M  V30 34 1 1 31
M  V30 35 1 3 32
M  V30 36 1 3 33
M  V30 37 1 4 34
M  V30 38 1 4 35
M  V30 39 1 7 36
M  V30 40 1 8 37
M  V30 41 1 9 38
M  V30 42 1 12 39
M  V30 43 1 13 40
M  V30 44 1 15 41
M  V30 45 1 18 42
M  V30 46 1 22 43
M  V30 47 1 25 44
M  V30 48 1 26 45
M  V30 49 1 27 46
M  V30 50 1 27 47
M  V30 51 1 28 48
M  V30 52 1 28 49
M  V30 END BOND
M  V30 END CTAB
M  END
>  <Dataset>  (782) 
ChEMBL_Kinases

>  <Ligand_Instance>  (782) 
nan

>  <PDB_ID>  (782) 
nan

>  <Standardized_SMILES>  (782) 
CN1CCN(c2cccc(-c3ccncc3-c3cc(F)c(O)c(F)c3)c2)CC1

>  <Name>  (782) 
nan

>  <Pocket>  (782) 
nan

>  <ATP_Site>  (782) 
nan

>  <Peripheral>  (782) 
nan

>  <Num_H_Atoms_ProtBoundConf>  (782) 
nan

>  <Num_Resolved_Atoms>  (782) 
nan

>  <Num_Not_Resolved_Atoms>  (782) 
nan

$$$$
CHEMBL3604788
     RDKit          3D

  0  0  0  0  0  0  0  0  0  0999 V3000
M  V30 BEGIN CTAB
M  V30 COUNTS 32 34 0 0 0
M  V30 BEGIN ATOM
M  V30 1 O -0.151635 -3.033125 4.871300 0
M  V30 2 C -0.048003 -2.687395 3.514278 0
M  V30 3 C 1.085724 -3.030965 2.798477 0
M  V30 4 F 2.071294 -3.697057 3.432139 0
M  V30 5 C 1.143719 -2.670001 1.466183 0
M  V30 6 C 0.090364 -1.978360 0.856595 0
M  V30 7 C 0.386625 -1.711665 -0.549737 0
M  V30 8 C 0.610323 -2.711527 -1.476577 0
M  V30 9 N 0.883155 -2.402877 -2.777947 0
M  V30 10 C 0.940173 -1.118423 -3.186272 0
M  V30 11 C 0.713920 -0.130651 -2.245978 0
M  V30 12 C 0.433068 -0.381419 -0.913646 0
M  V30 13 C 0.219961 0.773176 -0.048622 0
M  V30 14 C 0.953174 1.159519 1.029556 0
M  V30 15 C 0.550520 2.299328 1.693565 0
M  V30 16 C -0.538829 3.066678 1.337971 0
M  V30 17 F -0.866999 4.186144 2.056214 0
M  V30 18 C -1.276419 2.653257 0.230407 0
M  V30 19 C -0.878368 1.506871 -0.444244 0
M  V30 20 C -1.033648 -1.642865 1.583757 0
M  V30 21 C -1.090301 -2.005432 2.919328 0
M  V30 22 F -2.204539 -1.654851 3.579887 0
M  V30 23 H -0.316333 -4.021137 5.120929 0
M  V30 24 H 2.068031 -2.980302 0.986899 0
M  V30 25 H 0.551769 -3.732654 -1.091351 0
M  V30 26 H 1.155353 -0.891751 -4.210797 0
M  V30 27 H 0.770602 0.896947 -2.624487 0
M  V30 28 H 1.783153 0.543057 1.270795 0
M  V30 29 H 1.130918 2.610303 2.551432 0
M  V30 30 H -2.132258 3.263023 -0.042550 0
M  V30 31 H -1.535044 1.294447 -1.286231 0
M  V30 32 H -1.771584 -1.114592 1.006102 0
M  V30 END ATOM
M  V30 BEGIN BOND
M  V30 1 1 1 2
M  V30 2 2 2 3
M  V30 3 1 3 4
M  V30 4 1 3 5
M  V30 5 2 5 6
M  V30 6 1 6 7
M  V30 7 2 7 8
M  V30 8 1 8 9
M  V30 9 2 9 10
M  V30 10 1 10 11
M  V30 11 2 11 12
M  V30 12 1 12 13
M  V30 13 2 13 14
M  V30 14 1 14 15
M  V30 15 2 15 16
M  V30 16 1 16 17
M  V30 17 1 16 18
M  V30 18 2 18 19
M  V30 19 1 6 20
M  V30 20 2 20 21
M  V30 21 1 21 22
M  V30 22 1 21 2
M  V30 23 1 12 7
M  V30 24 1 19 13
M  V30 25 1 1 23
M  V30 26 1 5 24
M  V30 27 1 8 25
M  V30 28 1 10 26
M  V30 29 1 11 27
M  V30 30 1 14 28
M  V30 31 1 15 29
M  V30 32 1 18 30
M  V30 33 1 19 31
M  V30 34 1 20 32
M  V30 END BOND
M  V30 END CTAB
M  END
>  <Dataset>  (783) 
ChEMBL_Kinases

>  <Ligand_Instance>  (783) 
nan

>  <PDB_ID>  (783) 
nan

>  <Standardized_SMILES>  (783) 
Oc1c(F)cc(-c2cnccc2-c2ccc(F)cc2)cc1F

>  <Name>  (783) 
nan

>  <Pocket>  (783) 
nan

>  <ATP_Site>  (783) 
nan

>  <Peripheral>  (783) 
nan

>  <Num_H_Atoms_ProtBoundConf>  (783) 
nan

>  <Num_Resolved_Atoms>  (783) 
nan

>  <Num_Not_Resolved_Atoms>  (783) 
nan

$$$$
CHEMBL3604789
     RDKit          3D

  0  0  0  0  0  0  0  0  0  0999 V3000
M  V30 BEGIN CTAB
M  V30 COUNTS 35 37 0 0 0
M  V30 BEGIN ATOM
M  V30 1 C -1.265104 -2.934010 3.809522 0
M  V30 2 C -0.361190 -2.211314 2.872296 0
M  V30 3 C -0.391044 -2.512859 1.516166 0
M  V30 4 C 0.467244 -1.820708 0.655946 0
M  V30 5 C 1.334624 -0.846296 1.160514 0
M  V30 6 C 2.110199 -0.289144 0.047642 0
M  V30 7 C 3.493303 -0.442317 0.009213 0
M  V30 8 C 4.129405 0.125146 -1.099235 0
M  V30 9 N 3.434179 0.771297 -2.053345 0
M  V30 10 C 2.096838 0.932068 -2.037582 0
M  V30 11 C 1.429235 0.385202 -0.957218 0
M  V30 12 C -0.039042 0.545589 -0.904702 0
M  V30 13 C -0.415062 1.311402 0.206632 0
M  V30 14 C -1.788629 1.529871 0.357626 0
M  V30 15 F -2.215058 2.268796 1.420466 0
M  V30 16 C -2.766277 1.042478 -0.509033 0
M  V30 17 O -4.096470 1.294692 -0.301780 0
M  V30 18 C -2.310187 0.299265 -1.575433 0
M  V30 19 F -3.213738 -0.193078 -2.438065 0
M  V30 20 C -0.966911 0.050017 -1.777349 0
M  V30 21 C 1.347243 -0.568119 2.487826 0
M  V30 22 C 0.508248 -1.240785 3.348187 0
M  V30 23 H -2.103436 -3.373417 3.203215 0
M  V30 24 H -0.651673 -3.764830 4.229107 0
M  V30 25 H -1.629731 -2.233491 4.563782 0
M  V30 26 H -1.088090 -3.276706 1.206151 0
M  V30 27 H 0.336505 -2.156610 -0.365612 0
M  V30 28 H 3.982171 -0.968679 0.802695 0
M  V30 29 H 5.194985 0.000081 -1.115492 0
M  V30 30 H 1.536796 1.446927 -2.797988 0
M  V30 31 H 0.251910 1.739709 0.942874 0
M  V30 32 H -4.521296 1.510208 0.581851 0
M  V30 33 H -0.565539 -0.519638 -2.587395 0
M  V30 34 H 2.062272 0.200385 2.734686 0
M  V30 35 H 0.567478 -0.972588 4.393124 0
M  V30 END ATOM
M  V30 BEGIN BOND
M  V30 1 1 1 2
M  V30 2 2 2 3
M  V30 3 1 3 4
M  V30 4 2 4 5
M  V30 5 1 5 6
M  V30 6 2 6 7
M  V30 7 1 7 8
M  V30 8 2 8 9
M  V30 9 1 9 10
M  V30 10 2 10 11
M  V30 11 1 11 12
M  V30 12 2 12 13
M  V30 13 1 13 14
M  V30 14 1 14 15
M  V30 15 2 14 16
M  V30 16 1 16 17
M  V30 17 1 16 18
M  V30 18 1 18 19
M  V30 19 2 18 20
M  V30 20 1 5 21
M  V30 21 2 21 22
M  V30 22 1 22 2
M  V30 23 1 11 6
M  V30 24 1 20 12
M  V30 25 1 1 23
M  V30 26 1 1 24
M  V30 27 1 1 25
M  V30 28 1 3 26
M  V30 29 1 4 27
M  V30 30 1 7 28
M  V30 31 1 8 29
M  V30 32 1 10 30
M  V30 33 1 13 31
M  V30 34 1 17 32
M  V30 35 1 20 33
M  V30 36 1 21 34
M  V30 37 1 22 35
M  V30 END BOND
M  V30 END CTAB
M  END
>  <Dataset>  (784) 
ChEMBL_Kinases

>  <Ligand_Instance>  (784) 
nan

>  <PDB_ID>  (784) 
nan

>  <Standardized_SMILES>  (784) 
Cc1ccc(-c2ccncc2-c2cc(F)c(O)c(F)c2)cc1

>  <Name>  (784) 
nan

>  <Pocket>  (784) 
nan

>  <ATP_Site>  (784) 
nan

>  <Peripheral>  (784) 
nan

>  <Num_H_Atoms_ProtBoundConf>  (784) 
nan

>  <Num_Resolved_Atoms>  (784) 
nan

>  <Num_Not_Resolved_Atoms>  (784) 
nan

$$$$
CHEMBL3604790
     RDKit          3D

  0  0  0  0  0  0  0  0  0  0999 V3000
M  V30 BEGIN CTAB
M  V30 COUNTS 36 38 0 0 0
M  V30 BEGIN ATOM
M  V30 1 C -0.921313 -5.235469 2.162718 0
M  V30 2 O 0.015252 -4.318654 2.681845 0
M  V30 3 C 0.457464 -3.219787 1.961257 0
M  V30 4 C 1.386379 -2.382829 2.580896 0
M  V30 5 C 1.897744 -1.256203 1.955924 0
M  V30 6 C 1.471541 -0.946233 0.664962 0
M  V30 7 C 2.069697 0.255820 0.101275 0
M  V30 8 C 3.442837 0.306309 -0.068353 0
M  V30 9 C 4.112968 1.402253 -0.596058 0
M  V30 10 N 3.365192 2.478513 -0.962073 0
M  V30 11 C 2.023158 2.470476 -0.813398 0
M  V30 12 C 1.359445 1.373821 -0.286097 0
M  V30 13 C -0.090610 1.364081 -0.124825 0
M  V30 14 C -0.821055 1.491738 -1.293005 0
M  V30 15 C -2.195563 1.499434 -1.296954 0
M  V30 16 F -2.931394 1.623689 -2.431684 0
M  V30 17 C -2.912470 1.376816 -0.104111 0
M  V30 18 O -4.300094 1.378858 -0.053783 0
M  V30 19 C -2.142873 1.251576 1.038904 0
M  V30 20 F -2.764128 1.128027 2.235536 0
M  V30 21 C -0.762098 1.241399 1.066250 0
M  V30 22 C 0.552947 -1.765119 0.039624 0
M  V30 23 C 0.071213 -2.864853 0.684057 0
M  V30 24 H -1.948837 -4.941163 2.427956 0
M  V30 25 H -0.718203 -6.226469 2.642851 0
M  V30 26 H -0.785005 -5.422279 1.066460 0
M  V30 27 H 1.733577 -2.608347 3.593507 0
M  V30 28 H 2.614601 -0.648647 2.489861 0
M  V30 29 H 4.039908 -0.569137 0.230635 0
M  V30 30 H 5.191712 1.378434 -0.703225 0
M  V30 31 H 1.429859 3.340993 -1.110774 0
M  V30 32 H -0.362340 1.592729 -2.269090 0
M  V30 33 H -4.778131 1.202465 -0.933605 0
M  V30 34 H -0.182770 1.144045 1.954605 0
M  V30 35 H 0.254687 -1.490915 -0.946805 0
M  V30 36 H -0.659632 -3.532241 0.209706 0
M  V30 END ATOM
M  V30 BEGIN BOND
M  V30 1 1 1 2
M  V30 2 1 2 3
M  V30 3 2 3 4
M  V30 4 1 4 5
M  V30 5 2 5 6
M  V30 6 1 6 7
M  V30 7 2 7 8
M  V30 8 1 8 9
M  V30 9 2 9 10
M  V30 10 1 10 11
M  V30 11 2 11 12
M  V30 12 1 12 13
M  V30 13 2 13 14
M  V30 14 1 14 15
M  V30 15 1 15 16
M  V30 16 2 15 17
M  V30 17 1 17 18
M  V30 18 1 17 19
M  V30 19 1 19 20
M  V30 20 2 19 21
M  V30 21 1 6 22
M  V30 22 2 22 23
M  V30 23 1 23 3
M  V30 24 1 12 7
M  V30 25 1 21 13
M  V30 26 1 1 24
M  V30 27 1 1 25
M  V30 28 1 1 26
M  V30 29 1 4 27
M  V30 30 1 5 28
M  V30 31 1 8 29
M  V30 32 1 9 30
M  V30 33 1 11 31
M  V30 34 1 14 32
M  V30 35 1 18 33
M  V30 36 1 21 34
M  V30 37 1 22 35
M  V30 38 1 23 36
M  V30 END BOND
M  V30 END CTAB
M  END
>  <Dataset>  (785) 
ChEMBL_Kinases

>  <Ligand_Instance>  (785) 
nan

>  <PDB_ID>  (785) 
nan

>  <Standardized_SMILES>  (785) 
COc1ccc(-c2ccncc2-c2cc(F)c(O)c(F)c2)cc1

>  <Name>  (785) 
nan

>  <Pocket>  (785) 
nan

>  <ATP_Site>  (785) 
nan

>  <Peripheral>  (785) 
nan

>  <Num_H_Atoms_ProtBoundConf>  (785) 
nan

>  <Num_Resolved_Atoms>  (785) 
nan

>  <Num_Not_Resolved_Atoms>  (785) 
nan

$$$$
CHEMBL3604791
     RDKit          3D

  0  0  0  0  0  0  0  0  0  0999 V3000
M  V30 BEGIN CTAB
M  V30 COUNTS 39 41 0 0 0
M  V30 BEGIN ATOM
M  V30 1 C 1.838740 -5.408224 3.182459 0
M  V30 2 N 1.626685 -4.024151 2.860596 0
M  V30 3 C 1.942895 -3.618656 1.513417 0
M  V30 4 O 2.352918 -4.578092 0.868232 0
M  V30 5 C 1.756874 -2.235139 1.105867 0
M  V30 6 C 2.101555 -1.887912 -0.185008 0
M  V30 7 C 1.969646 -0.609631 -0.687211 0
M  V30 8 C 1.469267 0.394714 0.121743 0
M  V30 9 C 1.240722 1.797217 -0.166925 0
M  V30 10 C 2.153883 2.777809 -0.498605 0
M  V30 11 C 1.702671 4.080325 -0.732646 0
M  V30 12 N 0.393234 4.370271 -0.634899 0
M  V30 13 C -0.530798 3.431560 -0.311195 0
M  V30 14 C -0.110749 2.138561 -0.075240 0
M  V30 15 C -1.214750 1.244231 0.259422 0
M  V30 16 C -1.380657 0.223319 -0.666819 0
M  V30 17 C -2.408605 -0.695442 -0.451442 0
M  V30 18 F -2.729461 -1.762693 -1.243863 0
M  V30 19 C -3.217983 -0.568142 0.655040 0
M  V30 20 O -4.273346 -1.457316 0.935700 0
M  V30 21 C -3.049374 0.434344 1.557744 0
M  V30 22 F -3.853560 0.562610 2.658769 0
M  V30 23 C -2.037930 1.349738 1.358177 0
M  V30 24 C 1.116189 0.052492 1.434704 0
M  V30 25 C 1.258165 -1.251451 1.924949 0
M  V30 26 H 1.009985 -6.016923 2.713800 0
M  V30 27 H 2.793026 -5.730370 2.724715 0
M  V30 28 H 1.797891 -5.532295 4.267876 0
M  V30 29 H 1.257650 -3.363495 3.594896 0
M  V30 30 H 2.503368 -2.610360 -0.893569 0
M  V30 31 H 2.213601 -0.266737 -1.670119 0
M  V30 32 H 3.173787 2.421684 -0.545601 0
M  V30 33 H 2.478573 4.796511 -0.987758 0
M  V30 34 H -1.566999 3.774485 -0.258656 0
M  V30 35 H -0.802678 0.037842 -1.561949 0
M  V30 36 H -4.247057 -2.372009 0.464077 0
M  V30 37 H -1.829817 2.177607 2.021422 0
M  V30 38 H 0.710942 0.763937 2.158631 0
M  V30 39 H 0.978462 -1.481023 2.935384 0
M  V30 END ATOM
M  V30 BEGIN BOND
M  V30 1 1 1 2
M  V30 2 1 2 3
M  V30 3 2 3 4
M  V30 4 1 3 5
M  V30 5 2 5 6
M  V30 6 1 6 7
M  V30 7 2 7 8
M  V30 8 1 8 9
M  V30 9 2 9 10
M  V30 10 1 10 11
M  V30 11 2 11 12
M  V30 12 1 12 13
M  V30 13 2 13 14
M  V30 14 1 14 15
M  V30 15 2 15 16
M  V30 16 1 16 17
M  V30 17 1 17 18
M  V30 18 2 17 19
M  V30 19 1 19 20
M  V30 20 1 19 21
M  V30 21 1 21 22
M  V30 22 2 21 23
M  V30 23 1 8 24
M  V30 24 2 24 25
M  V30 25 1 25 5
M  V30 26 1 14 9
M  V30 27 1 23 15
M  V30 28 1 1 26
M  V30 29 1 1 27
M  V30 30 1 1 28
M  V30 31 1 2 29
M  V30 32 1 6 30
M  V30 33 1 7 31
M  V30 34 1 10 32
M  V30 35 1 11 33
M  V30 36 1 13 34
M  V30 37 1 16 35
M  V30 38 1 20 36
M  V30 39 1 23 37
M  V30 40 1 24 38
M  V30 41 1 25 39
M  V30 END BOND
M  V30 END CTAB
M  END
>  <Dataset>  (786) 
ChEMBL_Kinases

>  <Ligand_Instance>  (786) 
nan

>  <PDB_ID>  (786) 
nan

>  <Standardized_SMILES>  (786) 
CNC(=O)c1ccc(-c2ccncc2-c2cc(F)c(O)c(F)c2)cc1

>  <Name>  (786) 
nan

>  <Pocket>  (786) 
nan

>  <ATP_Site>  (786) 
nan

>  <Peripheral>  (786) 
nan

>  <Num_H_Atoms_ProtBoundConf>  (786) 
nan

>  <Num_Resolved_Atoms>  (786) 
nan

>  <Num_Not_Resolved_Atoms>  (786) 
nan

$$$$
CHEMBL3604782
     RDKit          3D

  0  0  0  0  0  0  0  0  0  0999 V3000
M  V30 BEGIN CTAB
M  V30 COUNTS 35 37 0 0 0
M  V30 BEGIN ATOM
M  V30 1 C -0.750844 -2.284320 3.634589 0
M  V30 2 C 0.341020 -2.116540 2.622723 0
M  V30 3 C 1.206122 -3.163100 2.298756 0
M  V30 4 C 2.211955 -3.027983 1.373971 0
M  V30 5 C 2.318997 -1.779086 0.774790 0
M  V30 6 C 1.489802 -0.685505 1.048712 0
M  V30 7 C 1.731382 0.551897 0.337443 0
M  V30 8 C 2.966507 1.142113 0.511042 0
M  V30 9 C 3.204371 2.336348 -0.175814 0
M  V30 10 N 2.295999 2.925236 -0.985222 0
M  V30 11 C 1.072414 2.347728 -1.161850 0
M  V30 12 C 0.811364 1.166969 -0.494728 0
M  V30 13 C -0.484321 0.493583 -0.637579 0
M  V30 14 C -0.811102 -0.745325 -1.129099 0
M  V30 15 C -2.119582 -1.135977 -1.151703 0
M  V30 16 F -2.351162 -2.370475 -1.651586 0
M  V30 17 C -3.133650 -0.323761 -0.694565 0
M  V30 18 O -4.445786 -0.748733 -0.731452 0
M  V30 19 C -2.831714 0.930908 -0.193769 0
M  V30 20 F -3.858615 1.692912 0.242915 0
M  V30 21 C -1.494237 1.334919 -0.168540 0
M  V30 22 C 0.509140 -0.899650 1.983946 0
M  V30 23 H -1.749239 -2.142349 3.130282 0
M  V30 24 H -0.592214 -1.516426 4.423700 0
M  V30 25 H -0.658966 -3.284604 4.085963 0
M  V30 26 H 1.091023 -4.121390 2.787477 0
M  V30 27 H 2.896583 -3.813422 1.100299 0
M  V30 28 H 3.112246 -1.665919 0.042621 0
M  V30 29 H 3.738760 0.721139 1.146409 0
M  V30 30 H 4.179043 2.779371 -0.023499 0
M  V30 31 H 0.274043 2.730314 -1.783271 0
M  V30 32 H 0.072900 -1.279655 -1.453678 0
M  V30 33 H -4.799677 -1.212618 -1.539998 0
M  V30 34 H -1.395692 2.341376 0.248490 0
M  V30 35 H -0.152706 -0.049430 2.211516 0
M  V30 END ATOM
M  V30 BEGIN BOND
M  V30 1 1 1 2
M  V30 2 2 2 3
M  V30 3 1 3 4
M  V30 4 2 4 5
M  V30 5 1 5 6
M  V30 6 1 6 7
M  V30 7 2 7 8
M  V30 8 1 8 9
M  V30 9 2 9 10
M  V30 10 1 10 11
M  V30 11 2 11 12
M  V30 12 1 12 13
M  V30 13 2 13 14
M  V30 14 1 14 15
M  V30 15 1 15 16
M  V30 16 2 15 17
M  V30 17 1 17 18
M  V30 18 1 17 19
M  V30 19 1 19 20
M  V30 20 2 19 21
M  V30 21 2 6 22
M  V30 22 1 22 2
M  V30 23 1 12 7
M  V30 24 1 21 13
M  V30 25 1 1 23
M  V30 26 1 1 24
M  V30 27 1 1 25
M  V30 28 1 3 26
M  V30 29 1 4 27
M  V30 30 1 5 28
M  V30 31 1 8 29
M  V30 32 1 9 30
M  V30 33 1 11 31
M  V30 34 1 14 32
M  V30 35 1 18 33
M  V30 36 1 21 34
M  V30 37 1 22 35
M  V30 END BOND
M  V30 END CTAB
M  END
>  <Dataset>  (787) 
ChEMBL_Kinases

>  <Ligand_Instance>  (787) 
nan

>  <PDB_ID>  (787) 
nan

>  <Standardized_SMILES>  (787) 
Cc1cccc(-c2ccncc2-c2cc(F)c(O)c(F)c2)c1

>  <Name>  (787) 
nan

>  <Pocket>  (787) 
nan

>  <ATP_Site>  (787) 
nan

>  <Peripheral>  (787) 
nan

>  <Num_H_Atoms_ProtBoundConf>  (787) 
nan

>  <Num_Resolved_Atoms>  (787) 
nan

>  <Num_Not_Resolved_Atoms>  (787) 
nan

$$$$
CHEMBL4080994
     RDKit          3D

  0  0  0  0  0  0  0  0  0  0999 V3000
M  V30 BEGIN CTAB
M  V30 COUNTS 41 44 0 0 0
M  V30 BEGIN ATOM
M  V30 1 O 0.478473 -1.773227 -2.738921 0
M  V30 2 C 0.471099 -1.367668 -1.550420 0
M  V30 3 N 1.423192 -1.800226 -0.604197 0
M  V30 4 C 2.489045 -2.716842 -0.830419 0
M  V30 5 C 2.171674 -4.040334 -0.602339 0
M  V30 6 C 3.154070 -5.014482 -0.797833 0
M  V30 7 C 4.419607 -4.622351 -1.215481 0
M  V30 8 O 5.395409 -5.595132 -1.409139 0
M  V30 9 C 4.694911 -3.284730 -1.432410 0
M  V30 10 C 3.737028 -2.293513 -1.245963 0
M  V30 11 C -0.585216 -0.418197 -1.204145 0
M  V30 12 C -1.484709 -0.039100 -2.185666 0
M  V30 13 N -2.500094 0.842607 -1.944910 0
M  V30 14 C -2.652282 1.380724 -0.702157 0
M  V30 15 N -3.534248 2.256372 -0.166626 0
M  V30 16 C -3.248414 2.467402 1.130615 0
M  V30 17 C -2.134896 1.702525 1.467077 0
M  V30 18 C -1.514529 1.657288 2.786324 0
M  V30 19 C -0.140126 1.726279 2.945061 0
M  V30 20 C 0.518730 1.689747 4.157537 0
M  V30 21 C -0.265408 1.574815 5.300730 0
M  V30 22 O 0.393022 1.537790 6.520854 0
M  V30 23 C -1.638239 1.503245 5.185561 0
M  V30 24 C -2.275269 1.542432 3.950133 0
M  V30 25 C -1.782534 1.035523 0.310397 0
M  V30 26 C -0.749739 0.133775 0.050872 0
M  V30 27 H 1.413762 -1.460803 0.382841 0
M  V30 28 H 1.209936 -4.383423 -0.280406 0
M  V30 29 H 2.935715 -6.059419 -0.627387 0
M  V30 30 H 6.346189 -5.536852 -1.106422 0
M  V30 31 H 5.672283 -2.956920 -1.757473 0
M  V30 32 H 3.934700 -1.238368 -1.411266 0
M  V30 33 H -1.465886 -0.397432 -3.206657 0
M  V30 34 H -4.321402 2.696946 -0.702080 0
M  V30 35 H -3.770998 3.116618 1.835468 0
M  V30 36 H 0.521717 1.817163 2.080625 0
M  V30 37 H 1.595694 1.747166 4.227088 0
M  V30 38 H 0.293415 0.715487 7.118637 0
M  V30 39 H -2.213757 1.413591 6.111200 0
M  V30 40 H -3.363902 1.483606 3.892513 0
M  V30 41 H -0.075189 -0.138135 0.823864 0
M  V30 END ATOM
M  V30 BEGIN BOND
M  V30 1 2 1 2
M  V30 2 1 2 3
M  V30 3 1 3 4
M  V30 4 2 4 5
M  V30 5 1 5 6
M  V30 6 2 6 7
M  V30 7 1 7 8
M  V30 8 1 7 9
M  V30 9 2 9 10
M  V30 10 1 2 11
M  V30 11 2 11 12
M  V30 12 1 12 13
M  V30 13 2 13 14
M  V30 14 1 14 15
M  V30 15 1 15 16
M  V30 16 2 16 17
M  V30 17 1 17 18
M  V30 18 2 18 19
M  V30 19 1 19 20
M  V30 20 2 20 21
M  V30 21 1 21 22
M  V30 22 1 21 23
M  V30 23 2 23 24
M  V30 24 1 17 25
M  V30 25 2 25 26
M  V30 26 1 10 4
M  V30 27 1 26 11
M  V30 28 1 25 14
M  V30 29 1 24 18
M  V30 30 1 3 27
M  V30 31 1 5 28
M  V30 32 1 6 29
M  V30 33 1 8 30
M  V30 34 1 9 31
M  V30 35 1 10 32
M  V30 36 1 12 33
M  V30 37 1 15 34
M  V30 38 1 16 35
M  V30 39 1 19 36
M  V30 40 1 20 37
M  V30 41 1 22 38
M  V30 42 1 23 39
M  V30 43 1 24 40
M  V30 44 1 26 41
M  V30 END BOND
M  V30 END CTAB
M  END
>  <Dataset>  (788) 
ChEMBL_Kinases

>  <Ligand_Instance>  (788) 
nan

>  <PDB_ID>  (788) 
nan

>  <Standardized_SMILES>  (788) 
O=C(Nc1ccc(O)cc1)c1cnc2[nH]cc(-c3ccc(O)cc3)c2c1

>  <Name>  (788) 
nan

>  <Pocket>  (788) 
nan

>  <ATP_Site>  (788) 
nan

>  <Peripheral>  (788) 
nan

>  <Num_H_Atoms_ProtBoundConf>  (788) 
nan

>  <Num_Resolved_Atoms>  (788) 
nan

>  <Num_Not_Resolved_Atoms>  (788) 
nan

$$$$
CHEMBL3660051
     RDKit          3D

  0  0  0  0  0  0  0  0  0  0999 V3000
M  V30 BEGIN CTAB
M  V30 COUNTS 55 59 0 0 0
M  V30 BEGIN ATOM
M  V30 1 C 2.368718 -3.466974 3.680618 0
M  V30 2 N 3.035085 -2.182357 3.882684 0
M  V30 3 C 4.472677 -2.146527 4.186450 0
M  V30 4 C 2.495392 -0.876495 3.832414 0
M  V30 5 O 3.016496 0.241496 3.995641 0
M  V30 6 C 1.076376 -0.546438 3.550659 0 CFG=2
M  V30 7 C 0.597616 -1.095357 2.215888 0
M  V30 8 C -0.301834 -0.071183 1.532211 0
M  V30 9 O 0.334816 0.895715 0.859801 0
M  V30 10 C 0.537712 1.457267 -0.306645 0
M  V30 11 C 1.436825 2.521215 -0.151913 0
M  V30 12 C 1.876582 3.341820 -1.198740 0
M  V30 13 C 1.364937 3.045583 -2.442947 0
M  V30 14 C 0.490315 2.008967 -2.587042 0
M  V30 15 C -0.013796 1.723453 -3.833402 0
M  V30 16 C -0.884861 0.680443 -3.933913 0
M  V30 17 C -1.318205 -0.132929 -2.883978 0
M  V30 18 C -2.258589 -1.180897 -3.274879 0
M  V30 19 N -2.718206 -1.423132 -4.491402 0
M  V30 20 N -3.539910 -2.424689 -4.502553 0
M  V30 21 C -3.671190 -2.909962 -3.266127 0
M  V30 22 C -4.414874 -3.948536 -2.771487 0
M  V30 23 C -4.358793 -4.236823 -1.411110 0
M  V30 24 C -3.535888 -3.427658 -0.662118 0
M  V30 25 C -2.820003 -2.402137 -1.236478 0
M  V30 26 N -2.866860 -2.118116 -2.537704 0
M  V30 27 N -0.808299 0.165884 -1.661285 0
M  V30 28 C 0.051499 1.196445 -1.565867 0
M  V30 29 C -1.273916 0.385224 2.606517 0
M  V30 30 C -0.580757 1.049490 3.762025 0
M  V30 31 N 0.855236 0.882549 3.575724 0
M  V30 32 H 3.152490 -4.240286 3.562495 0
M  V30 33 H 1.782470 -3.491298 2.727290 0
M  V30 34 H 1.677621 -3.712927 4.500186 0
M  V30 35 H 4.558929 -1.779380 5.239881 0
M  V30 36 H 4.872189 -3.168907 4.108150 0
M  V30 37 H 4.954665 -1.442351 3.498496 0
M  V30 38 H 0.481358 -0.956970 4.392441 0
M  V30 39 H 1.414746 -1.424236 1.568517 0
M  V30 40 H -0.046565 -1.968330 2.448507 0
M  V30 41 H -0.918855 -0.661888 0.832419 0
M  V30 42 H 1.910296 2.852749 0.785872 0
M  V30 43 H 2.564989 4.165304 -1.113665 0
M  V30 44 H 1.636863 3.611323 -3.309681 0
M  V30 45 H 0.292996 2.324373 -4.670699 0
M  V30 46 H -1.236762 0.524368 -4.966098 0
M  V30 47 H -5.054893 -4.565645 -3.400762 0
M  V30 48 H -4.922059 -5.036731 -0.985899 0
M  V30 49 H -3.473606 -3.634424 0.416086 0
M  V30 50 H -2.212601 -1.827556 -0.594547 0
M  V30 51 H -2.108759 0.991300 2.190353 0
M  V30 52 H -1.758000 -0.538529 2.993450 0
M  V30 53 H -0.813326 0.535146 4.736118 0
M  V30 54 H -0.876014 2.097980 3.933051 0
M  V30 55 H 1.422608 1.400634 4.254246 0
M  V30 END ATOM
M  V30 BEGIN BOND
M  V30 1 1 1 2
M  V30 2 1 2 3
M  V30 3 1 2 4
M  V30 4 2 4 5
M  V30 5 1 4 6
M  V30 6 1 6 7
M  V30 7 1 7 8
M  V30 8 1 8 9
M  V30 9 1 9 10
M  V30 10 2 10 11
M  V30 11 1 11 12
M  V30 12 2 12 13
M  V30 13 1 13 14
M  V30 14 2 14 15
M  V30 15 1 15 16
M  V30 16 2 16 17
M  V30 17 1 17 18
M  V30 18 2 18 19
M  V30 19 1 19 20
M  V30 20 2 20 21
M  V30 21 1 21 22
M  V30 22 2 22 23
M  V30 23 1 23 24
M  V30 24 2 24 25
M  V30 25 1 25 26
M  V30 26 1 17 27
M  V30 27 2 27 28
M  V30 28 1 8 29
M  V30 29 1 29 30
M  V30 30 1 30 31
M  V30 31 1 31 6
M  V30 32 1 28 10
M  V30 33 1 28 14
M  V30 34 1 26 18
M  V30 35 1 26 21
M  V30 36 1 1 32
M  V30 37 1 1 33
M  V30 38 1 1 34
M  V30 39 1 3 35
M  V30 40 1 3 36
M  V30 41 1 3 37
M  V30 42 1 6 38 CFG=1
M  V30 43 1 7 39
M  V30 44 1 7 40
M  V30 45 1 8 41
M  V30 46 1 11 42
M  V30 47 1 12 43
M  V30 48 1 13 44
M  V30 49 1 15 45
M  V30 50 1 16 46
M  V30 51 1 22 47
M  V30 52 1 23 48
M  V30 53 1 24 49
M  V30 54 1 25 50
M  V30 55 1 29 51
M  V30 56 1 29 52
M  V30 57 1 30 53
M  V30 58 1 30 54
M  V30 59 1 31 55
M  V30 END BOND
M  V30 END CTAB
M  END
>  <Dataset>  (789) 
ChEMBL_Kinases

>  <Ligand_Instance>  (789) 
nan

>  <PDB_ID>  (789) 
nan

>  <Standardized_SMILES>  (789) 
CN(C)C(=O)[C@@H]1CC(Oc2cccc3ccc(-c4nnc5ccccn45)nc23)CCN1

>  <Name>  (789) 
nan

>  <Pocket>  (789) 
nan

>  <ATP_Site>  (789) 
nan

>  <Peripheral>  (789) 
nan

>  <Num_H_Atoms_ProtBoundConf>  (789) 
nan

>  <Num_Resolved_Atoms>  (789) 
nan

>  <Num_Not_Resolved_Atoms>  (789) 
nan

$$$$
CHEMBL3660050
     RDKit          3D

  0  0  0  0  0  0  0  0  0  0999 V3000
M  V30 BEGIN CTAB
M  V30 COUNTS 48 52 0 0 0
M  V30 BEGIN ATOM
M  V30 1 C -0.456346 -4.640966 3.485337 0
M  V30 2 C 0.365746 -3.981249 2.563400 0
M  V30 3 C 0.078182 -2.724766 2.010692 0
M  V30 4 O 1.019584 -2.358752 1.184150 0
M  V30 5 C 1.540041 -1.483356 0.331240 0
M  V30 6 C 1.626569 -2.171335 -1.051353 0
M  V30 7 C 1.965622 -1.073044 -2.034753 0
M  V30 8 C 3.447380 -0.900418 -2.249996 0
M  V30 9 N 4.046262 0.018980 -1.320535 0
M  V30 10 C 3.305128 0.170003 -0.096354 0
M  V30 11 C 3.011416 -1.112896 0.599707 0
M  V30 12 C -1.081343 -2.101851 2.396900 0
M  V30 13 N -1.337641 -0.897849 1.854750 0
M  V30 14 C -2.470042 -0.216464 2.188919 0
M  V30 15 C -2.927002 1.080661 1.722216 0
M  V30 16 N -4.063282 1.691089 2.100737 0
M  V30 17 N -4.188823 2.853876 1.497933 0
M  V30 18 C -3.133699 3.059758 0.691695 0
M  V30 19 C -2.756763 4.082412 -0.154890 0
M  V30 20 C -1.580435 4.002519 -0.871646 0
M  V30 21 C -0.797480 2.862637 -0.709175 0
M  V30 22 C -1.256671 1.905735 0.152120 0
M  V30 23 N -2.387770 1.954266 0.857973 0
M  V30 24 C -3.295579 -0.872671 3.111031 0
M  V30 25 C -3.037787 -2.102306 3.667295 0
M  V30 26 C -1.882666 -2.736138 3.290386 0
M  V30 27 C -1.604906 -3.962846 3.831943 0
M  V30 28 H -0.243918 -5.606985 3.915894 0
M  V30 29 H 1.250894 -4.584021 2.343460 0
M  V30 30 H 1.028611 -0.551170 0.115164 0
M  V30 31 H 0.641379 -2.610472 -1.267015 0
M  V30 32 H 2.450354 -2.928400 -1.015050 0
M  V30 33 H 1.467073 -0.136401 -1.735798 0
M  V30 34 H 1.520150 -1.417273 -3.012797 0
M  V30 35 H 3.945763 -1.872062 -2.211127 0
M  V30 36 H 3.583566 -0.488374 -3.271604 0
M  V30 37 H 5.057643 -0.148527 -1.208568 0
M  V30 38 H 2.449902 0.846195 -0.244309 0
M  V30 39 H 3.996272 0.741938 0.590622 0
M  V30 40 H 3.678146 -1.907653 0.212571 0
M  V30 41 H 3.126742 -1.032526 1.698231 0
M  V30 42 H -3.378636 4.965470 -0.270805 0
M  V30 43 H -1.231066 4.769991 -1.550146 0
M  V30 44 H 0.131544 2.781889 -1.264851 0
M  V30 45 H -0.630699 1.041432 0.254322 0
M  V30 46 H -4.236643 -0.420250 3.455731 0
M  V30 47 H -3.710039 -2.561577 4.374003 0
M  V30 48 H -2.300710 -4.393468 4.537077 0
M  V30 END ATOM
M  V30 BEGIN BOND
M  V30 1 2 1 2
M  V30 2 1 2 3
M  V30 3 1 3 4
M  V30 4 1 4 5
M  V30 5 1 5 6
M  V30 6 1 6 7
M  V30 7 1 7 8
M  V30 8 1 8 9
M  V30 9 1 9 10
M  V30 10 1 10 11
M  V30 11 2 3 12
M  V30 12 1 12 13
M  V30 13 2 13 14
M  V30 14 1 14 15
M  V30 15 2 15 16
M  V30 16 1 16 17
M  V30 17 2 17 18
M  V30 18 1 18 19
M  V30 19 2 19 20
M  V30 20 1 20 21
M  V30 21 2 21 22
M  V30 22 1 22 23
M  V30 23 1 14 24
M  V30 24 2 24 25
M  V30 25 1 25 26
M  V30 26 2 26 27
M  V30 27 1 27 1
M  V30 28 1 11 5
M  V30 29 1 26 12
M  V30 30 1 23 15
M  V30 31 1 23 18
M  V30 32 1 1 28
M  V30 33 1 2 29
M  V30 34 1 5 30
M  V30 35 1 6 31
M  V30 36 1 6 32
M  V30 37 1 7 33
M  V30 38 1 7 34
M  V30 39 1 8 35
M  V30 40 1 8 36
M  V30 41 1 9 37
M  V30 42 1 10 38
M  V30 43 1 10 39
M  V30 44 1 11 40
M  V30 45 1 11 41
M  V30 46 1 19 42
M  V30 47 1 20 43
M  V30 48 1 21 44
M  V30 49 1 22 45
M  V30 50 1 24 46
M  V30 51 1 25 47
M  V30 52 1 27 48
M  V30 END BOND
M  V30 END CTAB
M  END
>  <Dataset>  (790) 
ChEMBL_Kinases

>  <Ligand_Instance>  (790) 
nan

>  <PDB_ID>  (790) 
nan

>  <Standardized_SMILES>  (790) 
c1cc(OC2CCCNCC2)c2nc(-c3nnc4ccccn34)ccc2c1

>  <Name>  (790) 
nan

>  <Pocket>  (790) 
nan

>  <ATP_Site>  (790) 
nan

>  <Peripheral>  (790) 
nan

>  <Num_H_Atoms_ProtBoundConf>  (790) 
nan

>  <Num_Resolved_Atoms>  (790) 
nan

>  <Num_Not_Resolved_Atoms>  (790) 
nan

$$$$
CHEMBL3660049
     RDKit          3D

  0  0  0  0  0  0  0  0  0  0999 V3000
M  V30 BEGIN CTAB
M  V30 COUNTS 48 52 0 0 0
M  V30 BEGIN ATOM
M  V30 1 F 2.968506 -2.226161 4.094125 0
M  V30 2 C 1.922926 -1.579152 3.415383 0
M  V30 3 C 0.806325 -2.539134 3.298161 0
M  V30 4 N 0.104658 -2.643245 2.095691 0
M  V30 5 C 0.785829 -3.068162 0.932353 0
M  V30 6 C 2.222723 -3.400373 1.128613 0
M  V30 7 C 3.114334 -2.226007 1.323740 0
M  V30 8 C 2.516302 -1.093261 2.115028 0
M  V30 9 O 1.612953 -0.303396 1.419146 0
M  V30 10 C 1.704661 1.001001 1.041199 0
M  V30 11 C 2.791206 1.813381 1.296782 0
M  V30 12 C 2.906955 3.135479 0.924470 0
M  V30 13 C 1.854333 3.723772 0.232092 0
M  V30 14 C 0.755859 2.931758 -0.035676 0
M  V30 15 C -0.248770 3.579913 -0.723004 0
M  V30 16 C -1.372547 2.844138 -1.019291 0
M  V30 17 C -1.460428 1.503261 -0.627438 0
M  V30 18 C -2.712739 0.822305 -0.998694 0
M  V30 19 N -3.767596 1.324937 -1.666463 0
M  V30 20 N -4.717143 0.417883 -1.817558 0
M  V30 21 C -4.298075 -0.719157 -1.241986 0
M  V30 22 C -4.914201 -1.947965 -1.127808 0
M  V30 23 C -4.262215 -2.976574 -0.477047 0
M  V30 24 C -3.001093 -2.697278 0.030027 0
M  V30 25 C -2.461083 -1.459837 -0.123157 0
M  V30 26 N -3.064976 -0.448075 -0.745545 0
M  V30 27 N -0.473343 0.918687 0.030827 0
M  V30 28 C 0.651457 1.589205 0.348743 0
M  V30 29 H 1.669554 -0.731150 4.053771 0
M  V30 30 H 1.107173 -3.584446 3.607980 0
M  V30 31 H 0.053682 -2.276472 4.094586 0
M  V30 32 H -0.901994 -2.772895 2.118793 0
M  V30 33 H 0.287590 -4.020109 0.585804 0
M  V30 34 H 0.619003 -2.364011 0.065217 0
M  V30 35 H 2.556976 -4.019490 0.263610 0
M  V30 36 H 2.290472 -4.059204 2.018930 0
M  V30 37 H 3.357983 -1.816988 0.302973 0
M  V30 38 H 4.099015 -2.487292 1.769611 0
M  V30 39 H 3.402571 -0.435997 2.370779 0
M  V30 40 H 3.652906 1.456743 1.822721 0
M  V30 41 H 3.773442 3.746529 1.140204 0
M  V30 42 H 1.925083 4.751020 -0.066560 0
M  V30 43 H -0.197052 4.611680 -1.032240 0
M  V30 44 H -2.192766 3.323450 -1.564515 0
M  V30 45 H -5.899885 -2.074641 -1.554405 0
M  V30 46 H -4.811472 -3.906978 -0.430023 0
M  V30 47 H -2.530102 -3.532657 0.530395 0
M  V30 48 H -1.482970 -1.252249 0.274383 0
M  V30 END ATOM
M  V30 BEGIN BOND
M  V30 1 1 1 2
M  V30 2 1 2 3
M  V30 3 1 3 4
M  V30 4 1 4 5
M  V30 5 1 5 6
M  V30 6 1 6 7
M  V30 7 1 7 8
M  V30 8 1 8 9
M  V30 9 1 9 10
M  V30 10 2 10 11
M  V30 11 1 11 12
M  V30 12 2 12 13
M  V30 13 1 13 14
M  V30 14 2 14 15
M  V30 15 1 15 16
M  V30 16 2 16 17
M  V30 17 1 17 18
M  V30 18 2 18 19
M  V30 19 1 19 20
M  V30 20 2 20 21
M  V30 21 1 21 22
M  V30 22 2 22 23
M  V30 23 1 23 24
M  V30 24 2 24 25
M  V30 25 1 25 26
M  V30 26 1 17 27
M  V30 27 2 27 28
M  V30 28 1 8 2
M  V30 29 1 28 10
M  V30 30 1 28 14
M  V30 31 1 26 18
M  V30 32 1 26 21
M  V30 33 1 2 29
M  V30 34 1 3 30
M  V30 35 1 3 31
M  V30 36 1 4 32
M  V30 37 1 5 33
M  V30 38 1 5 34
M  V30 39 1 6 35
M  V30 40 1 6 36
M  V30 41 1 7 37
M  V30 42 1 7 38
M  V30 43 1 8 39
M  V30 44 1 11 40
M  V30 45 1 12 41
M  V30 46 1 13 42
M  V30 47 1 15 43
M  V30 48 1 16 44
M  V30 49 1 22 45
M  V30 50 1 23 46
M  V30 51 1 24 47
M  V30 52 1 25 48
M  V30 END BOND
M  V30 END CTAB
M  END
>  <Dataset>  (791) 
ChEMBL_Kinases

>  <Ligand_Instance>  (791) 
nan

>  <PDB_ID>  (791) 
nan

>  <Standardized_SMILES>  (791) 
FC1CNCCCC1Oc1cccc2ccc(-c3nnc4ccccn34)nc12

>  <Name>  (791) 
nan

>  <Pocket>  (791) 
nan

>  <ATP_Site>  (791) 
nan

>  <Peripheral>  (791) 
nan

>  <Num_H_Atoms_ProtBoundConf>  (791) 
nan

>  <Num_Resolved_Atoms>  (791) 
nan

>  <Num_Not_Resolved_Atoms>  (791) 
nan

$$$$
CHEMBL3660048
     RDKit          3D

  0  0  0  0  0  0  0  0  0  0999 V3000
M  V30 BEGIN CTAB
M  V30 COUNTS 48 52 0 0 0
M  V30 BEGIN ATOM
M  V30 1 F 2.531183 -0.890738 4.675184 0
M  V30 2 C 1.594057 -1.072320 3.676121 0
M  V30 3 C 0.983155 -2.414068 3.882682 0
M  V30 4 C 0.158348 -2.966181 2.779513 0
M  V30 5 N 0.881816 -3.629166 1.732554 0
M  V30 6 C 1.704899 -2.744175 0.939715 0
M  V30 7 C 2.783992 -2.124534 1.794859 0
M  V30 8 C 2.246667 -0.820862 2.363912 0
M  V30 9 O 1.462478 -0.123805 1.447990 0
M  V30 10 C 1.713773 1.080839 0.866524 0
M  V30 11 C 2.793067 1.909060 1.034540 0
M  V30 12 C 2.976344 3.121241 0.405847 0
M  V30 13 C 2.019539 3.564426 -0.465263 0
M  V30 14 C 0.907248 2.774557 -0.677491 0
M  V30 15 C -0.014127 3.285119 -1.568154 0
M  V30 16 C -1.136792 2.519459 -1.802208 0
M  V30 17 C -1.268212 1.296699 -1.134604 0
M  V30 18 C -2.496613 0.536443 -1.439250 0
M  V30 19 N -3.505830 0.856116 -2.266679 0
M  V30 20 N -4.436053 -0.073015 -2.281811 0
M  V30 21 C -4.053437 -1.046028 -1.447817 0
M  V30 22 C -4.647196 -2.237455 -1.092072 0
M  V30 23 C -4.047407 -3.093196 -0.193839 0
M  V30 24 C -2.832084 -2.710075 0.333332 0
M  V30 25 C -2.298742 -1.503322 -0.069589 0
M  V30 26 N -2.867039 -0.658035 -0.941694 0
M  V30 27 N -0.364792 0.819342 -0.275511 0
M  V30 28 C 0.740425 1.545418 -0.028104 0
M  V30 29 H 0.830916 -0.262823 3.830883 0
M  V30 30 H 1.726144 -3.187910 4.165659 0
M  V30 31 H 0.317486 -2.323573 4.784343 0
M  V30 32 H -0.470120 -3.779715 3.253752 0
M  V30 33 H -0.612690 -2.259827 2.395462 0
M  V30 34 H 0.165929 -4.012423 1.071593 0
M  V30 35 H 1.142262 -1.964770 0.400000 0
M  V30 36 H 2.232306 -3.372884 0.194714 0
M  V30 37 H 3.696151 -1.971657 1.194225 0
M  V30 38 H 3.026770 -2.792555 2.645261 0
M  V30 39 H 3.152983 -0.205196 2.541636 0
M  V30 40 H 3.552567 1.586482 1.708112 0
M  V30 41 H 3.855485 3.719215 0.589761 0
M  V30 42 H 2.155443 4.504874 -0.956911 0
M  V30 43 H 0.126968 4.230382 -2.059516 0
M  V30 44 H -1.892202 2.852288 -2.479810 0
M  V30 45 H -5.609326 -2.495709 -1.536894 0
M  V30 46 H -4.489210 -4.037776 0.106336 0
M  V30 47 H -2.331734 -3.351972 1.038672 0
M  V30 48 H -1.360767 -1.243401 0.358764 0
M  V30 END ATOM
M  V30 BEGIN BOND
M  V30 1 1 1 2
M  V30 2 1 2 3
M  V30 3 1 3 4
M  V30 4 1 4 5
M  V30 5 1 5 6
M  V30 6 1 6 7
M  V30 7 1 7 8
M  V30 8 1 8 9
M  V30 9 1 9 10
M  V30 10 2 10 11
M  V30 11 1 11 12
M  V30 12 2 12 13
M  V30 13 1 13 14
M  V30 14 2 14 15
M  V30 15 1 15 16
M  V30 16 2 16 17
M  V30 17 1 17 18
M  V30 18 2 18 19
M  V30 19 1 19 20
M  V30 20 2 20 21
M  V30 21 1 21 22
M  V30 22 2 22 23
M  V30 23 1 23 24
M  V30 24 2 24 25
M  V30 25 1 25 26
M  V30 26 1 17 27
M  V30 27 2 27 28
M  V30 28 1 8 2
M  V30 29 1 28 10
M  V30 30 1 28 14
M  V30 31 1 26 18
M  V30 32 1 26 21
M  V30 33 1 2 29
M  V30 34 1 3 30
M  V30 35 1 3 31
M  V30 36 1 4 32
M  V30 37 1 4 33
M  V30 38 1 5 34
M  V30 39 1 6 35
M  V30 40 1 6 36
M  V30 41 1 7 37
M  V30 42 1 7 38
M  V30 43 1 8 39
M  V30 44 1 11 40
M  V30 45 1 12 41
M  V30 46 1 13 42
M  V30 47 1 15 43
M  V30 48 1 16 44
M  V30 49 1 22 45
M  V30 50 1 23 46
M  V30 51 1 24 47
M  V30 52 1 25 48
M  V30 END BOND
M  V30 END CTAB
M  END
>  <Dataset>  (792) 
ChEMBL_Kinases

>  <Ligand_Instance>  (792) 
nan

>  <PDB_ID>  (792) 
nan

>  <Standardized_SMILES>  (792) 
FC1CCNCCC1Oc1cccc2ccc(-c3nnc4ccccn34)nc12

>  <Name>  (792) 
nan

>  <Pocket>  (792) 
nan

>  <ATP_Site>  (792) 
nan

>  <Peripheral>  (792) 
nan

>  <Num_H_Atoms_ProtBoundConf>  (792) 
nan

>  <Num_Resolved_Atoms>  (792) 
nan

>  <Num_Not_Resolved_Atoms>  (792) 
nan

$$$$
CHEMBL4080819
     RDKit          3D

  0  0  0  0  0  0  0  0  0  0999 V3000
M  V30 BEGIN CTAB
M  V30 COUNTS 148 152 0 0 0
M  V30 BEGIN ATOM
M  V30 1 C 0.812305 0.119688 4.556505 0
M  V30 2 C 2.237157 0.005150 4.812681 0
M  V30 3 O 2.464017 0.738640 5.819033 0
M  V30 4 N 3.572422 -0.420629 4.644954 0
M  V30 5 C 4.608027 0.063466 5.570709 0
M  V30 6 C 5.308098 -1.216482 6.029286 0
M  V30 7 C 4.949946 -2.229810 4.919841 0
M  V30 8 C 4.468380 -1.244249 3.864222 0 CFG=1
M  V30 9 C 3.850369 -1.834792 2.697111 0
M  V30 10 O 4.702551 -2.757335 2.404225 0
M  V30 11 N 2.743197 -1.761133 1.845925 0
M  V30 12 C 2.539690 -2.667114 0.710714 0 CFG=1
M  V30 13 C 1.189391 -3.229560 0.717144 0
M  V30 14 C 0.768704 -4.151449 -0.354375 0
M  V30 15 C 1.566798 -5.405051 -0.538310 0
M  V30 16 C 0.448910 -3.460326 -1.655281 0
M  V30 17 C 3.035511 -1.968623 -0.461325 0
M  V30 18 O 3.265671 -2.696297 -1.458808 0
M  V30 19 N 3.305061 -0.594721 -0.669744 0
M  V30 20 C 3.736524 0.514691 -1.448345 0 CFG=1
M  V30 21 C 2.647585 1.460829 -1.896016 0
M  V30 22 C 1.634956 0.876168 -2.796501 0
M  V30 23 C 1.575275 -0.359390 -3.391632 0
M  V30 24 N 0.487722 -0.434788 -4.179208 0
M  V30 25 C -0.122221 0.755805 -4.069029 0
M  V30 26 N 0.556530 1.574281 -3.231843 0
M  V30 27 C 0.075573 2.922468 -2.973977 0
M  V30 28 C -0.826097 2.981898 -1.754650 0
M  V30 29 C -2.041512 2.129866 -1.872940 0
M  V30 30 C -2.970037 2.495805 -2.987469 0
M  V30 31 C -4.087861 1.487158 -3.016776 0
M  V30 32 C -4.927924 1.453153 -1.777872 0
M  V30 33 C -5.914393 0.306677 -1.942704 0
M  V30 34 C -6.845964 0.152226 -0.768114 0
M  V30 35 C -7.664278 -1.087398 -1.059881 0
M  V30 36 C -8.670400 -1.021825 -1.980230 0
M  V30 37 F -8.963172 0.132867 -2.619786 0
M  V30 38 C -9.358051 -2.194949 -2.212171 0
M  V30 39 C -9.092618 -3.396148 -1.584920 0
M  V30 40 C -8.060114 -3.347322 -0.677816 0
M  V30 41 C -7.283301 -2.239712 -0.343706 0
M  V30 42 O -6.282960 -2.088834 0.501362 0
M  V30 43 C -5.511275 -2.717774 1.359248 0
M  V30 44 C -4.748294 -1.760963 2.054229 0
M  V30 45 C -3.825601 -2.123241 3.043034 0
M  V30 46 C -3.688504 -3.462003 3.314742 0
M  V30 47 C -4.406113 -4.470370 2.669242 0
M  V30 48 O -4.137148 -5.726710 3.070791 0
M  V30 49 C -4.590493 -6.970428 2.685581 0
M  V30 50 C -4.278911 -7.328890 1.267522 0
M  V30 51 C -2.990981 -7.850671 1.095625 0
M  V30 52 C -2.477902 -8.260535 -0.109461 0
M  V30 53 C -3.264504 -8.159385 -1.231488 0
M  V30 54 C -4.556744 -7.646255 -1.117626 0
M  V30 55 C -5.009216 -7.254781 0.117617 0
M  V30 56 C -5.280915 -4.017215 1.722071 0
M  V30 57 C 4.816117 1.330541 -0.835938 0
M  V30 58 O 5.129736 2.215101 -1.733114 0
M  V30 59 N 5.533086 1.381982 0.387154 0
M  V30 60 C 6.487180 2.437048 0.374969 0 CFG=1
M  V30 61 C 7.675639 2.228134 -0.503087 0
M  V30 62 O 8.382721 1.118579 -0.136182 0
M  V30 63 C 5.953505 3.794641 0.152180 0
M  V30 64 O 6.915638 4.636383 0.026995 0
M  V30 65 N 4.645199 4.373130 0.047287 0
M  V30 66 C 4.503696 5.784934 -0.198336 0 CFG=2
M  V30 67 C 4.039791 6.497963 1.051183 0
M  V30 68 N 3.702017 6.214250 2.401762 0
M  V30 69 O 3.905622 7.737086 0.849126 0
M  V30 70 C 3.590183 6.094508 -1.345557 0 CFG=1
M  V30 71 C 2.198691 5.517311 -1.083733 0
M  V30 72 O 3.512275 7.472169 -1.554409 0
M  V30 73 P 3.953869 7.873226 -3.139441 0
M  V30 74 O 5.035616 8.928227 -3.092165 0
M  V30 75 O 2.623790 8.521433 -3.941986 0
M  V30 76 O 4.585401 6.553215 -3.986621 0
M  V30 77 H 0.414824 -0.482149 3.709112 0
M  V30 78 H 0.249680 -0.258374 5.446842 0
M  V30 79 H 0.519405 1.183839 4.402013 0
M  V30 80 H 5.264787 0.700792 4.942574 0
M  V30 81 H 4.252190 0.672196 6.382980 0
M  V30 82 H 4.957315 -1.549982 7.012427 0
M  V30 83 H 6.376096 -1.000434 6.061646 0
M  V30 84 H 5.826693 -2.800213 4.623453 0
M  V30 85 H 4.136953 -2.835297 5.312302 0
M  V30 86 H 5.377287 -0.632508 3.617049 0
M  V30 87 H 2.180394 -0.956179 2.220627 0
M  V30 88 H 3.287550 -3.500395 0.896460 0
M  V30 89 H 0.447591 -2.389153 0.737925 0
M  V30 90 H 1.100299 -3.820927 1.686693 0
M  V30 91 H -0.272535 -4.583899 -0.041064 0
M  V30 92 H 1.531135 -6.009255 0.387143 0
M  V30 93 H 2.559376 -5.293295 -0.965520 0
M  V30 94 H 0.975122 -6.026883 -1.277916 0
M  V30 95 H 0.592398 -2.360010 -1.592130 0
M  V30 96 H -0.617706 -3.697063 -1.931590 0
M  V30 97 H 1.053198 -3.874675 -2.462821 0
M  V30 98 H 3.058604 -0.063806 0.225737 0
M  V30 99 H 4.148937 0.103855 -2.435588 0
M  V30 100 H 2.169813 1.971567 -1.027799 0
M  V30 101 H 3.138400 2.317360 -2.456070 0
M  V30 102 H 2.272076 -1.166787 -3.286075 0
M  V30 103 H -1.028050 0.798163 -4.688372 0
M  V30 104 H 0.875757 3.637819 -2.813673 0
M  V30 105 H -0.524281 3.306590 -3.826730 0
M  V30 106 H -1.133971 4.048938 -1.647185 0
M  V30 107 H -0.267911 2.746544 -0.821546 0
M  V30 108 H -1.771862 1.048152 -2.008320 0
M  V30 109 H -2.540797 2.147706 -0.868544 0
M  V30 110 H -2.439585 2.475087 -3.940804 0
M  V30 111 H -3.353742 3.523728 -2.758990 0
M  V30 112 H -3.648788 0.499299 -3.265336 0
M  V30 113 H -4.737234 1.751146 -3.888458 0
M  V30 114 H -5.556240 2.374203 -1.697606 0
M  V30 115 H -4.384246 1.351535 -0.841196 0
M  V30 116 H -5.307804 -0.621895 -2.080637 0
M  V30 117 H -6.488640 0.427454 -2.874950 0
M  V30 118 H -7.515477 1.040454 -0.771137 0
M  V30 119 H -6.286668 0.046947 0.167036 0
M  V30 120 H -10.160127 -2.161068 -2.941018 0
M  V30 121 H -9.622540 -4.317233 -1.760664 0
M  V30 122 H -7.798535 -4.247845 -0.148136 0
M  V30 123 H -4.756884 -0.664779 1.933610 0
M  V30 124 H -3.216881 -1.403951 3.601197 0
M  V30 125 H -2.962891 -3.726441 4.089200 0
M  V30 126 H -5.723389 -7.028505 2.805540 0
M  V30 127 H -4.163884 -7.762830 3.331391 0
M  V30 128 H -2.280142 -7.974721 1.926743 0
M  V30 129 H -1.489189 -8.660425 -0.251548 0
M  V30 130 H -3.009503 -8.436137 -2.245371 0
M  V30 131 H -5.240569 -7.533135 -1.942649 0
M  V30 132 H -5.991953 -6.864969 0.265328 0
M  V30 133 H -5.877280 -4.713861 1.184761 0
M  V30 134 H 5.139795 0.593809 0.978053 0
M  V30 135 H 6.927502 2.506542 1.429936 0
M  V30 136 H 8.370120 3.110335 -0.371040 0
M  V30 137 H 7.471037 2.167457 -1.582465 0
M  V30 138 H 7.954062 0.500562 0.470038 0
M  V30 139 H 3.926974 3.647825 0.177922 0
M  V30 140 H 5.497111 6.211062 -0.402348 0
M  V30 141 H 4.431551 6.210071 3.166629 0
M  V30 142 H 2.726946 5.996598 2.737645 0
M  V30 143 H 3.944597 5.574533 -2.255238 0
M  V30 144 H 2.315566 4.417125 -1.085430 0
M  V30 145 H 1.780135 5.916550 -0.155036 0
M  V30 146 H 1.565013 5.821625 -1.948721 0
M  V30 147 H 1.813721 7.959731 -3.891625 0
M  V30 148 H 3.982242 6.249932 -4.715246 0
M  V30 END ATOM
M  V30 BEGIN BOND
M  V30 1 1 1 2
M  V30 2 2 2 3
M  V30 3 1 2 4
M  V30 4 1 4 5
M  V30 5 1 5 6
M  V30 6 1 6 7
M  V30 7 1 7 8
M  V30 8 1 8 9
M  V30 9 2 9 10
M  V30 10 1 9 11
M  V30 11 1 11 12
M  V30 12 1 12 13
M  V30 13 1 13 14
M  V30 14 1 14 15
M  V30 15 1 14 16
M  V30 16 1 12 17
M  V30 17 2 17 18
M  V30 18 1 17 19
M  V30 19 1 19 20
M  V30 20 1 20 21
M  V30 21 1 21 22
M  V30 22 2 22 23
M  V30 23 1 23 24
M  V30 24 2 24 25
M  V30 25 1 25 26
M  V30 26 1 26 27
M  V30 27 1 27 28
M  V30 28 1 28 29
M  V30 29 1 29 30
M  V30 30 1 30 31
M  V30 31 1 31 32
M  V30 32 1 32 33
M  V30 33 1 33 34
M  V30 34 1 34 35
M  V30 35 2 35 36
M  V30 36 1 36 37
M  V30 37 1 36 38
M  V30 38 2 38 39
M  V30 39 1 39 40
M  V30 40 2 40 41
M  V30 41 1 41 42
M  V30 42 1 42 43
M  V30 43 2 43 44
M  V30 44 1 44 45
M  V30 45 2 45 46
M  V30 46 1 46 47
M  V30 47 1 47 48
M  V30 48 1 48 49
M  V30 49 1 49 50
M  V30 50 2 50 51
M  V30 51 1 51 52
M  V30 52 2 52 53
M  V30 53 1 53 54
M  V30 54 2 54 55
M  V30 55 2 47 56
M  V30 56 1 20 57
M  V30 57 2 57 58
M  V30 58 1 57 59
M  V30 59 1 59 60
M  V30 60 1 60 61
M  V30 61 1 61 62
M  V30 62 1 60 63
M  V30 63 2 63 64
M  V30 64 1 63 65
M  V30 65 1 65 66
M  V30 66 1 66 67
M  V30 67 1 67 68
M  V30 68 2 67 69
M  V30 69 1 66 70
M  V30 70 1 70 71
M  V30 71 1 70 72
M  V30 72 1 72 73
M  V30 73 2 73 74
M  V30 74 1 73 75
M  V30 75 1 73 76
M  V30 76 1 8 4
M  V30 77 1 26 22
M  V30 78 1 41 35
M  V30 79 1 56 43
M  V30 80 1 55 50
M  V30 81 1 1 77
M  V30 82 1 1 78
M  V30 83 1 1 79
M  V30 84 1 5 80
M  V30 85 1 5 81
M  V30 86 1 6 82
M  V30 87 1 6 83
M  V30 88 1 7 84
M  V30 89 1 7 85
M  V30 90 1 8 86 CFG=3
M  V30 91 1 11 87
M  V30 92 1 12 88 CFG=1
M  V30 93 1 13 89
M  V30 94 1 13 90
M  V30 95 1 14 91
M  V30 96 1 15 92
M  V30 97 1 15 93
M  V30 98 1 15 94
M  V30 99 1 16 95
M  V30 100 1 16 96
M  V30 101 1 16 97
M  V30 102 1 19 98
M  V30 103 1 20 99 CFG=3
M  V30 104 1 21 100
M  V30 105 1 21 101
M  V30 106 1 23 102
M  V30 107 1 25 103
M  V30 108 1 27 104
M  V30 109 1 27 105
M  V30 110 1 28 106
M  V30 111 1 28 107
M  V30 112 1 29 108
M  V30 113 1 29 109
M  V30 114 1 30 110
M  V30 115 1 30 111
M  V30 116 1 31 112
M  V30 117 1 31 113
M  V30 118 1 32 114
M  V30 119 1 32 115
M  V30 120 1 33 116
M  V30 121 1 33 117
M  V30 122 1 34 118
M  V30 123 1 34 119
M  V30 124 1 38 120
M  V30 125 1 39 121
M  V30 126 1 40 122
M  V30 127 1 44 123
M  V30 128 1 45 124
M  V30 129 1 46 125
M  V30 130 1 49 126
M  V30 131 1 49 127
M  V30 132 1 51 128
M  V30 133 1 52 129
M  V30 134 1 53 130
M  V30 135 1 54 131
M  V30 136 1 55 132
M  V30 137 1 56 133
M  V30 138 1 59 134
M  V30 139 1 60 135 CFG=1
M  V30 140 1 61 136
M  V30 141 1 61 137
M  V30 142 1 62 138
M  V30 143 1 65 139
M  V30 144 1 66 140 CFG=3
M  V30 145 1 68 141
M  V30 146 1 68 142
M  V30 147 1 70 143 CFG=3
M  V30 148 1 71 144
M  V30 149 1 71 145
M  V30 150 1 71 146
M  V30 151 1 75 147
M  V30 152 1 76 148
M  V30 END BOND
M  V30 END CTAB
M  END
>  <Dataset>  (793) 
ChEMBL_Kinases

>  <Ligand_Instance>  (793) 
nan

>  <PDB_ID>  (793) 
nan

>  <Standardized_SMILES>  (793) 
CC(=O)N1CCC[C@H]1C(=O)N[C@@H](CC(C)C)C(=O)N[C@@H](Cc1cncn1CCCCCCCCc1c(F)cccc1Oc1cccc(OCc2ccccc2)c1)C(=O)N[C@@H](CO)C(=O)N[C@H](C(N)=O)[C@@H](C)OP(=O)(O)O

>  <Name>  (793) 
nan

>  <Pocket>  (793) 
nan

>  <ATP_Site>  (793) 
nan

>  <Peripheral>  (793) 
nan

>  <Num_H_Atoms_ProtBoundConf>  (793) 
nan

>  <Num_Resolved_Atoms>  (793) 
nan

>  <Num_Not_Resolved_Atoms>  (793) 
nan

$$$$
CHEMBL4080797
     RDKit          3D

  0  0  0  0  0  0  0  0  0  0999 V3000
M  V30 BEGIN CTAB
M  V30 COUNTS 58 61 0 0 0
M  V30 BEGIN ATOM
M  V30 1 C 4.531727 -3.052755 7.967930 0
M  V30 2 O 3.480956 -2.257885 7.479777 0
M  V30 3 C 3.364715 -1.941352 6.139512 0
M  V30 4 C 2.289950 -1.155521 5.799077 0
M  V30 5 C 2.030253 -0.751388 4.510456 0
M  V30 6 C 2.909511 -1.170488 3.528495 0
M  V30 7 C 2.665880 -0.761919 2.151365 0
M  V30 8 C 1.455414 -0.534093 1.537247 0
M  V30 9 C 1.714108 -0.168303 0.234576 0
M  V30 10 C 0.803335 0.162381 -0.781994 0
M  V30 11 N -0.591755 0.204988 -0.688141 0
M  V30 12 C -1.915123 0.350572 -1.134322 0 CFG=2
M  V30 13 C -2.841526 0.628412 0.077940 0
M  V30 14 C -4.180575 0.469375 -0.580275 0
M  V30 15 C -4.017819 -0.697304 -1.533307 0 CFG=2
M  V30 16 C -4.622709 -0.294979 -2.855077 0
M  V30 17 N -4.734128 -1.824416 -0.990150 0
M  V30 18 C -2.531012 -0.938512 -1.645276 0
M  V30 19 C -2.220217 -1.243151 -3.066971 0
M  V30 20 C -2.186260 -2.131871 -0.787096 0
M  V30 21 C 1.423915 0.481554 -1.972656 0
M  V30 22 C 0.589096 0.897231 -3.091490 0
M  V30 23 N 1.165372 1.193997 -4.346739 0
M  V30 24 O -0.369174 1.213891 -3.820882 0
M  V30 25 C 2.779266 0.498706 -2.229258 0
M  V30 26 N 3.533794 0.164303 -1.180351 0
M  V30 27 N 3.020764 -0.150369 -0.015390 0
M  V30 28 C 3.572367 -0.509103 1.146220 0
M  V30 29 C 3.997891 -1.968789 3.888315 0
M  V30 30 N 4.229249 -2.353496 5.174534 0
M  V30 31 H 5.217301 -2.422960 8.584457 0
M  V30 32 H 4.148754 -3.888849 8.597872 0
M  V30 33 H 5.096483 -3.492724 7.127761 0
M  V30 34 H 1.582239 -0.809264 6.547167 0
M  V30 35 H 1.192129 -0.139609 4.248333 0
M  V30 36 H 0.458220 -0.622107 1.983546 0
M  V30 37 H -0.754789 -0.006365 0.316021 0
M  V30 38 H -2.144393 1.137522 -1.860300 0
M  V30 39 H -2.717218 -0.153195 0.834580 0
M  V30 40 H -2.644349 1.657557 0.457827 0
M  V30 41 H -4.950193 0.305365 0.192158 0
M  V30 42 H -4.385353 1.409980 -1.123531 0
M  V30 43 H -4.555143 -1.113454 -3.615779 0
M  V30 44 H -5.721234 -0.146599 -2.643984 0
M  V30 45 H -4.239115 0.655905 -3.245724 0
M  V30 46 H -5.729738 -1.759146 -1.306400 0
M  V30 47 H -4.736089 -1.715098 0.063436 0
M  V30 48 H -1.136291 -1.411048 -3.178869 0
M  V30 49 H -2.544567 -0.445064 -3.767101 0
M  V30 50 H -2.702430 -2.214227 -3.356033 0
M  V30 51 H -3.073114 -2.741572 -0.510549 0
M  V30 52 H -1.517657 -2.796835 -1.375434 0
M  V30 53 H -1.733013 -1.772889 0.139046 0
M  V30 54 H 1.838169 0.849315 -5.088749 0
M  V30 55 H 1.604550 1.362737 -5.243636 0
M  V30 56 H 3.212959 0.754969 -3.176889 0
M  V30 57 H 4.652043 -0.591709 1.275353 0
M  V30 58 H 4.679180 -2.288206 3.096615 0
M  V30 END ATOM
M  V30 BEGIN BOND
M  V30 1 1 1 2
M  V30 2 1 2 3
M  V30 3 2 3 4
M  V30 4 1 4 5
M  V30 5 2 5 6
M  V30 6 1 6 7
M  V30 7 1 7 8
M  V30 8 2 8 9
M  V30 9 1 9 10
M  V30 10 1 10 11
M  V30 11 1 11 12
M  V30 12 1 12 13
M  V30 13 1 13 14
M  V30 14 1 14 15
M  V30 15 1 15 16
M  V30 16 1 15 17 CFG=1
M  V30 17 1 15 18
M  V30 18 1 18 19
M  V30 19 1 18 20
M  V30 20 2 10 21
M  V30 21 1 21 22
M  V30 22 1 22 23
M  V30 23 2 22 24
M  V30 24 1 21 25
M  V30 25 2 25 26
M  V30 26 1 26 27
M  V30 27 1 27 28
M  V30 28 1 6 29
M  V30 29 2 29 30
M  V30 30 1 30 3
M  V30 31 2 28 7
M  V30 32 1 27 9
M  V30 33 1 18 12
M  V30 34 1 1 31
M  V30 35 1 1 32
M  V30 36 1 1 33
M  V30 37 1 4 34
M  V30 38 1 5 35
M  V30 39 1 8 36
M  V30 40 1 11 37
M  V30 41 1 12 38 CFG=3
M  V30 42 1 13 39
M  V30 43 1 13 40
M  V30 44 1 14 41
M  V30 45 1 14 42
M  V30 46 1 16 43
M  V30 47 1 16 44
M  V30 48 1 16 45
M  V30 49 1 17 46
M  V30 50 1 17 47
M  V30 51 1 19 48
M  V30 52 1 19 49
M  V30 53 1 19 50
M  V30 54 1 20 51
M  V30 55 1 20 52
M  V30 56 1 20 53
M  V30 57 1 23 54
M  V30 58 1 23 55
M  V30 59 1 25 56
M  V30 60 1 28 57
M  V30 61 1 29 58
M  V30 END BOND
M  V30 END CTAB
M  END
>  <Dataset>  (794) 
ChEMBL_Kinases

>  <Ligand_Instance>  (794) 
nan

>  <PDB_ID>  (794) 
nan

>  <Standardized_SMILES>  (794) 
COc1ccc(-c2cc3c(N[C@@H]4CC[C@](C)(N)C4(C)C)c(C(N)=O)cnn3c2)cn1

>  <Name>  (794) 
nan

>  <Pocket>  (794) 
nan

>  <ATP_Site>  (794) 
nan

>  <Peripheral>  (794) 
nan

>  <Num_H_Atoms_ProtBoundConf>  (794) 
nan

>  <Num_Resolved_Atoms>  (794) 
nan

>  <Num_Not_Resolved_Atoms>  (794) 
nan

$$$$
CHEMBL4080673
     RDKit          3D

  0  0  0  0  0  0  0  0  0  0999 V3000
M  V30 BEGIN CTAB
M  V30 COUNTS 40 43 0 0 0
M  V30 BEGIN ATOM
M  V30 1 C 0.125331 -5.993764 0.744760 0
M  V30 2 C 1.246606 -5.289824 1.419473 0
M  V30 3 N 2.252073 -5.913943 2.056682 0
M  V30 4 N 3.062099 -4.986174 2.533543 0
M  V30 5 C 2.643192 -3.718858 2.242367 0
M  V30 6 C 1.495819 -3.959610 1.539528 0
M  V30 7 C 0.676375 -2.881102 1.005540 0
M  V30 8 C 0.723852 -1.498079 0.999555 0
M  V30 9 C -0.270352 -0.823881 0.367841 0
M  V30 10 N -0.410136 0.508176 0.247418 0
M  V30 11 C -1.413229 1.086094 -0.387323 0
M  V30 12 C -1.487421 2.554350 -0.470783 0
M  V30 13 C -0.378172 3.287278 0.195957 0
M  V30 14 C 0.980670 2.951558 -0.367294 0
M  V30 15 C 1.876010 2.622888 0.781579 0
M  V30 16 C 1.028040 2.582912 2.025767 0
M  V30 17 C -0.328120 3.133273 1.681903 0
M  V30 18 N -2.411591 0.408852 -0.987074 0
M  V30 19 C -2.373379 -0.932268 -0.929198 0
M  V30 20 O -3.184456 -1.765616 -1.409213 0
M  V30 21 C -1.366488 -1.514995 -0.291993 0
M  V30 22 S -0.897385 -3.313921 0.043902 0
M  V30 23 H 0.129186 -5.831329 -0.340285 0
M  V30 24 H 0.140257 -7.075445 0.958399 0
M  V30 25 H -0.840338 -5.613950 1.142448 0
M  V30 26 H 3.945026 -5.205277 3.084694 0
M  V30 27 H 3.066793 -2.774069 2.480010 0
M  V30 28 H 1.562438 -1.073007 1.506998 0
M  V30 29 H -2.445372 2.910680 -0.040546 0
M  V30 30 H -1.484862 2.834406 -1.544450 0
M  V30 31 H -0.552780 4.365642 -0.006170 0
M  V30 32 H 1.432479 3.817207 -0.922259 0
M  V30 33 H 0.930370 2.143102 -1.128531 0
M  V30 34 H 2.710435 3.345199 0.871608 0
M  V30 35 H 2.314178 1.606266 0.568132 0
M  V30 36 H 1.550814 3.196658 2.799340 0
M  V30 37 H 0.999721 1.558155 2.428835 0
M  V30 38 H -0.440699 4.095545 2.230938 0
M  V30 39 H -1.167704 2.509065 2.080201 0
M  V30 40 H -3.235802 0.799360 -1.506472 0
M  V30 END ATOM
M  V30 BEGIN BOND
M  V30 1 1 1 2
M  V30 2 2 2 3
M  V30 3 1 3 4
M  V30 4 1 4 5
M  V30 5 2 5 6
M  V30 6 1 6 7
M  V30 7 2 7 8
M  V30 8 1 8 9
M  V30 9 1 9 10
M  V30 10 2 10 11
M  V30 11 1 11 12
M  V30 12 1 12 13
M  V30 13 1 13 14
M  V30 14 1 14 15
M  V30 15 1 15 16
M  V30 16 1 16 17
M  V30 17 1 11 18
M  V30 18 1 18 19
M  V30 19 2 19 20
M  V30 20 1 19 21
M  V30 21 1 21 22
M  V30 22 1 6 2
M  V30 23 1 22 7
M  V30 24 2 21 9
M  V30 25 1 17 13
M  V30 26 1 1 23
M  V30 27 1 1 24
M  V30 28 1 1 25
M  V30 29 1 4 26
M  V30 30 1 5 27
M  V30 31 1 8 28
M  V30 32 1 12 29
M  V30 33 1 12 30
M  V30 34 1 13 31
M  V30 35 1 14 32
M  V30 36 1 14 33
M  V30 37 1 15 34
M  V30 38 1 15 35
M  V30 39 1 16 36
M  V30 40 1 16 37
M  V30 41 1 17 38
M  V30 42 1 17 39
M  V30 43 1 18 40
M  V30 END BOND
M  V30 END CTAB
M  END
>  <Dataset>  (795) 
ChEMBL_Kinases

>  <Ligand_Instance>  (795) 
nan

>  <PDB_ID>  (795) 
nan

>  <Standardized_SMILES>  (795) 
Cc1n[nH]cc1-c1cc2nc(CC3CCCC3)[nH]c(=O)c2s1

>  <Name>  (795) 
nan

>  <Pocket>  (795) 
nan

>  <ATP_Site>  (795) 
nan

>  <Peripheral>  (795) 
nan

>  <Num_H_Atoms_ProtBoundConf>  (795) 
nan

>  <Num_Resolved_Atoms>  (795) 
nan

>  <Num_Not_Resolved_Atoms>  (795) 
nan

$$$$
CHEMBL3884281
     RDKit          3D

  0  0  0  0  0  0  0  0  0  0999 V3000
M  V30 BEGIN CTAB
M  V30 COUNTS 52 55 0 0 0
M  V30 BEGIN ATOM
M  V30 1 C 2.127193 0.057855 5.667408 0
M  V30 2 C 2.990203 0.759084 4.918081 0
M  V30 3 C 2.983863 0.217379 3.567348 0
M  V30 4 O 2.206264 -0.743900 3.409433 0
M  V30 5 N 3.825458 0.805376 2.594627 0
M  V30 6 C 4.225373 0.736367 1.237160 0
M  V30 7 C 5.232540 -0.132555 0.926259 0
M  V30 8 C 5.693321 -0.244823 -0.368667 0
M  V30 9 C 5.073071 0.566765 -1.294172 0
M  V30 10 C 4.040008 1.466188 -1.007654 0
M  V30 11 C 3.604388 1.546982 0.318879 0
M  V30 12 O 2.592900 2.460504 0.483081 0
M  V30 13 C 1.348289 2.070323 0.916896 0
M  V30 14 N 0.752704 0.940907 1.255857 0
M  V30 15 C -0.521881 0.834687 1.659267 0
M  V30 16 N -0.955420 -0.483115 1.975202 0
M  V30 17 C -1.550164 -1.487574 1.161488 0
M  V30 18 C -1.918347 -2.733165 1.625415 0
M  V30 19 N -2.427309 -3.341413 0.539048 0
M  V30 20 N -2.379888 -2.541320 -0.513048 0
M  V30 21 C -2.821426 -2.790236 -1.889338 0
M  V30 22 C -4.053636 -1.951966 -2.159779 0
M  V30 23 C -5.241096 -2.456708 -1.375788 0
M  V30 24 O -5.525352 -3.765863 -1.824178 0
M  V30 25 C -4.468031 -4.543305 -1.347328 0
M  V30 26 C -3.160885 -4.236529 -2.040789 0
M  V30 27 C -1.835960 -1.356647 -0.181473 0
M  V30 28 N -1.293487 1.947480 1.739437 0
M  V30 29 C -0.781237 3.166315 1.413429 0
M  V30 30 C 0.555258 3.221361 0.998292 0
M  V30 31 Cl 1.023194 4.888145 0.623345 0
M  V30 32 H 1.493763 -0.776097 5.410419 0
M  V30 33 H 1.471190 -0.788310 5.445517 0
M  V30 34 H 3.171053 1.325178 5.820568 0
M  V30 35 H 4.430713 1.617153 2.899540 0
M  V30 36 H 5.684598 -0.744031 1.681534 0
M  V30 37 H 6.482511 -0.903004 -0.704049 0
M  V30 38 H 5.420355 0.498819 -2.337748 0
M  V30 39 H 3.644360 2.043753 -1.839625 0
M  V30 40 H -0.758147 -0.620663 2.975611 0
M  V30 41 H -1.799333 -3.075410 2.630928 0
M  V30 42 H -2.048022 -2.458027 -2.614547 0
M  V30 43 H -3.842418 -0.927936 -1.749909 0
M  V30 44 H -4.287767 -1.926580 -3.232088 0
M  V30 45 H -6.090252 -1.792479 -1.553632 0
M  V30 46 H -5.030530 -2.442895 -0.292469 0
M  V30 47 H -4.728069 -5.624148 -1.441093 0
M  V30 48 H -4.427157 -4.352816 -0.259411 0
M  V30 49 H -3.281415 -4.532438 -3.093374 0
M  V30 50 H -2.382704 -4.830616 -1.526849 0
M  V30 51 H -1.634347 -0.459400 -0.769206 0
M  V30 52 H -1.463953 3.996807 1.505834 0
M  V30 END ATOM
M  V30 BEGIN BOND
M  V30 1 2 1 2
M  V30 2 1 2 3
M  V30 3 2 3 4
M  V30 4 1 3 5
M  V30 5 1 5 6
M  V30 6 2 6 7
M  V30 7 1 7 8
M  V30 8 2 8 9
M  V30 9 1 9 10
M  V30 10 2 10 11
M  V30 11 1 11 12
M  V30 12 1 12 13
M  V30 13 2 13 14
M  V30 14 1 14 15
M  V30 15 1 15 16
M  V30 16 1 16 17
M  V30 17 1 17 18
M  V30 18 2 18 19
M  V30 19 1 19 20
M  V30 20 1 20 21
M  V30 21 1 21 22
M  V30 22 1 22 23
M  V30 23 1 23 24
M  V30 24 1 24 25
M  V30 25 1 25 26
M  V30 26 1 20 27
M  V30 27 2 15 28
M  V30 28 1 28 29
M  V30 29 2 29 30
M  V30 30 1 30 31
M  V30 31 1 11 6
M  V30 32 1 30 13
M  V30 33 2 27 17
M  V30 34 1 26 21
M  V30 35 1 1 32
M  V30 36 1 1 33
M  V30 37 1 2 34
M  V30 38 1 5 35
M  V30 39 1 7 36
M  V30 40 1 8 37
M  V30 41 1 9 38
M  V30 42 1 10 39
M  V30 43 1 16 40
M  V30 44 1 18 41
M  V30 45 1 21 42
M  V30 46 1 22 43
M  V30 47 1 22 44
M  V30 48 1 23 45
M  V30 49 1 23 46
M  V30 50 1 25 47
M  V30 51 1 25 48
M  V30 52 1 26 49
M  V30 53 1 26 50
M  V30 54 1 27 51
M  V30 55 1 29 52
M  V30 END BOND
M  V30 END CTAB
M  END
>  <Dataset>  (796) 
ChEMBL_Kinases

>  <Ligand_Instance>  (796) 
nan

>  <PDB_ID>  (796) 
nan

>  <Standardized_SMILES>  (796) 
C=CC(=O)Nc1ccccc1Oc1nc(Nc2cnn(C3CCOCC3)c2)ncc1Cl

>  <Name>  (796) 
nan

>  <Pocket>  (796) 
nan

>  <ATP_Site>  (796) 
nan

>  <Peripheral>  (796) 
nan

>  <Num_H_Atoms_ProtBoundConf>  (796) 
nan

>  <Num_Resolved_Atoms>  (796) 
nan

>  <Num_Not_Resolved_Atoms>  (796) 
nan

$$$$
CHEMBL3603853
     RDKit          3D

  0  0  0  0  0  0  0  0  0  0999 V3000
M  V30 BEGIN CTAB
M  V30 COUNTS 60 63 0 0 0
M  V30 BEGIN ATOM
M  V30 1 O 2.606718 -4.623414 2.667209 0
M  V30 2 C 3.317268 -5.259070 3.633449 0
M  V30 3 N 3.083288 -4.104163 4.348444 0
M  V30 4 C 2.436311 -2.837159 4.263672 0
M  V30 5 C 2.920087 -1.929842 3.120418 0
M  V30 6 C 2.074376 -0.710151 3.185555 0
M  V30 7 N 2.210735 0.285702 2.186450 0
M  V30 8 C 1.701044 -0.270733 1.057937 0
M  V30 9 N 2.053614 0.837383 0.280163 0
M  V30 10 C 1.932511 1.164707 -0.982361 0
M  V30 11 N 2.135286 2.289914 -1.914038 0
M  V30 12 C 0.917408 2.881817 -2.423695 0
M  V30 13 C 0.687443 3.709938 -3.470512 0
M  V30 14 C -0.606029 4.090326 -3.785893 0
M  V30 15 C -1.772602 3.695236 -3.103794 0
M  V30 16 C -1.557909 2.790333 -1.940485 0
M  V30 17 N -2.827774 2.504118 -1.375858 0
M  V30 18 C -2.992595 1.074220 -1.784182 0
M  V30 19 O -1.910795 1.050334 -2.355298 0
M  V30 20 N -4.256144 0.608755 -1.279354 0
M  V30 21 C -5.381859 1.264382 -0.590305 0
M  V30 22 C -5.500781 0.445099 0.683372 0
M  V30 23 C -4.915073 -0.906460 0.298612 0
M  V30 24 C -4.887767 -0.727672 -1.235720 0
M  V30 25 C -0.276315 2.580399 -1.853043 0
M  V30 26 N 1.327381 0.267381 -1.839624 0
M  V30 27 C 0.878861 -0.917304 -1.321986 0
M  V30 28 C 1.211144 -0.804082 -0.029302 0
M  V30 29 I 0.245867 -2.393018 1.139410 0
M  V30 30 C 3.568672 -6.469472 2.898519 0
M  V30 31 C 3.569641 -6.662283 1.442573 0
M  V30 32 C 2.436151 -7.248410 2.296563 0
M  V30 33 H 3.653625 -4.543643 5.177780 0
M  V30 34 H 2.479644 -2.302669 5.237340 0
M  V30 35 H 1.328758 -3.032700 4.132971 0
M  V30 36 H 3.153912 -2.406220 2.204498 0
M  V30 37 H 3.967827 -1.600397 3.516638 0
M  V30 38 H 0.978033 -1.017766 3.329474 0
M  V30 39 H 2.282222 -0.250804 4.198080 0
M  V30 40 H 2.649608 1.137295 2.583882 0
M  V30 41 H 3.015623 2.685146 -2.229311 0
M  V30 42 H 1.642795 3.952402 -3.917817 0
M  V30 43 H -0.640976 4.772702 -4.661425 0
M  V30 44 H -2.643479 4.124538 -3.553461 0
M  V30 45 H -3.425880 3.193627 -0.823405 0
M  V30 46 H -5.202617 2.318491 -0.378148 0
M  V30 47 H -6.310268 1.148706 -1.144293 0
M  V30 48 H -6.558320 0.317296 0.971895 0
M  V30 49 H -4.971114 0.956016 1.485790 0
M  V30 50 H -5.595937 -1.713631 0.592527 0
M  V30 51 H -3.856993 -1.026761 0.613089 0
M  V30 52 H -4.238999 -1.488791 -1.671923 0
M  V30 53 H -5.922943 -0.726720 -1.579768 0
M  V30 54 H -0.284751 1.898401 -0.939915 0
M  V30 55 H 0.408235 -1.762542 -1.714082 0
M  V30 56 H 4.267295 -7.188428 3.454834 0
M  V30 57 H 3.196889 -5.900861 0.713782 0
M  V30 58 H 4.276277 -7.355507 0.970324 0
M  V30 59 H 2.445361 -8.364882 2.318770 0
M  V30 60 H 1.434683 -6.844076 2.159848 0
M  V30 END ATOM
M  V30 BEGIN BOND
M  V30 1 2 1 2
M  V30 2 1 2 3
M  V30 3 1 3 4
M  V30 4 1 4 5
M  V30 5 1 5 6
M  V30 6 1 6 7
M  V30 7 1 7 8
M  V30 8 2 8 9
M  V30 9 1 9 10
M  V30 10 1 10 11
M  V30 11 1 11 12
M  V30 12 2 12 13
M  V30 13 1 13 14
M  V30 14 2 14 15
M  V30 15 1 15 16
M  V30 16 1 16 17
M  V30 17 1 17 18
M  V30 18 2 18 19
M  V30 19 1 18 20
M  V30 20 1 20 21
M  V30 21 1 21 22
M  V30 22 1 22 23
M  V30 23 1 23 24
M  V30 24 2 16 25
M  V30 25 2 10 26
M  V30 26 1 26 27
M  V30 27 2 27 28
M  V30 28 1 28 29
M  V30 29 1 2 30
M  V30 30 1 30 31
M  V30 31 1 31 32
M  V30 32 1 28 8
M  V30 33 1 32 30
M  V30 34 1 25 12
M  V30 35 1 24 20
M  V30 36 1 3 33
M  V30 37 1 4 34
M  V30 38 1 4 35
M  V30 39 1 5 36
M  V30 40 1 5 37
M  V30 41 1 6 38
M  V30 42 1 6 39
M  V30 43 1 7 40
M  V30 44 1 11 41
M  V30 45 1 13 42
M  V30 46 1 14 43
M  V30 47 1 15 44
M  V30 48 1 17 45
M  V30 49 1 21 46
M  V30 50 1 21 47
M  V30 51 1 22 48
M  V30 52 1 22 49
M  V30 53 1 23 50
M  V30 54 1 23 51
M  V30 55 1 24 52
M  V30 56 1 24 53
M  V30 57 1 25 54
M  V30 58 1 27 55
M  V30 59 1 30 56
M  V30 60 1 31 57
M  V30 61 1 31 58
M  V30 62 1 32 59
M  V30 63 1 32 60
M  V30 END BOND
M  V30 END CTAB
M  END
>  <Dataset>  (797) 
ChEMBL_Kinases

>  <Ligand_Instance>  (797) 
nan

>  <PDB_ID>  (797) 
nan

>  <Standardized_SMILES>  (797) 
O=C(NCCCNc1nc(Nc2cccc(NC(=O)N3CCCC3)c2)ncc1I)C1CC1

>  <Name>  (797) 
nan

>  <Pocket>  (797) 
nan

>  <ATP_Site>  (797) 
nan

>  <Peripheral>  (797) 
nan

>  <Num_H_Atoms_ProtBoundConf>  (797) 
nan

>  <Num_Resolved_Atoms>  (797) 
nan

>  <Num_Not_Resolved_Atoms>  (797) 
nan

$$$$
CHEMBL3884318
     RDKit          3D

  0  0  0  0  0  0  0  0  0  0999 V3000
M  V30 BEGIN CTAB
M  V30 COUNTS 49 52 0 0 0
M  V30 BEGIN ATOM
M  V30 1 C 0.689479 -2.318933 2.044680 0
M  V30 2 C 1.481361 -1.077102 1.926905 0 CFG=1
M  V30 3 C 2.480548 -1.086120 0.800865 0
M  V30 4 C 2.511506 -0.453828 -0.409789 0
M  V30 5 C 3.495149 -0.617509 -1.326593 0
M  V30 6 C 4.557796 -1.448471 -1.102384 0
M  V30 7 C 4.613274 -2.120615 0.077460 0
M  V30 8 O 5.660077 -2.980471 0.374407 0
M  V30 9 C 3.585169 -1.930726 0.999920 0
M  V30 10 N 0.756621 0.151466 1.863683 0
M  V30 11 C 0.727823 1.389393 2.579806 0
M  V30 12 O 1.525953 1.503332 3.531877 0
M  V30 13 C -0.296727 2.288343 1.990856 0
M  V30 14 C 0.446587 3.459833 1.391328 0
M  V30 15 C -1.241267 2.689923 3.074752 0
M  V30 16 C -0.911200 1.432787 0.940945 0
M  V30 17 C -1.972985 1.840486 0.158928 0
M  V30 18 N -2.432266 0.963406 -0.775629 0
M  V30 19 C -1.837954 -0.243073 -0.892161 0
M  V30 20 N -2.112512 -1.345595 -1.746732 0
M  V30 21 C -2.845365 -2.357918 -1.069830 0
M  V30 22 C -3.203054 -2.293682 0.261356 0
M  V30 23 C -3.914001 -3.275108 0.946525 0
M  V30 24 C -4.291819 -4.393505 0.255419 0
M  V30 25 N -3.959220 -4.486933 -1.043509 0
M  V30 26 C -3.274535 -3.535920 -1.692954 0
M  V30 27 N -0.818290 -0.585314 -0.112826 0
M  V30 28 C -0.277059 0.211288 0.854843 0
M  V30 29 H 0.157002 -2.350509 3.000352 0
M  V30 30 H 1.430855 -3.172286 2.049395 0
M  V30 31 H -0.002349 -2.505302 1.198037 0
M  V30 32 H 2.159172 -1.020141 2.857210 0
M  V30 33 H 1.696844 0.209245 -0.591257 0
M  V30 34 H 3.386990 -0.047177 -2.254539 0
M  V30 35 H 5.325498 -1.562391 -1.846475 0
M  V30 36 H 5.405431 -3.857042 0.852182 0
M  V30 37 H 3.684859 -2.490839 1.920464 0
M  V30 38 H -0.156288 4.371736 1.288973 0
M  V30 39 H 1.350774 3.635663 2.005922 0
M  V30 40 H 0.785814 3.159879 0.384224 0
M  V30 41 H -0.693547 2.858851 4.024326 0
M  V30 42 H -1.920782 1.833827 3.254112 0
M  V30 43 H -1.847633 3.585564 2.814511 0
M  V30 44 H -2.472912 2.786848 0.215574 0
M  V30 45 H -1.883656 -1.543934 -2.746606 0
M  V30 46 H -2.919424 -1.421254 0.839918 0
M  V30 47 H -4.146022 -3.135067 1.984622 0
M  V30 48 H -4.840580 -5.129767 0.823742 0
M  V30 49 H -3.050234 -3.692790 -2.731234 0
M  V30 END ATOM
M  V30 BEGIN BOND
M  V30 1 1 1 2
M  V30 2 1 2 3
M  V30 3 2 3 4
M  V30 4 1 4 5
M  V30 5 2 5 6
M  V30 6 1 6 7
M  V30 7 1 7 8
M  V30 8 2 7 9
M  V30 9 1 2 10
M  V30 10 1 10 11
M  V30 11 2 11 12
M  V30 12 1 11 13
M  V30 13 1 13 14
M  V30 14 1 13 15
M  V30 15 1 13 16
M  V30 16 2 16 17
M  V30 17 1 17 18
M  V30 18 2 18 19
M  V30 19 1 19 20
M  V30 20 1 20 21
M  V30 21 2 21 22
M  V30 22 1 22 23
M  V30 23 2 23 24
M  V30 24 1 24 25
M  V30 25 2 25 26
M  V30 26 1 19 27
M  V30 27 2 27 28
M  V30 28 1 9 3
M  V30 29 1 28 10
M  V30 30 1 28 16
M  V30 31 1 26 21
M  V30 32 1 1 29
M  V30 33 1 1 30
M  V30 34 1 1 31
M  V30 35 1 2 32 CFG=1
M  V30 36 1 4 33
M  V30 37 1 5 34
M  V30 38 1 6 35
M  V30 39 1 8 36
M  V30 40 1 9 37
M  V30 41 1 14 38
M  V30 42 1 14 39
M  V30 43 1 14 40
M  V30 44 1 15 41
M  V30 45 1 15 42
M  V30 46 1 15 43
M  V30 47 1 17 44
M  V30 48 1 20 45
M  V30 49 1 22 46
M  V30 50 1 23 47
M  V30 51 1 24 48
M  V30 52 1 26 49
M  V30 END BOND
M  V30 END CTAB
M  END
>  <Dataset>  (798) 
ChEMBL_Kinases

>  <Ligand_Instance>  (798) 
nan

>  <PDB_ID>  (798) 
nan

>  <Standardized_SMILES>  (798) 
C[C@@H](c1cccc(O)c1)N1C(=O)C(C)(C)c2cnc(Nc3cccnc3)nc21

>  <Name>  (798) 
nan

>  <Pocket>  (798) 
nan

>  <ATP_Site>  (798) 
nan

>  <Peripheral>  (798) 
nan

>  <Num_H_Atoms_ProtBoundConf>  (798) 
nan

>  <Num_Resolved_Atoms>  (798) 
nan

>  <Num_Not_Resolved_Atoms>  (798) 
nan

$$$$
CHEMBL3660042
     RDKit          3D

  0  0  0  0  0  0  0  0  0  0999 V3000
M  V30 BEGIN CTAB
M  V30 COUNTS 49 53 0 0 0
M  V30 BEGIN ATOM
M  V30 1 N -1.703225 -4.738514 1.067007 0
M  V30 2 C -0.735728 -4.698280 0.029532 0
M  V30 3 O -1.038361 -5.299689 -1.047083 0
M  V30 4 N 0.480004 -3.998098 0.271771 0
M  V30 5 C 0.731387 -3.333181 1.558678 0
M  V30 6 C 2.137573 -2.841911 1.611822 0
M  V30 7 C 2.398573 -1.866181 0.480829 0
M  V30 8 O 1.675695 -0.681240 0.618634 0
M  V30 9 C 2.296036 0.530394 0.786829 0
M  V30 10 C 3.607360 0.900485 0.863490 0
M  V30 11 C 4.052998 2.188959 1.037471 0
M  V30 12 C 3.133357 3.205724 1.146163 0
M  V30 13 C 1.791379 2.882099 1.074657 0
M  V30 14 C 0.951898 3.970852 1.193848 0
M  V30 15 C -0.407846 3.743914 1.133733 0
M  V30 16 C -0.810606 2.434635 0.957993 0
M  V30 17 C -2.254447 2.176023 0.890812 0
M  V30 18 N -3.247797 3.073506 0.982690 0
M  V30 19 N -4.434400 2.481427 0.877956 0
M  V30 20 C -4.220444 1.152834 0.711906 0
M  V30 21 C -5.126628 0.125403 0.557642 0
M  V30 22 C -4.651879 -1.161469 0.402997 0
M  V30 23 C -3.283897 -1.338479 0.412920 0
M  V30 24 C -2.451961 -0.250023 0.573285 0
M  V30 25 N -2.887388 1.004977 0.724769 0
M  V30 26 N 0.028343 1.393518 0.844895 0
M  V30 27 C 1.351838 1.564472 0.897041 0
M  V30 28 C 2.141872 -2.541457 -0.845879 0
M  V30 29 C 1.516246 -3.904234 -0.715971 0
M  V30 30 H -2.276561 -5.621188 1.217204 0
M  V30 31 H -2.373483 -4.649391 1.849007 0
M  V30 32 H -0.051755 -2.587350 1.680857 0
M  V30 33 H 0.591156 -4.076313 2.396143 0
M  V30 34 H 2.314519 -2.348840 2.566035 0
M  V30 35 H 2.806085 -3.706013 1.459729 0
M  V30 36 H 3.483174 -1.662589 0.515361 0
M  V30 37 H 4.308899 0.113152 0.779307 0
M  V30 38 H 5.121596 2.349673 1.082082 0
M  V30 39 H 3.500258 4.213453 1.282750 0
M  V30 40 H 1.284190 4.968895 1.328479 0
M  V30 41 H -1.138540 4.537921 1.217897 0
M  V30 42 H -6.185156 0.336080 0.559321 0
M  V30 43 H -5.355087 -1.974441 0.281245 0
M  V30 44 H -2.961694 -2.362682 0.288784 0
M  V30 45 H -1.402250 -0.468458 0.570204 0
M  V30 46 H 3.032370 -2.602812 -1.467852 0
M  V30 47 H 1.416966 -1.901246 -1.400229 0
M  V30 48 H 1.094342 -4.251081 -1.666563 0
M  V30 49 H 2.343919 -4.590685 -0.394602 0
M  V30 END ATOM
M  V30 BEGIN BOND
M  V30 1 1 1 2
M  V30 2 2 2 3
M  V30 3 1 2 4
M  V30 4 1 4 5
M  V30 5 1 5 6
M  V30 6 1 6 7
M  V30 7 1 7 8
M  V30 8 1 8 9
M  V30 9 2 9 10
M  V30 10 1 10 11
M  V30 11 2 11 12
M  V30 12 1 12 13
M  V30 13 2 13 14
M  V30 14 1 14 15
M  V30 15 2 15 16
M  V30 16 1 16 17
M  V30 17 2 17 18
M  V30 18 1 18 19
M  V30 19 2 19 20
M  V30 20 1 20 21
M  V30 21 2 21 22
M  V30 22 1 22 23
M  V30 23 2 23 24
M  V30 24 1 24 25
M  V30 25 1 16 26
M  V30 26 2 26 27
M  V30 27 1 7 28
M  V30 28 1 28 29
M  V30 29 1 29 4
M  V30 30 1 27 9
M  V30 31 1 27 13
M  V30 32 1 25 17
M  V30 33 1 25 20
M  V30 34 1 1 30
M  V30 35 1 1 31
M  V30 36 1 5 32
M  V30 37 1 5 33
M  V30 38 1 6 34
M  V30 39 1 6 35
M  V30 40 1 7 36
M  V30 41 1 10 37
M  V30 42 1 11 38
M  V30 43 1 12 39
M  V30 44 1 14 40
M  V30 45 1 15 41
M  V30 46 1 21 42
M  V30 47 1 22 43
M  V30 48 1 23 44
M  V30 49 1 24 45
M  V30 50 1 28 46
M  V30 51 1 28 47
M  V30 52 1 29 48
M  V30 53 1 29 49
M  V30 END BOND
M  V30 END CTAB
M  END
>  <Dataset>  (799) 
ChEMBL_Kinases

>  <Ligand_Instance>  (799) 
nan

>  <PDB_ID>  (799) 
nan

>  <Standardized_SMILES>  (799) 
NC(=O)N1CCC(Oc2cccc3ccc(-c4nnc5ccccn45)nc23)CC1

>  <Name>  (799) 
nan

>  <Pocket>  (799) 
nan

>  <ATP_Site>  (799) 
nan

>  <Peripheral>  (799) 
nan

>  <Num_H_Atoms_ProtBoundConf>  (799) 
nan

>  <Num_Resolved_Atoms>  (799) 
nan

>  <Num_Not_Resolved_Atoms>  (799) 
nan

$$$$
CHEMBL3884344
     RDKit          3D

  0  0  0  0  0  0  0  0  0  0999 V3000
M  V30 BEGIN CTAB
M  V30 COUNTS 58 62 0 0 0
M  V30 BEGIN ATOM
M  V30 1 C 4.263394 0.491510 1.462459 0
M  V30 2 C 3.349048 0.243798 0.298423 0
M  V30 3 C 3.802559 0.913699 -0.962600 0
M  V30 4 C 1.993907 0.637536 0.719667 0
M  V30 5 O 1.688608 1.827965 0.963558 0
M  V30 6 N 1.070708 -0.464608 0.821469 0
M  V30 7 C -0.300729 -0.510368 1.186575 0 CFG=1
M  V30 8 C -0.602135 -0.040671 2.578114 0
M  V30 9 C -1.336169 1.281342 2.469729 0
M  V30 10 C -1.793411 1.278587 1.073922 0
M  V30 11 C -2.694375 2.125264 0.435500 0
M  V30 12 N -3.310396 3.171292 1.171623 0
M  V30 13 S -4.417615 4.307640 0.457408 0
M  V30 14 C -3.665446 5.263656 -0.823528 0
M  V30 15 O -4.985384 5.224573 1.476699 0
M  V30 16 O -5.585430 3.573546 -0.161135 0
M  V30 17 C -2.960024 1.913950 -0.899248 0
M  V30 18 C -2.366979 0.890956 -1.636627 0
M  V30 19 C -1.472907 0.047334 -1.010987 0
M  V30 20 C -1.218597 0.273384 0.325679 0
M  V30 21 C 1.900798 -1.585818 0.446326 0
M  V30 22 N 1.559429 -2.878226 0.365518 0
M  V30 23 C 2.361865 -3.885436 0.013629 0
M  V30 24 N 2.001866 -5.252297 -0.073711 0
M  V30 25 C 0.742230 -5.828096 0.185752 0
M  V30 26 C -0.400245 -5.180637 0.579431 0
M  V30 27 C -1.626807 -5.751572 0.830230 0
M  V30 28 C -1.731240 -7.116918 0.672913 0
M  V30 29 C -0.623990 -7.834985 0.279203 0
M  V30 30 C 0.560276 -7.187656 0.050056 0
M  V30 31 N 3.616934 -3.508623 -0.275111 0
M  V30 32 C 4.049409 -2.241465 -0.222299 0
M  V30 33 C 3.195807 -1.226509 0.144398 0
M  V30 34 H 4.531922 1.566736 1.574390 0
M  V30 35 H 5.164644 -0.151713 1.477621 0
M  V30 36 H 3.704788 0.229901 2.387938 0
M  V30 37 H 4.335652 0.161608 -1.583354 0
M  V30 38 H 4.503951 1.726698 -0.674829 0
M  V30 39 H 2.977496 1.411387 -1.497944 0
M  V30 40 H -0.659515 -1.581861 1.140471 0
M  V30 41 H -1.337043 -0.714848 3.101722 0
M  V30 42 H 0.267206 -0.018034 3.242292 0
M  V30 43 H -2.163384 1.383657 3.203561 0
M  V30 44 H -0.627974 2.141386 2.642619 0
M  V30 45 H -3.105410 3.283635 2.187590 0
M  V30 46 H -3.879045 4.885601 -1.850016 0
M  V30 47 H -4.125996 6.279683 -0.798579 0
M  V30 48 H -2.560232 5.351250 -0.712461 0
M  V30 49 H -3.650358 2.538744 -1.441351 0
M  V30 50 H -2.595131 0.752405 -2.676737 0
M  V30 51 H -1.020944 -0.734143 -1.577268 0
M  V30 52 H 2.765388 -5.919885 -0.367610 0
M  V30 53 H -0.370021 -4.111476 0.716557 0
M  V30 54 H -2.481212 -5.160215 1.139351 0
M  V30 55 H -2.685824 -7.589236 0.863793 0
M  V30 56 H -0.742644 -8.902207 0.165759 0
M  V30 57 H 1.367680 -7.841875 -0.255291 0
M  V30 58 H 5.065658 -1.997196 -0.463994 0
M  V30 END ATOM
M  V30 BEGIN BOND
M  V30 1 1 1 2
M  V30 2 1 2 3
M  V30 3 1 2 4
M  V30 4 2 4 5
M  V30 5 1 4 6
M  V30 6 1 6 7
M  V30 7 1 7 8
M  V30 8 1 8 9
M  V30 9 1 9 10
M  V30 10 2 10 11
M  V30 11 1 11 12
M  V30 12 1 12 13
M  V30 13 1 13 14
M  V30 14 2 13 15
M  V30 15 2 13 16
M  V30 16 1 11 17
M  V30 17 2 17 18
M  V30 18 1 18 19
M  V30 19 2 19 20
M  V30 20 1 6 21
M  V30 21 2 21 22
M  V30 22 1 22 23
M  V30 23 1 23 24
M  V30 24 1 24 25
M  V30 25 2 25 26
M  V30 26 1 26 27
M  V30 27 2 27 28
M  V30 28 1 28 29
M  V30 29 2 29 30
M  V30 30 2 23 31
M  V30 31 1 31 32
M  V30 32 2 32 33
M  V30 33 1 33 2
M  V30 34 1 20 7
M  V30 35 1 33 21
M  V30 36 1 20 10
M  V30 37 1 30 25
M  V30 38 1 1 34
M  V30 39 1 1 35
M  V30 40 1 1 36
M  V30 41 1 3 37
M  V30 42 1 3 38
M  V30 43 1 3 39
M  V30 44 1 7 40 CFG=1
M  V30 45 1 8 41
M  V30 46 1 8 42
M  V30 47 1 9 43
M  V30 48 1 9 44
M  V30 49 1 12 45
M  V30 50 1 14 46
M  V30 51 1 14 47
M  V30 52 1 14 48
M  V30 53 1 17 49
M  V30 54 1 18 50
M  V30 55 1 19 51
M  V30 56 1 24 52
M  V30 57 1 26 53
M  V30 58 1 27 54
M  V30 59 1 28 55
M  V30 60 1 29 56
M  V30 61 1 30 57
M  V30 62 1 32 58
M  V30 END BOND
M  V30 END CTAB
M  END
>  <Dataset>  (800) 
ChEMBL_Kinases

>  <Ligand_Instance>  (800) 
nan

>  <PDB_ID>  (800) 
nan

>  <Standardized_SMILES>  (800) 
CC1(C)C(=O)N([C@H]2CCc3c(NS(C)(=O)=O)cccc32)c2nc(Nc3ccccc3)ncc21

>  <Name>  (800) 
nan

>  <Pocket>  (800) 
nan

>  <ATP_Site>  (800) 
nan

>  <Peripheral>  (800) 
nan

>  <Num_H_Atoms_ProtBoundConf>  (800) 
nan

>  <Num_Resolved_Atoms>  (800) 
nan

>  <Num_Not_Resolved_Atoms>  (800) 
nan

$$$$
CHEMBL3660040
     RDKit          3D

  0  0  0  0  0  0  0  0  0  0999 V3000
M  V30 BEGIN CTAB
M  V30 COUNTS 56 59 0 0 0
M  V30 BEGIN ATOM
M  V30 1 C -1.677830 -3.245093 4.206387 0
M  V30 2 C -0.671292 -3.079047 3.090270 0
M  V30 3 C -1.253002 -3.360793 1.729754 0
M  V30 4 C -0.207814 -3.181631 0.643548 0
M  V30 5 O 0.300292 -1.896862 0.614007 0
M  V30 6 C 1.603478 -1.495149 0.837485 0
M  V30 7 C 2.637924 -2.355191 1.132929 0
M  V30 8 C 3.941505 -1.990977 1.360127 0
M  V30 9 C 4.267734 -0.652345 1.291978 0
M  V30 10 C 3.259760 0.242058 0.998522 0
M  V30 11 C 3.652222 1.563728 0.946308 0
M  V30 12 C 2.682260 2.496310 0.657672 0
M  V30 13 C 1.363683 2.111600 0.429688 0
M  V30 14 C 0.390135 3.155824 0.131614 0
M  V30 15 N 0.618199 4.478449 0.043204 0
M  V30 16 N -0.496370 5.127437 -0.241793 0
M  V30 17 C -1.486385 4.223637 -0.345687 0
M  V30 18 C -2.816783 4.450973 -0.630323 0
M  V30 19 C -3.644390 3.348036 -0.681674 0
M  V30 20 C -3.067510 2.117660 -0.443891 0
M  V30 21 C -1.737290 1.949093 -0.165243 0
M  V30 22 N -0.924669 3.017027 -0.113363 0
M  V30 23 N 1.043965 0.806260 0.494870 0
M  V30 24 C 1.937638 -0.159617 0.771356 0
M  V30 25 C -0.814784 -3.528502 -0.689070 0 CFG=2
M  V30 26 C 0.099557 -3.395629 -1.851090 0
M  V30 27 C 0.671476 -2.057136 -2.122262 0
M  V30 28 C -2.170866 -2.901842 -0.915410 0
M  V30 29 N -2.187406 -1.476952 -0.880651 0
M  V30 30 H -1.259851 -3.836787 5.049957 0
M  V30 31 H -2.030815 -2.278346 4.625876 0
M  V30 32 H -2.588617 -3.782954 3.869663 0
M  V30 33 H -0.227618 -2.086093 3.194639 0
M  V30 34 H 0.127079 -3.835571 3.262195 0
M  V30 35 H -1.666173 -4.374802 1.730159 0
M  V30 36 H -2.101258 -2.655914 1.603284 0
M  V30 37 H 0.553055 -3.990065 0.844373 0
M  V30 38 H 2.457951 -3.418333 1.203120 0
M  V30 39 H 4.722646 -2.701911 1.589372 0
M  V30 40 H 5.282996 -0.344312 1.466449 0
M  V30 41 H 4.662026 1.890533 1.117721 0
M  V30 42 H 2.932216 3.534629 0.604848 0
M  V30 43 H -3.182060 5.455501 -0.803657 0
M  V30 44 H -4.701182 3.451255 -0.899951 0
M  V30 45 H -3.701399 1.245191 -0.480390 0
M  V30 46 H -1.278494 1.003154 0.021165 0
M  V30 47 H -1.038182 -4.638536 -0.611139 0
M  V30 48 H -0.421181 -3.824569 -2.732727 0
M  V30 49 H 0.967695 -4.091958 -1.647927 0
M  V30 50 H 1.772402 -2.022520 -1.995123 0
M  V30 51 H 0.142613 -1.214148 -1.636531 0
M  V30 52 H 0.528815 -1.853455 -3.227624 0
M  V30 53 H -2.864827 -3.323342 -0.167821 0
M  V30 54 H -2.499684 -3.242472 -1.916901 0
M  V30 55 H -3.024046 -1.105768 -0.379737 0
M  V30 56 H -2.254037 -1.075594 -1.859707 0
M  V30 END ATOM
M  V30 BEGIN BOND
M  V30 1 1 1 2
M  V30 2 1 2 3
M  V30 3 1 3 4
M  V30 4 1 4 5
M  V30 5 1 5 6
M  V30 6 2 6 7
M  V30 7 1 7 8
M  V30 8 2 8 9
M  V30 9 1 9 10
M  V30 10 2 10 11
M  V30 11 1 11 12
M  V30 12 2 12 13
M  V30 13 1 13 14
M  V30 14 2 14 15
M  V30 15 1 15 16
M  V30 16 2 16 17
M  V30 17 1 17 18
M  V30 18 2 18 19
M  V30 19 1 19 20
M  V30 20 2 20 21
M  V30 21 1 21 22
M  V30 22 1 13 23
M  V30 23 2 23 24
M  V30 24 1 4 25
M  V30 25 1 25 26
M  V30 26 1 26 27
M  V30 27 1 25 28
M  V30 28 1 28 29
M  V30 29 1 24 6
M  V30 30 1 24 10
M  V30 31 1 22 14
M  V30 32 1 22 17
M  V30 33 1 1 30
M  V30 34 1 1 31
M  V30 35 1 1 32
M  V30 36 1 2 33
M  V30 37 1 2 34
M  V30 38 1 3 35
M  V30 39 1 3 36
M  V30 40 1 4 37
M  V30 41 1 7 38
M  V30 42 1 8 39
M  V30 43 1 9 40
M  V30 44 1 11 41
M  V30 45 1 12 42
M  V30 46 1 18 43
M  V30 47 1 19 44
M  V30 48 1 20 45
M  V30 49 1 21 46
M  V30 50 1 25 47 CFG=1
M  V30 51 1 26 48
M  V30 52 1 26 49
M  V30 53 1 27 50
M  V30 54 1 27 51
M  V30 55 1 27 52
M  V30 56 1 28 53
M  V30 57 1 28 54
M  V30 58 1 29 55
M  V30 59 1 29 56
M  V30 END BOND
M  V30 END CTAB
M  END
>  <Dataset>  (801) 
ChEMBL_Kinases

>  <Ligand_Instance>  (801) 
nan

>  <PDB_ID>  (801) 
nan

>  <Standardized_SMILES>  (801) 
CCCC(Oc1cccc2ccc(-c3nnc4ccccn34)nc12)[C@H](CC)CN

>  <Name>  (801) 
nan

>  <Pocket>  (801) 
nan

>  <ATP_Site>  (801) 
nan

>  <Peripheral>  (801) 
nan

>  <Num_H_Atoms_ProtBoundConf>  (801) 
nan

>  <Num_Resolved_Atoms>  (801) 
nan

>  <Num_Not_Resolved_Atoms>  (801) 
nan

$$$$
CHEMBL3660039
     RDKit          3D

  0  0  0  0  0  0  0  0  0  0999 V3000
M  V30 BEGIN CTAB
M  V30 COUNTS 56 59 0 0 0
M  V30 BEGIN ATOM
M  V30 1 C -0.910512 -3.756861 3.406710 0
M  V30 2 C -1.648219 -2.526911 2.924507 0
M  V30 3 C -1.912586 -2.642053 1.433864 0
M  V30 4 C -0.679931 -2.758477 0.628992 0
M  V30 5 O 0.203685 -1.672440 0.742798 0
M  V30 6 C 1.502818 -1.658050 1.131009 0
M  V30 7 C 2.269005 -2.740055 1.508063 0
M  V30 8 C 3.588181 -2.702448 1.898984 0
M  V30 9 C 4.210185 -1.481260 1.919715 0
M  V30 10 C 3.480524 -0.359040 1.548250 0
M  V30 11 C 4.157489 0.848143 1.587595 0
M  V30 12 C 3.401996 1.940942 1.212877 0
M  V30 13 C 2.078894 1.900237 0.821618 0
M  V30 14 C 1.405992 3.142311 0.453899 0
M  V30 15 N 1.969134 4.381776 0.451115 0
M  V30 16 N 1.079480 5.272507 0.069029 0
M  V30 17 C -0.074905 4.631114 -0.182895 0
M  V30 18 C -1.265518 5.184751 -0.606965 0
M  V30 19 C -2.325477 4.321294 -0.800366 0
M  V30 20 C -2.102627 2.962146 -0.550489 0
M  V30 21 C -0.886002 2.494775 -0.130568 0
M  V30 22 N 0.143956 3.326288 0.058352 0
M  V30 23 N 1.490489 0.690228 0.808992 0
M  V30 24 C 2.142605 -0.435871 1.157127 0
M  V30 25 C -0.974696 -2.857979 -0.839909 0 CFG=1
M  V30 26 C -1.843512 -4.029587 -1.222974 0
M  V30 27 C -2.035620 -3.974271 -2.722764 0
M  V30 28 C -1.401346 -1.579876 -1.484575 0
M  V30 29 N -2.589955 -0.976613 -0.978508 0
M  V30 30 H -1.161207 -3.925389 4.494098 0
M  V30 31 H 0.173616 -3.673854 3.267373 0
M  V30 32 H -1.311969 -4.625083 2.812545 0
M  V30 33 H -1.010534 -1.662231 3.169149 0
M  V30 34 H -2.614604 -2.488260 3.459298 0
M  V30 35 H -2.451692 -3.633814 1.339583 0
M  V30 36 H -2.657431 -1.907205 1.094364 0
M  V30 37 H -0.170316 -3.716025 0.964822 0
M  V30 38 H 1.793351 -3.713076 1.497315 0
M  V30 39 H 4.135326 -3.588797 2.183831 0
M  V30 40 H 5.249930 -1.426664 2.224497 0
M  V30 41 H 5.178963 0.986907 1.875229 0
M  V30 42 H 3.885104 2.913568 1.226023 0
M  V30 43 H -1.386968 6.245053 -0.786278 0
M  V30 44 H -3.303885 4.685243 -1.136626 0
M  V30 45 H -2.981320 2.346273 -0.724031 0
M  V30 46 H -0.757704 1.442451 0.050113 0
M  V30 47 H 0.042992 -3.132001 -1.300817 0
M  V30 48 H -2.834312 -4.030725 -0.759078 0
M  V30 49 H -1.259289 -4.956939 -1.018956 0
M  V30 50 H -1.109441 -3.671003 -3.261529 0
M  V30 51 H -2.300799 -4.962388 -3.156346 0
M  V30 52 H -2.817500 -3.235114 -3.016883 0
M  V30 53 H -0.599399 -0.791430 -1.420451 0
M  V30 54 H -1.470813 -1.762203 -2.601811 0
M  V30 55 H -2.693627 0.025437 -1.245479 0
M  V30 56 H -3.416493 -1.493315 -1.350595 0
M  V30 END ATOM
M  V30 BEGIN BOND
M  V30 1 1 1 2
M  V30 2 1 2 3
M  V30 3 1 3 4
M  V30 4 1 4 5
M  V30 5 1 5 6
M  V30 6 2 6 7
M  V30 7 1 7 8
M  V30 8 2 8 9
M  V30 9 1 9 10
M  V30 10 2 10 11
M  V30 11 1 11 12
M  V30 12 2 12 13
M  V30 13 1 13 14
M  V30 14 2 14 15
M  V30 15 1 15 16
M  V30 16 2 16 17
M  V30 17 1 17 18
M  V30 18 2 18 19
M  V30 19 1 19 20
M  V30 20 2 20 21
M  V30 21 1 21 22
M  V30 22 1 13 23
M  V30 23 2 23 24
M  V30 24 1 4 25
M  V30 25 1 25 26
M  V30 26 1 26 27
M  V30 27 1 25 28
M  V30 28 1 28 29
M  V30 29 1 24 6
M  V30 30 1 24 10
M  V30 31 1 22 14
M  V30 32 1 22 17
M  V30 33 1 1 30
M  V30 34 1 1 31
M  V30 35 1 1 32
M  V30 36 1 2 33
M  V30 37 1 2 34
M  V30 38 1 3 35
M  V30 39 1 3 36
M  V30 40 1 4 37
M  V30 41 1 7 38
M  V30 42 1 8 39
M  V30 43 1 9 40
M  V30 44 1 11 41
M  V30 45 1 12 42
M  V30 46 1 18 43
M  V30 47 1 19 44
M  V30 48 1 20 45
M  V30 49 1 21 46
M  V30 50 1 25 47 CFG=3
M  V30 51 1 26 48
M  V30 52 1 26 49
M  V30 53 1 27 50
M  V30 54 1 27 51
M  V30 55 1 27 52
M  V30 56 1 28 53
M  V30 57 1 28 54
M  V30 58 1 29 55
M  V30 59 1 29 56
M  V30 END BOND
M  V30 END CTAB
M  END
>  <Dataset>  (802) 
ChEMBL_Kinases

>  <Ligand_Instance>  (802) 
nan

>  <PDB_ID>  (802) 
nan

>  <Standardized_SMILES>  (802) 
CCCC(Oc1cccc2ccc(-c3nnc4ccccn34)nc12)[C@@H](CC)CN

>  <Name>  (802) 
nan

>  <Pocket>  (802) 
nan

>  <ATP_Site>  (802) 
nan

>  <Peripheral>  (802) 
nan

>  <Num_H_Atoms_ProtBoundConf>  (802) 
nan

>  <Num_Resolved_Atoms>  (802) 
nan

>  <Num_Not_Resolved_Atoms>  (802) 
nan

$$$$
CHEMBL3660038
     RDKit          3D

  0  0  0  0  0  0  0  0  0  0999 V3000
M  V30 BEGIN CTAB
M  V30 COUNTS 50 53 0 0 0
M  V30 BEGIN ATOM
M  V30 1 C 0.616365 -3.627051 0.692093 0
M  V30 2 C 2.117361 -3.406092 0.663856 0
M  V30 3 C 2.432878 -2.040490 0.168158 0 CFG=2
M  V30 4 C 3.888311 -1.700092 0.094125 0
M  V30 5 N 4.543645 -1.779163 1.384105 0
M  V30 6 C 1.675023 -0.924069 0.854119 0
M  V30 7 C 1.961575 -0.894470 2.342376 0
M  V30 8 O 2.077551 0.270285 0.286815 0
M  V30 9 C 1.454677 1.326958 -0.244604 0
M  V30 10 C 2.427819 2.217401 -0.720434 0
M  V30 11 C 2.118087 3.434702 -1.342677 0
M  V30 12 C 0.782250 3.747484 -1.480776 0
M  V30 13 C -0.141209 2.857197 -1.004859 0
M  V30 14 C -1.476963 3.161400 -1.129177 0
M  V30 15 C -2.384618 2.256944 -0.636503 0
M  V30 16 C -2.066546 1.040740 -0.012443 0
M  V30 17 C -3.236112 0.304885 0.437957 0
M  V30 18 N -4.520991 0.623001 0.245509 0
M  V30 19 N -5.337172 -0.228459 0.783713 0
M  V30 20 C -4.623376 -1.186219 1.380815 0
M  V30 21 C -4.978377 -2.308386 2.093320 0
M  V30 22 C -4.016606 -3.140436 2.618865 0
M  V30 23 C -2.712768 -2.772204 2.382671 0
M  V30 24 C -2.444306 -1.642650 1.665422 0
M  V30 25 N -3.357797 -0.820567 1.145126 0
M  V30 26 N -0.754034 0.772045 0.092573 0
M  V30 27 C 0.129556 1.655718 -0.389528 0
M  V30 28 H 0.475139 -4.743875 0.725556 0
M  V30 29 H 0.183093 -3.227342 1.639158 0
M  V30 30 H 0.094444 -3.179479 -0.160271 0
M  V30 31 H 2.505719 -4.127198 -0.088577 0
M  V30 32 H 2.509812 -3.642254 1.670400 0
M  V30 33 H 2.069790 -2.022077 -0.901310 0
M  V30 34 H 3.946234 -0.640872 -0.250223 0
M  V30 35 H 4.427284 -2.305653 -0.673645 0
M  V30 36 H 5.583428 -1.706818 1.182869 0
M  V30 37 H 4.393099 -2.756212 1.731991 0
M  V30 38 H 0.606911 -1.056645 0.689901 0
M  V30 39 H 2.310971 -1.869394 2.737708 0
M  V30 40 H 1.038164 -0.641086 2.909430 0
M  V30 41 H 2.751128 -0.157100 2.602644 0
M  V30 42 H 3.508433 2.102079 -0.679424 0
M  V30 43 H 2.818077 4.148927 -1.723053 0
M  V30 44 H 0.451016 4.668562 -1.950595 0
M  V30 45 H -1.757669 4.086853 -1.602459 0
M  V30 46 H -3.424097 2.602474 -0.790044 0
M  V30 47 H -6.031227 -2.511340 2.224419 0
M  V30 48 H -4.378365 -3.997513 3.163046 0
M  V30 49 H -1.948206 -3.432209 2.799978 0
M  V30 50 H -1.405882 -1.431674 1.541144 0
M  V30 END ATOM
M  V30 BEGIN BOND
M  V30 1 1 1 2
M  V30 2 1 2 3
M  V30 3 1 3 4
M  V30 4 1 4 5
M  V30 5 1 3 6
M  V30 6 1 6 7
M  V30 7 1 6 8
M  V30 8 1 8 9
M  V30 9 2 9 10
M  V30 10 1 10 11
M  V30 11 2 11 12
M  V30 12 1 12 13
M  V30 13 2 13 14
M  V30 14 1 14 15
M  V30 15 2 15 16
M  V30 16 1 16 17
M  V30 17 2 17 18
M  V30 18 1 18 19
M  V30 19 2 19 20
M  V30 20 1 20 21
M  V30 21 2 21 22
M  V30 22 1 22 23
M  V30 23 2 23 24
M  V30 24 1 24 25
M  V30 25 1 16 26
M  V30 26 2 26 27
M  V30 27 1 27 9
M  V30 28 1 27 13
M  V30 29 1 25 17
M  V30 30 1 25 20
M  V30 31 1 1 28
M  V30 32 1 1 29
M  V30 33 1 1 30
M  V30 34 1 2 31
M  V30 35 1 2 32
M  V30 36 1 3 33 CFG=3
M  V30 37 1 4 34
M  V30 38 1 4 35
M  V30 39 1 5 36
M  V30 40 1 5 37
M  V30 41 1 6 38
M  V30 42 1 7 39
M  V30 43 1 7 40
M  V30 44 1 7 41
M  V30 45 1 10 42
M  V30 46 1 11 43
M  V30 47 1 12 44
M  V30 48 1 14 45
M  V30 49 1 15 46
M  V30 50 1 21 47
M  V30 51 1 22 48
M  V30 52 1 23 49
M  V30 53 1 24 50
M  V30 END BOND
M  V30 END CTAB
M  END
>  <Dataset>  (803) 
ChEMBL_Kinases

>  <Ligand_Instance>  (803) 
nan

>  <PDB_ID>  (803) 
nan

>  <Standardized_SMILES>  (803) 
CC[C@H](CN)C(C)Oc1cccc2ccc(-c3nnc4ccccn34)nc12

>  <Name>  (803) 
nan

>  <Pocket>  (803) 
nan

>  <ATP_Site>  (803) 
nan

>  <Peripheral>  (803) 
nan

>  <Num_H_Atoms_ProtBoundConf>  (803) 
nan

>  <Num_Resolved_Atoms>  (803) 
nan

>  <Num_Not_Resolved_Atoms>  (803) 
nan

$$$$
CHEMBL3660037
     RDKit          3D

  0  0  0  0  0  0  0  0  0  0999 V3000
M  V30 BEGIN CTAB
M  V30 COUNTS 50 53 0 0 0
M  V30 BEGIN ATOM
M  V30 1 C 3.142020 -3.725682 2.802965 0
M  V30 2 C 2.721842 -2.389118 3.333370 0
M  V30 3 C 1.732119 -1.641889 2.524337 0 CFG=1
M  V30 4 C 1.437476 -0.319373 3.249843 0
M  V30 5 N 2.603412 0.491658 3.415180 0
M  V30 6 C 2.124889 -1.270248 1.137179 0
M  V30 7 C 2.446935 -2.408842 0.217795 0
M  V30 8 O 1.139777 -0.488251 0.494755 0
M  V30 9 C 1.304785 0.788222 0.004529 0
M  V30 10 C 2.368033 1.629714 -0.018001 0
M  V30 11 C 2.344518 2.886790 -0.559363 0
M  V30 12 C 1.204359 3.392602 -1.133339 0
M  V30 13 C 0.108124 2.557740 -1.124014 0
M  V30 14 C -1.040258 3.097096 -1.714834 0
M  V30 15 C -2.186105 2.330236 -1.750030 0
M  V30 16 C -2.145768 1.065701 -1.200200 0
M  V30 17 C -3.345182 0.237060 -1.226030 0
M  V30 18 N -4.533332 0.570242 -1.741795 0
M  V30 19 N -5.378555 -0.431774 -1.582412 0
M  V30 20 C -4.769556 -1.454693 -0.956097 0
M  V30 21 C -5.210060 -2.700872 -0.565525 0
M  V30 22 C -4.332537 -3.552963 0.072809 0
M  V30 23 C -3.039616 -3.128734 0.299862 0
M  V30 24 C -2.680187 -1.867268 -0.122740 0
M  V30 25 N -3.501306 -1.006999 -0.746782 0
M  V30 26 N -1.021612 0.586505 -0.642564 0
M  V30 27 C 0.125920 1.271891 -0.572232 0
M  V30 28 H 4.206745 -3.718540 2.427527 0
M  V30 29 H 3.193207 -4.497817 3.634313 0
M  V30 30 H 2.431769 -4.168628 2.083291 0
M  V30 31 H 2.214994 -2.603241 4.323218 0
M  V30 32 H 3.611432 -1.761709 3.628418 0
M  V30 33 H 0.778113 -2.209106 2.556267 0
M  V30 34 H 1.036864 -0.567041 4.260919 0
M  V30 35 H 0.647131 0.242671 2.712576 0
M  V30 36 H 2.442857 1.508283 3.358326 0
M  V30 37 H 3.464257 0.156332 2.981806 0
M  V30 38 H 3.057669 -0.630201 1.158494 0
M  V30 39 H 1.608669 -3.135454 0.113017 0
M  V30 40 H 3.435879 -2.860592 0.353537 0
M  V30 41 H 2.500429 -1.938079 -0.815518 0
M  V30 42 H 3.261126 1.227942 0.433969 0
M  V30 43 H 3.262891 3.472534 -0.518891 0
M  V30 44 H 1.222206 4.372044 -1.543745 0
M  V30 45 H -1.047680 4.088183 -2.138144 0
M  V30 46 H -3.094399 2.710310 -2.197576 0
M  V30 47 H -6.253769 -2.938913 -0.793169 0
M  V30 48 H -4.700774 -4.529400 0.371573 0
M  V30 49 H -2.340168 -3.796812 0.803949 0
M  V30 50 H -1.658061 -1.582951 0.078443 0
M  V30 END ATOM
M  V30 BEGIN BOND
M  V30 1 1 1 2
M  V30 2 1 2 3
M  V30 3 1 3 4
M  V30 4 1 4 5
M  V30 5 1 3 6
M  V30 6 1 6 7
M  V30 7 1 6 8
M  V30 8 1 8 9
M  V30 9 2 9 10
M  V30 10 1 10 11
M  V30 11 2 11 12
M  V30 12 1 12 13
M  V30 13 2 13 14
M  V30 14 1 14 15
M  V30 15 2 15 16
M  V30 16 1 16 17
M  V30 17 2 17 18
M  V30 18 1 18 19
M  V30 19 2 19 20
M  V30 20 1 20 21
M  V30 21 2 21 22
M  V30 22 1 22 23
M  V30 23 2 23 24
M  V30 24 1 24 25
M  V30 25 1 16 26
M  V30 26 2 26 27
M  V30 27 1 27 9
M  V30 28 1 27 13
M  V30 29 1 25 17
M  V30 30 1 25 20
M  V30 31 1 1 28
M  V30 32 1 1 29
M  V30 33 1 1 30
M  V30 34 1 2 31
M  V30 35 1 2 32
M  V30 36 1 3 33 CFG=3
M  V30 37 1 4 34
M  V30 38 1 4 35
M  V30 39 1 5 36
M  V30 40 1 5 37
M  V30 41 1 6 38
M  V30 42 1 7 39
M  V30 43 1 7 40
M  V30 44 1 7 41
M  V30 45 1 10 42
M  V30 46 1 11 43
M  V30 47 1 12 44
M  V30 48 1 14 45
M  V30 49 1 15 46
M  V30 50 1 21 47
M  V30 51 1 22 48
M  V30 52 1 23 49
M  V30 53 1 24 50
M  V30 END BOND
M  V30 END CTAB
M  END
>  <Dataset>  (804) 
ChEMBL_Kinases

>  <Ligand_Instance>  (804) 
nan

>  <PDB_ID>  (804) 
nan

>  <Standardized_SMILES>  (804) 
CC[C@@H](CN)C(C)Oc1cccc2ccc(-c3nnc4ccccn34)nc12

>  <Name>  (804) 
nan

>  <Pocket>  (804) 
nan

>  <ATP_Site>  (804) 
nan

>  <Peripheral>  (804) 
nan

>  <Num_H_Atoms_ProtBoundConf>  (804) 
nan

>  <Num_Resolved_Atoms>  (804) 
nan

>  <Num_Not_Resolved_Atoms>  (804) 
nan

$$$$
CHEMBL4079878
     RDKit          3D

  0  0  0  0  0  0  0  0  0  0999 V3000
M  V30 BEGIN CTAB
M  V30 COUNTS 34 37 0 0 0
M  V30 BEGIN ATOM
M  V30 1 C -2.449916 -4.224653 3.684655 0
M  V30 2 C -2.315660 -3.147057 2.667911 0
M  V30 3 C -1.139014 -2.741894 2.118882 0
M  V30 4 C -1.178854 -1.726299 1.185088 0
M  V30 5 C 0.061498 -1.250273 0.559933 0
M  V30 6 C 1.083386 -2.167173 0.368412 0
M  V30 7 C 2.305433 -1.848784 -0.210542 0
M  V30 8 C 2.449419 -0.550775 -0.590354 0
M  V30 9 N 3.641148 -0.232655 -1.157285 0
M  V30 10 C 3.906459 1.019461 -1.575980 0
M  V30 11 C 2.909951 1.929679 -1.393056 0
M  V30 12 N 2.861066 3.241463 -1.697271 0
M  V30 13 N 1.688371 3.711943 -1.333047 0
M  V30 14 N 0.920566 2.756769 -0.782316 0
M  V30 15 C -0.415028 3.031507 -0.302197 0
M  V30 16 C 1.676810 1.679373 -0.825929 0
M  V30 17 C 1.469033 0.392746 -0.422362 0
M  V30 18 C 0.266403 0.071968 0.149150 0
M  V30 19 C -2.339060 -1.098253 0.775673 0
M  V30 20 C -3.498619 -1.565252 1.379354 0
M  V30 21 N -3.468777 -2.554530 2.290317 0
M  V30 22 H -3.250288 -4.946367 3.421750 0
M  V30 23 H -1.473322 -4.738780 3.802661 0
M  V30 24 H -2.641178 -3.728765 4.659624 0
M  V30 25 H -0.225404 -3.219966 2.426013 0
M  V30 26 H 0.935701 -3.196125 0.683333 0
M  V30 27 H 3.088588 -2.578970 -0.350767 0
M  V30 28 H 4.834430 1.328152 -2.032653 0
M  V30 29 H -0.545234 2.894999 0.790024 0
M  V30 30 H -0.617229 4.142866 -0.429138 0
M  V30 31 H -1.200836 2.496924 -0.862055 0
M  V30 32 H -0.571804 0.666763 0.344377 0
M  V30 33 H -2.345172 -0.302374 0.040216 0
M  V30 34 H -4.424470 -1.089153 1.075821 0
M  V30 END ATOM
M  V30 BEGIN BOND
M  V30 1 1 1 2
M  V30 2 2 2 3
M  V30 3 1 3 4
M  V30 4 1 4 5
M  V30 5 2 5 6
M  V30 6 1 6 7
M  V30 7 2 7 8
M  V30 8 1 8 9
M  V30 9 2 9 10
M  V30 10 1 10 11
M  V30 11 1 11 12
M  V30 12 2 12 13
M  V30 13 1 13 14
M  V30 14 1 14 15
M  V30 15 1 14 16
M  V30 16 1 16 17
M  V30 17 2 17 18
M  V30 18 2 4 19
M  V30 19 1 19 20
M  V30 20 2 20 21
M  V30 21 1 21 2
M  V30 22 1 18 5
M  V30 23 1 17 8
M  V30 24 2 16 11
M  V30 25 1 1 22
M  V30 26 1 1 23
M  V30 27 1 1 24
M  V30 28 1 3 25
M  V30 29 1 6 26
M  V30 30 1 7 27
M  V30 31 1 10 28
M  V30 32 1 15 29
M  V30 33 1 15 30
M  V30 34 1 15 31
M  V30 35 1 18 32
M  V30 36 1 19 33
M  V30 37 1 20 34
M  V30 END BOND
M  V30 END CTAB
M  END
>  <Dataset>  (805) 
ChEMBL_Kinases

>  <Ligand_Instance>  (805) 
nan

>  <PDB_ID>  (805) 
nan

>  <Standardized_SMILES>  (805) 
Cc1cc(-c2ccc3ncc4nnn(C)c4c3c2)ccn1

>  <Name>  (805) 
nan

>  <Pocket>  (805) 
nan

>  <ATP_Site>  (805) 
nan

>  <Peripheral>  (805) 
nan

>  <Num_H_Atoms_ProtBoundConf>  (805) 
nan

>  <Num_Resolved_Atoms>  (805) 
nan

>  <Num_Not_Resolved_Atoms>  (805) 
nan

$$$$
CHEMBL3603847
     RDKit          3D

  0  0  0  0  0  0  0  0  0  0999 V3000
M  V30 BEGIN CTAB
M  V30 COUNTS 69 73 0 0 0
M  V30 BEGIN ATOM
M  V30 1 C 10.482546 2.037119 5.117350 0
M  V30 2 N 9.566699 1.294346 5.992837 0
M  V30 3 C 9.950265 1.663274 7.351806 0
M  V30 4 C 8.219325 1.723400 5.756531 0
M  V30 5 C 7.677893 1.359099 4.451709 0
M  V30 6 C 6.596422 0.596460 4.431471 0
M  V30 7 C 6.092344 0.259048 3.102543 0
M  V30 8 O 6.665607 0.674107 2.059831 0
M  V30 9 N 4.934530 -0.551152 2.991690 0
M  V30 10 C 4.170196 -1.073107 1.924285 0
M  V30 11 C 4.298824 -2.232340 1.188667 0
M  V30 12 C 3.406101 -2.545245 0.176264 0
M  V30 13 C 2.357571 -1.699532 -0.124449 0
M  V30 14 C 1.494898 -2.133956 -1.215945 0
M  V30 15 O 1.804469 -3.131823 -1.886579 0
M  V30 16 N 0.322203 -1.376148 -1.455992 0
M  V30 17 C -0.772921 -1.393433 -2.355097 0
M  V30 18 C -0.760189 -0.660253 -3.522621 0
M  V30 19 C -1.814027 -0.650239 -4.441964 0
M  V30 20 C -2.925011 -1.442722 -4.121295 0
M  V30 21 C -2.944217 -2.171641 -2.966985 0
M  V30 22 N -4.059864 -2.977108 -2.631697 0
M  V30 23 C -5.315645 -3.069026 -3.303083 0
M  V30 24 N -5.538355 -3.820523 -4.396825 0
M  V30 25 C -6.778972 -3.837299 -4.945364 0
M  V30 26 C -7.744270 -3.069836 -4.334016 0
M  V30 27 Cl -9.307228 -3.119548 -5.070390 0
M  V30 28 C -7.557200 -2.295916 -3.225124 0
M  V30 29 C -8.541373 -1.484477 -2.541151 0
M  V30 30 C -9.873662 -1.213253 -2.742306 0
M  V30 31 N -10.379628 -0.381135 -1.817808 0
M  V30 32 C -9.372223 -0.088955 -0.983257 0
M  V30 33 C -9.435711 0.733708 0.121981 0
M  V30 34 C -8.290933 0.919993 0.873265 0
M  V30 35 C -7.152403 0.276940 0.479775 0
M  V30 36 C -7.142430 -0.534591 -0.633027 0
M  V30 37 C -8.246652 -0.755856 -1.414584 0
M  V30 38 N -6.299542 -2.340995 -2.752127 0
M  V30 39 C -1.897401 -2.165004 -2.079719 0
M  V30 40 C 2.210755 -0.535379 0.598255 0
M  V30 41 C 3.118718 -0.227622 1.619742 0
M  V30 42 H 10.532595 1.526661 4.140207 0
M  V30 43 H 10.069028 3.059695 4.945897 0
M  V30 44 H 11.483821 2.101975 5.583245 0
M  V30 45 H 10.447975 0.846546 7.893513 0
M  V30 46 H 9.043093 1.931044 7.941726 0
M  V30 47 H 10.605756 2.556737 7.390337 0
M  V30 48 H 8.247303 2.852643 5.799372 0
M  V30 49 H 7.621665 1.420126 6.620552 0
M  V30 50 H 8.198220 1.737713 3.576185 0
M  V30 51 H 6.112857 0.243231 5.316622 0
M  V30 52 H 4.422740 -0.921932 3.844392 0
M  V30 53 H 5.145118 -2.825751 1.497436 0
M  V30 54 H 3.590314 -3.474108 -0.343323 0
M  V30 55 H -0.012907 -0.532938 -0.941467 0
M  V30 56 H 0.101456 -0.034417 -3.789917 0
M  V30 57 H -1.788434 -0.066281 -5.357351 0
M  V30 58 H -3.742310 -1.433317 -4.837744 0
M  V30 59 H -4.081350 -3.624189 -1.813657 0
M  V30 60 H -6.967744 -4.432049 -5.816755 0
M  V30 61 H -10.464165 -1.605317 -3.535077 0
M  V30 62 H -11.374401 -0.037840 -1.775716 0
M  V30 63 H -10.346266 1.237993 0.423508 0
M  V30 64 H -8.359919 1.567663 1.735619 0
M  V30 65 H -6.259310 0.438912 1.088876 0
M  V30 66 H -6.192586 -0.984957 -0.842915 0
M  V30 67 H -1.913489 -2.741528 -1.167235 0
M  V30 68 H 1.389532 0.108487 0.347608 0
M  V30 69 H 2.880733 0.720038 2.103782 0
M  V30 END ATOM
M  V30 BEGIN BOND
M  V30 1 1 1 2
M  V30 2 1 2 3
M  V30 3 1 2 4
M  V30 4 1 4 5
M  V30 5 2 5 6
M  V30 6 1 6 7
M  V30 7 2 7 8
M  V30 8 1 7 9
M  V30 9 1 9 10
M  V30 10 2 10 11
M  V30 11 1 11 12
M  V30 12 2 12 13
M  V30 13 1 13 14
M  V30 14 2 14 15
M  V30 15 1 14 16
M  V30 16 1 16 17
M  V30 17 2 17 18
M  V30 18 1 18 19
M  V30 19 2 19 20
M  V30 20 1 20 21
M  V30 21 1 21 22
M  V30 22 1 22 23
M  V30 23 2 23 24
M  V30 24 1 24 25
M  V30 25 2 25 26
M  V30 26 1 26 27
M  V30 27 1 26 28
M  V30 28 1 28 29
M  V30 29 2 29 30
M  V30 30 1 30 31
M  V30 31 1 31 32
M  V30 32 2 32 33
M  V30 33 1 33 34
M  V30 34 2 34 35
M  V30 35 1 35 36
M  V30 36 2 36 37
M  V30 37 2 28 38
M  V30 38 2 21 39
M  V30 39 1 13 40
M  V30 40 2 40 41
M  V30 41 1 41 10
M  V30 42 1 39 17
M  V30 43 1 38 23
M  V30 44 1 37 29
M  V30 45 1 37 32
M  V30 46 1 1 42
M  V30 47 1 1 43
M  V30 48 1 1 44
M  V30 49 1 3 45
M  V30 50 1 3 46
M  V30 51 1 3 47
M  V30 52 1 4 48
M  V30 53 1 4 49
M  V30 54 1 5 50
M  V30 55 1 6 51
M  V30 56 1 9 52
M  V30 57 1 11 53
M  V30 58 1 12 54
M  V30 59 1 16 55
M  V30 60 1 18 56
M  V30 61 1 19 57
M  V30 62 1 20 58
M  V30 63 1 22 59
M  V30 64 1 25 60
M  V30 65 1 30 61
M  V30 66 1 31 62
M  V30 67 1 33 63
M  V30 68 1 34 64
M  V30 69 1 35 65
M  V30 70 1 36 66
M  V30 71 1 39 67
M  V30 72 1 40 68
M  V30 73 1 41 69
M  V30 END BOND
M  V30 END CTAB
M  END
>  <Dataset>  (806) 
ChEMBL_Kinases

>  <Ligand_Instance>  (806) 
nan

>  <PDB_ID>  (806) 
nan

>  <Standardized_SMILES>  (806) 
CN(C)C/C=C/C(=O)Nc1ccc(C(=O)Nc2cccc(Nc3ncc(Cl)c(-c4c[nH]c5ccccc45)n3)c2)cc1

>  <Name>  (806) 
nan

>  <Pocket>  (806) 
nan

>  <ATP_Site>  (806) 
nan

>  <Peripheral>  (806) 
nan

>  <Num_H_Atoms_ProtBoundConf>  (806) 
nan

>  <Num_Resolved_Atoms>  (806) 
nan

>  <Num_Not_Resolved_Atoms>  (806) 
nan

$$$$
CHEMBL3601115
     RDKit          3D

  0  0  0  0  0  0  0  0  0  0999 V3000
M  V30 BEGIN CTAB
M  V30 COUNTS 52 54 0 0 0
M  V30 BEGIN ATOM
M  V30 1 C -1.405686 -4.139907 1.443859 0
M  V30 2 C -0.455305 -4.438208 0.577256 0
M  V30 3 C 0.875097 -3.876704 0.394372 0
M  V30 4 O 1.642741 -4.305573 -0.503189 0
M  V30 5 N 1.225220 -2.833964 1.288794 0
M  V30 6 C 2.381773 -2.028747 1.463374 0
M  V30 7 C 3.403084 -2.421220 2.301440 0
M  V30 8 C 4.484892 -1.584180 2.413437 0
M  V30 9 C 4.493412 -0.411876 1.692871 0
M  V30 10 C 3.467974 0.009995 0.834524 0
M  V30 11 C 3.725243 1.321495 0.168044 0
M  V30 12 N 3.298368 2.448984 0.956840 0
M  V30 13 C 2.015291 2.914281 1.332366 0
M  V30 14 N 0.857935 2.338238 0.947144 0
M  V30 15 C -0.350586 2.800883 1.300309 0
M  V30 16 N -1.602211 2.262928 0.910441 0
M  V30 17 C -1.797943 1.218642 -0.033900 0
M  V30 18 C -0.881922 0.639834 -0.890487 0
M  V30 19 N -1.437297 -0.334014 -1.633467 0
M  V30 20 N -2.725551 -0.390075 -1.259133 0
M  V30 21 C -3.710556 -1.302039 -1.803395 0
M  V30 22 C -3.695693 -2.554656 -0.973576 0
M  V30 23 O -4.616795 -3.496853 -1.427245 0
M  V30 24 C -4.522108 -4.608088 -0.592792 0
M  V30 25 C -2.964141 0.526609 -0.306132 0
M  V30 26 N -0.396424 3.907878 2.087862 0
M  V30 27 C 0.693428 4.550759 2.521903 0
M  V30 28 C 1.905426 4.049707 2.140660 0
M  V30 29 Cl 3.337233 4.887362 2.704953 0
M  V30 30 C 2.401195 -0.853010 0.746998 0
M  V30 31 H -2.388057 -4.574384 1.558373 0
M  V30 32 H -1.807510 -3.574364 2.272348 0
M  V30 33 H -0.772186 -5.237065 -0.077697 0
M  V30 34 H 0.577743 -2.475714 2.042833 0
M  V30 35 H 3.356534 -3.341047 2.844507 0
M  V30 36 H 5.300139 -1.867281 3.063330 0
M  V30 37 H 5.398968 0.194822 1.845362 0
M  V30 38 H 4.805570 1.384917 -0.034917 0
M  V30 39 H 3.232472 1.314783 -0.838987 0
M  V30 40 H 4.111860 3.036840 1.322539 0
M  V30 41 H -2.478714 2.638956 1.331485 0
M  V30 42 H 0.137393 1.011105 -0.889032 0
M  V30 43 H -4.715329 -0.829840 -1.843283 0
M  V30 44 H -3.389638 -1.567802 -2.840963 0
M  V30 45 H -4.024341 -2.258781 0.064833 0
M  V30 46 H -2.685364 -2.968203 -0.973434 0
M  V30 47 H -4.749346 -4.352480 0.465049 0
M  V30 48 H -5.115706 -5.461813 -0.985100 0
M  V30 49 H -3.434424 -4.910697 -0.571622 0
M  V30 50 H -3.916053 0.723268 0.197869 0
M  V30 51 H 0.634161 5.422810 3.143410 0
M  V30 52 H 1.640076 -0.503056 0.082655 0
M  V30 END ATOM
M  V30 BEGIN BOND
M  V30 1 2 1 2
M  V30 2 1 2 3
M  V30 3 2 3 4
M  V30 4 1 3 5
M  V30 5 1 5 6
M  V30 6 2 6 7
M  V30 7 1 7 8
M  V30 8 2 8 9
M  V30 9 1 9 10
M  V30 10 1 10 11
M  V30 11 1 11 12
M  V30 12 1 12 13
M  V30 13 2 13 14
M  V30 14 1 14 15
M  V30 15 1 15 16
M  V30 16 1 16 17
M  V30 17 1 17 18
M  V30 18 2 18 19
M  V30 19 1 19 20
M  V30 20 1 20 21
M  V30 21 1 21 22
M  V30 22 1 22 23
M  V30 23 1 23 24
M  V30 24 1 20 25
M  V30 25 2 15 26
M  V30 26 1 26 27
M  V30 27 2 27 28
M  V30 28 1 28 29
M  V30 29 2 10 30
M  V30 30 1 30 6
M  V30 31 1 28 13
M  V30 32 2 25 17
M  V30 33 1 1 31
M  V30 34 1 1 32
M  V30 35 1 2 33
M  V30 36 1 5 34
M  V30 37 1 7 35
M  V30 38 1 8 36
M  V30 39 1 9 37
M  V30 40 1 11 38
M  V30 41 1 11 39
M  V30 42 1 12 40
M  V30 43 1 16 41
M  V30 44 1 18 42
M  V30 45 1 21 43
M  V30 46 1 21 44
M  V30 47 1 22 45
M  V30 48 1 22 46
M  V30 49 1 24 47
M  V30 50 1 24 48
M  V30 51 1 24 49
M  V30 52 1 25 50
M  V30 53 1 27 51
M  V30 54 1 30 52
M  V30 END BOND
M  V30 END CTAB
M  END
>  <Dataset>  (807) 
ChEMBL_Kinases

>  <Ligand_Instance>  (807) 
nan

>  <PDB_ID>  (807) 
nan

>  <Standardized_SMILES>  (807) 
C=CC(=O)Nc1cccc(CNc2nc(Nc3cnn(CCOC)c3)ncc2Cl)c1

>  <Name>  (807) 
nan

>  <Pocket>  (807) 
nan

>  <ATP_Site>  (807) 
nan

>  <Peripheral>  (807) 
nan

>  <Num_H_Atoms_ProtBoundConf>  (807) 
nan

>  <Num_Resolved_Atoms>  (807) 
nan

>  <Num_Not_Resolved_Atoms>  (807) 
nan

$$$$
CHEMBL4098659
     RDKit          3D

  0  0  0  0  0  0  0  0  0  0999 V3000
M  V30 BEGIN CTAB
M  V30 COUNTS 49 52 0 0 0
M  V30 BEGIN ATOM
M  V30 1 C -1.928764 -5.710707 -0.252815 0
M  V30 2 N -1.009035 -6.076867 -1.309515 0
M  V30 3 C -1.028465 -5.104867 -2.381211 0
M  V30 4 C 0.315397 -4.383655 -2.432865 0
M  V30 5 N 0.627439 -3.892982 -1.103650 0
M  V30 6 C 0.633020 -2.576897 -0.578312 0
M  V30 7 C 0.965310 -2.302919 0.732934 0
M  V30 8 C 0.930493 -0.976470 1.116383 0
M  V30 9 C 0.593548 0.085183 0.301667 0
M  V30 10 C 0.585037 1.459418 0.799094 0
M  V30 11 C 1.070899 2.643212 0.268186 0
M  V30 12 C 0.786342 3.646654 1.173172 0
M  V30 13 C 1.054841 5.000050 1.124571 0
M  V30 14 Cl 1.881555 5.647074 -0.257314 0
M  V30 15 C 0.649317 5.803966 2.194998 0
M  V30 16 C -0.001192 5.160892 3.235503 0
M  V30 17 C -0.418069 6.021755 4.347951 0
M  V30 18 N -1.097704 5.543827 5.502870 0
M  V30 19 O -0.227103 7.265219 4.411711 0
M  V30 20 N -0.268336 3.837970 3.292147 0
M  V30 21 C 0.127569 3.052520 2.246915 0
M  V30 22 N 0.018399 1.715438 1.991198 0
M  V30 23 C -0.636618 0.836547 2.957636 0
M  V30 24 C 0.263510 -0.210969 -1.009915 0
M  V30 25 C 0.289711 -1.543945 -1.427156 0
M  V30 26 C 0.972152 -5.050156 -0.286657 0
M  V30 27 C 0.327603 -6.313084 -0.810197 0
M  V30 28 H -1.423579 -5.727874 0.755101 0
M  V30 29 H -2.188679 -4.638317 -0.417153 0
M  V30 30 H -2.863326 -6.307282 -0.251401 0
M  V30 31 H -1.105531 -5.700478 -3.324115 0
M  V30 32 H -1.837909 -4.370255 -2.263084 0
M  V30 33 H 1.080062 -5.077770 -2.837784 0
M  V30 34 H 0.158871 -3.552022 -3.150187 0
M  V30 35 H 1.236489 -3.095194 1.412255 0
M  V30 36 H 1.202216 -0.815488 2.164491 0
M  V30 37 H 1.569089 2.669789 -0.691943 0
M  V30 38 H 0.841075 6.846101 2.186587 0
M  V30 39 H -1.361648 4.525885 5.543825 0
M  V30 40 H -1.474819 4.605710 5.814240 0
M  V30 41 H 0.042955 0.532921 3.776273 0
M  V30 42 H -1.051476 -0.030141 2.414775 0
M  V30 43 H -1.476104 1.383836 3.466532 0
M  V30 44 H 0.003431 0.617513 -1.635442 0
M  V30 45 H 0.012396 -1.635852 -2.468837 0
M  V30 46 H 2.056729 -5.230986 -0.222913 0
M  V30 47 H 0.523429 -4.873539 0.715265 0
M  V30 48 H 0.910711 -6.792006 -1.623725 0
M  V30 49 H 0.261664 -7.018210 0.035510 0
M  V30 END ATOM
M  V30 BEGIN BOND
M  V30 1 1 1 2
M  V30 2 1 2 3
M  V30 3 1 3 4
M  V30 4 1 4 5
M  V30 5 1 5 6
M  V30 6 2 6 7
M  V30 7 1 7 8
M  V30 8 2 8 9
M  V30 9 1 9 10
M  V30 10 2 10 11
M  V30 11 1 11 12
M  V30 12 2 12 13
M  V30 13 1 13 14
M  V30 14 1 13 15
M  V30 15 2 15 16
M  V30 16 1 16 17
M  V30 17 1 17 18
M  V30 18 2 17 19
M  V30 19 1 16 20
M  V30 20 2 20 21
M  V30 21 1 21 22
M  V30 22 1 22 23
M  V30 23 1 9 24
M  V30 24 2 24 25
M  V30 25 1 5 26
M  V30 26 1 26 27
M  V30 27 1 27 2
M  V30 28 1 25 6
M  V30 29 1 22 10
M  V30 30 1 21 12
M  V30 31 1 1 28
M  V30 32 1 1 29
M  V30 33 1 1 30
M  V30 34 1 3 31
M  V30 35 1 3 32
M  V30 36 1 4 33
M  V30 37 1 4 34
M  V30 38 1 7 35
M  V30 39 1 8 36
M  V30 40 1 11 37
M  V30 41 1 15 38
M  V30 42 1 18 39
M  V30 43 1 18 40
M  V30 44 1 23 41
M  V30 45 1 23 42
M  V30 46 1 23 43
M  V30 47 1 24 44
M  V30 48 1 25 45
M  V30 49 1 26 46
M  V30 50 1 26 47
M  V30 51 1 27 48
M  V30 52 1 27 49
M  V30 END BOND
M  V30 END CTAB
M  END
>  <Dataset>  (808) 
ChEMBL_Kinases

>  <Ligand_Instance>  (808) 
nan

>  <PDB_ID>  (808) 
nan

>  <Standardized_SMILES>  (808) 
CN1CCN(c2ccc(-c3cc4c(Cl)cc(C(N)=O)nc4n3C)cc2)CC1

>  <Name>  (808) 
nan

>  <Pocket>  (808) 
nan

>  <ATP_Site>  (808) 
nan

>  <Peripheral>  (808) 
nan

>  <Num_H_Atoms_ProtBoundConf>  (808) 
nan

>  <Num_Resolved_Atoms>  (808) 
nan

>  <Num_Not_Resolved_Atoms>  (808) 
nan

$$$$
CHEMBL3407504
     RDKit          3D

  0  0  0  0  0  0  0  0  0  0999 V3000
M  V30 BEGIN CTAB
M  V30 COUNTS 70 75 0 0 0
M  V30 BEGIN ATOM
M  V30 1 C 7.312274 -2.584296 3.196259 0
M  V30 2 N 6.245417 -2.039690 2.407252 0
M  V30 3 C 6.048406 -2.312254 1.042620 0
M  V30 4 N 6.846319 -3.116025 0.340183 0
M  V30 5 C 6.632882 -3.363954 -0.982812 0
M  V30 6 C 5.575326 -2.789195 -1.653032 0
M  V30 7 C 5.286692 -2.985129 -2.987173 0
M  V30 8 C 4.191756 -2.353664 -3.561958 0
M  V30 9 C 3.359754 -1.514090 -2.824891 0
M  V30 10 O 2.265103 -0.892655 -3.431416 0
M  V30 11 C 1.492120 -0.072208 -2.620273 0
M  V30 12 C 1.860445 1.233204 -2.562064 0
M  V30 13 C 3.028037 1.747386 -3.327286 0
M  V30 14 C 1.153913 2.124254 -1.784130 0
M  V30 15 C 0.084514 1.600751 -1.097099 0
M  V30 16 C -0.352771 0.297467 -1.100649 0
M  V30 17 C -1.475733 -0.288797 -0.415892 0
M  V30 18 O -1.685268 -1.487040 -0.767712 0
M  V30 19 C -2.427243 0.143494 0.572287 0
M  V30 20 C -3.635669 -0.534328 0.741135 0
M  V30 21 C -4.286271 -1.672349 0.061230 0
M  V30 22 C -4.433251 -1.823389 -1.277029 0
M  V30 23 C -5.038885 -2.917575 -1.857198 0
M  V30 24 C -5.534350 -3.933956 -1.052522 0
M  V30 25 C -5.409192 -3.825083 0.303309 0
M  V30 26 C -4.796928 -2.715030 0.843024 0
M  V30 27 N -4.295706 0.081009 1.767022 0
M  V30 28 C -5.605513 -0.283132 2.300335 0
M  V30 29 N -3.615201 1.083760 2.260093 0
M  V30 30 C -3.996643 1.945351 3.331452 0
M  V30 31 C -4.873361 3.013664 3.344815 0
M  V30 32 C -5.067794 3.690600 4.529728 0
M  V30 33 C -4.427339 3.347519 5.694557 0
M  V30 34 C -3.549620 2.280026 5.686561 0
M  V30 35 C -3.335629 1.580459 4.504656 0
M  V30 36 C -2.484230 1.121128 1.537038 0
M  V30 37 O -1.616987 1.986431 1.778709 0
M  V30 38 C 0.390753 -0.549848 -1.896220 0
M  V30 39 N 0.176037 -1.961935 -2.099003 0
M  V30 40 C 3.685986 -1.348745 -1.500147 0
M  V30 41 C 4.768045 -1.964478 -0.904843 0
M  V30 42 N 5.019185 -1.751685 0.394316 0
M  V30 43 H 7.893306 -1.783802 3.711876 0
M  V30 44 H 6.916190 -3.298913 3.938405 0
M  V30 45 H 8.005703 -3.151314 2.541551 0
M  V30 46 H 5.620752 -1.417425 2.936446 0
M  V30 47 H 7.289547 -4.016953 -1.533392 0
M  V30 48 H 5.946971 -3.638921 -3.531443 0
M  V30 49 H 3.969924 -2.510884 -4.608736 0
M  V30 50 H 3.965548 1.717264 -2.767188 0
M  V30 51 H 2.819943 2.773968 -3.679769 0
M  V30 52 H 3.164294 1.147349 -4.267701 0
M  V30 53 H 1.418766 3.169447 -1.714597 0
M  V30 54 H -0.460102 2.319579 -0.511259 0
M  V30 55 H -4.078857 -1.067992 -1.932940 0
M  V30 56 H -5.127620 -2.983412 -2.937705 0
M  V30 57 H -6.014699 -4.804379 -1.489525 0
M  V30 58 H -5.805752 -4.633743 0.899502 0
M  V30 59 H -4.715749 -2.663858 1.927251 0
M  V30 60 H -5.537732 -0.831133 3.239685 0
M  V30 61 H -6.154121 0.666384 2.472869 0
M  V30 62 H -6.191507 -0.800527 1.498044 0
M  V30 63 H -5.309846 3.187361 2.390064 0
M  V30 64 H -5.763783 4.517102 4.483058 0
M  V30 65 H -4.612266 3.913464 6.612228 0
M  V30 66 H -3.064928 2.043397 6.629860 0
M  V30 67 H -2.626926 0.768009 4.631935 0
M  V30 68 H -0.578348 -2.177319 -2.804321 0
M  V30 69 H 0.796156 -2.577924 -1.520226 0
M  V30 70 H 3.037523 -0.695125 -0.928699 0
M  V30 END ATOM
M  V30 BEGIN BOND
M  V30 1 1 1 2
M  V30 2 1 2 3
M  V30 3 2 3 4
M  V30 4 1 4 5
M  V30 5 2 5 6
M  V30 6 1 6 7
M  V30 7 2 7 8
M  V30 8 1 8 9
M  V30 9 1 9 10
M  V30 10 1 10 11
M  V30 11 2 11 12
M  V30 12 1 12 13
M  V30 13 1 12 14
M  V30 14 2 14 15
M  V30 15 1 15 16
M  V30 16 1 16 17
M  V30 17 2 17 18
M  V30 18 1 17 19
M  V30 19 2 19 20
M  V30 20 1 20 21
M  V30 21 2 21 22
M  V30 22 1 22 23
M  V30 23 2 23 24
M  V30 24 1 24 25
M  V30 25 2 25 26
M  V30 26 1 20 27
M  V30 27 1 27 28
M  V30 28 1 27 29
M  V30 29 1 29 30
M  V30 30 2 30 31
M  V30 31 1 31 32
M  V30 32 2 32 33
M  V30 33 1 33 34
M  V30 34 2 34 35
M  V30 35 1 29 36
M  V30 36 2 36 37
M  V30 37 2 16 38
M  V30 38 1 38 39
M  V30 39 2 9 40
M  V30 40 1 40 41
M  V30 41 2 41 42
M  V30 42 1 42 3
M  V30 43 1 41 6
M  V30 44 1 38 11
M  V30 45 1 36 19
M  V30 46 1 26 21
M  V30 47 1 35 30
M  V30 48 1 1 43
M  V30 49 1 1 44
M  V30 50 1 1 45
M  V30 51 1 2 46
M  V30 52 1 5 47
M  V30 53 1 7 48
M  V30 54 1 8 49
M  V30 55 1 13 50
M  V30 56 1 13 51
M  V30 57 1 13 52
M  V30 58 1 14 53
M  V30 59 1 15 54
M  V30 60 1 22 55
M  V30 61 1 23 56
M  V30 62 1 24 57
M  V30 63 1 25 58
M  V30 64 1 26 59
M  V30 65 1 28 60
M  V30 66 1 28 61
M  V30 67 1 28 62
M  V30 68 1 31 63
M  V30 69 1 32 64
M  V30 70 1 33 65
M  V30 71 1 34 66
M  V30 72 1 35 67
M  V30 73 1 39 68
M  V30 74 1 39 69
M  V30 75 1 40 70
M  V30 END BOND
M  V30 END CTAB
M  END
>  <Dataset>  (809) 
ChEMBL_Kinases

>  <Ligand_Instance>  (809) 
nan

>  <PDB_ID>  (809) 
nan

>  <Standardized_SMILES>  (809) 
CNc1ncc2ccc(Oc3c(C)ccc(C(=O)c4c(-c5ccccc5)n(C)n(-c5ccccc5)c4=O)c3N)cc2n1

>  <Name>  (809) 
nan

>  <Pocket>  (809) 
nan

>  <ATP_Site>  (809) 
nan

>  <Peripheral>  (809) 
nan

>  <Num_H_Atoms_ProtBoundConf>  (809) 
nan

>  <Num_Resolved_Atoms>  (809) 
nan

>  <Num_Not_Resolved_Atoms>  (809) 
nan

$$$$
CHEMBL3407526
     RDKit          3D

  0  0  0  0  0  0  0  0  0  0999 V3000
M  V30 BEGIN CTAB
M  V30 COUNTS 56 59 0 0 0
M  V30 BEGIN ATOM
M  V30 1 C 5.903720 -1.188093 -0.115065 0
M  V30 2 C 6.421314 -1.086402 1.265200 0
M  V30 3 C 7.695992 -1.513292 1.656967 0
M  V30 4 N 7.857400 -1.245214 2.985824 0
M  V30 5 C 6.748177 -0.664038 3.478344 0
M  V30 6 N 6.371353 -0.186196 4.687156 0
M  V30 7 C 5.149652 0.367380 4.820961 0
M  V30 8 N 4.307699 0.447355 3.771643 0
M  V30 9 C 4.628526 -0.017055 2.529064 0
M  V30 10 C 3.574850 0.171427 1.549404 0
M  V30 11 C 3.145511 1.504945 1.467363 0
M  V30 12 C 2.122202 1.945152 0.632054 0
M  V30 13 C 1.494048 1.011624 -0.161872 0
M  V30 14 N 0.429208 1.303924 -1.070432 0
M  V30 15 C -0.899949 1.221615 -0.560892 0
M  V30 16 O -1.029101 0.898860 0.645531 0
M  V30 17 N -2.069545 1.477506 -1.319258 0
M  V30 18 C -3.358476 1.357490 -0.677311 0
M  V30 19 C -3.992058 2.401763 -0.036989 0
M  V30 20 C -5.226910 2.184434 0.547900 0
M  V30 21 C -5.795408 0.907810 0.470825 0
M  V30 22 C -5.150315 -0.133983 -0.174816 0
M  V30 23 C -5.823635 -1.429258 -0.202297 0
M  V30 24 O -6.943034 -1.509782 0.362245 0
M  V30 25 N -5.297525 -2.573259 -0.815546 0
M  V30 26 C -5.852884 -3.881748 -0.908901 0
M  V30 27 C -5.027861 -4.941968 -0.228199 0
M  V30 28 C -6.081186 -4.327001 -2.339275 0
M  V30 29 C -3.918619 0.077546 -0.759754 0
M  V30 30 C 1.883788 -0.311332 -0.112965 0
M  V30 31 F 1.325508 -1.299369 -0.855431 0
M  V30 32 C 2.899643 -0.705023 0.726916 0
M  V30 33 C 5.878698 -0.574700 2.415732 0
M  V30 34 H 5.408579 -0.254712 -0.476294 0
M  V30 35 H 6.778633 -1.320741 -0.829097 0
M  V30 36 H 5.264323 -2.061253 -0.292685 0
M  V30 37 H 8.429842 -1.978149 1.012443 0
M  V30 38 H 8.677631 -1.429375 3.597007 0
M  V30 39 H 4.918317 0.723976 5.799464 0
M  V30 40 H 3.574575 2.311104 2.049050 0
M  V30 41 H 1.801250 2.956594 0.574081 0
M  V30 42 H 0.541235 1.572772 -2.076076 0
M  V30 43 H -1.895764 1.745786 -2.332463 0
M  V30 44 H -3.473045 3.366459 -0.025735 0
M  V30 45 H -5.699415 3.022981 1.043025 0
M  V30 46 H -6.771368 0.804932 0.953368 0
M  V30 47 H -4.373549 -2.533008 -1.289256 0
M  V30 48 H -6.848980 -3.866327 -0.380877 0
M  V30 49 H -5.297879 -5.916903 -0.684893 0
M  V30 50 H -3.940626 -4.788184 -0.455756 0
M  V30 51 H -5.221616 -5.037742 0.856523 0
M  V30 52 H -7.093518 -4.756341 -2.475156 0
M  V30 53 H -5.996974 -3.484863 -3.059813 0
M  V30 54 H -5.365888 -5.122493 -2.628791 0
M  V30 55 H -3.411663 -0.734175 -1.265089 0
M  V30 56 H 3.248623 -1.717322 0.835739 0
M  V30 END ATOM
M  V30 BEGIN BOND
M  V30 1 1 1 2
M  V30 2 2 2 3
M  V30 3 1 3 4
M  V30 4 1 4 5
M  V30 5 2 5 6
M  V30 6 1 6 7
M  V30 7 2 7 8
M  V30 8 1 8 9
M  V30 9 1 9 10
M  V30 10 2 10 11
M  V30 11 1 11 12
M  V30 12 2 12 13
M  V30 13 1 13 14
M  V30 14 1 14 15
M  V30 15 2 15 16
M  V30 16 1 15 17
M  V30 17 1 17 18
M  V30 18 2 18 19
M  V30 19 1 19 20
M  V30 20 2 20 21
M  V30 21 1 21 22
M  V30 22 1 22 23
M  V30 23 2 23 24
M  V30 24 1 23 25
M  V30 25 1 25 26
M  V30 26 1 26 27
M  V30 27 1 26 28
M  V30 28 2 22 29
M  V30 29 1 13 30
M  V30 30 1 30 31
M  V30 31 2 30 32
M  V30 32 2 9 33
M  V30 33 1 33 2
M  V30 34 1 33 5
M  V30 35 1 32 10
M  V30 36 1 29 18
M  V30 37 1 1 34
M  V30 38 1 1 35
M  V30 39 1 1 36
M  V30 40 1 3 37
M  V30 41 1 4 38
M  V30 42 1 7 39
M  V30 43 1 11 40
M  V30 44 1 12 41
M  V30 45 1 14 42
M  V30 46 1 17 43
M  V30 47 1 19 44
M  V30 48 1 20 45
M  V30 49 1 21 46
M  V30 50 1 25 47
M  V30 51 1 26 48
M  V30 52 1 27 49
M  V30 53 1 27 50
M  V30 54 1 27 51
M  V30 55 1 28 52
M  V30 56 1 28 53
M  V30 57 1 28 54
M  V30 58 1 29 55
M  V30 59 1 32 56
M  V30 END BOND
M  V30 END CTAB
M  END
>  <Dataset>  (810) 
ChEMBL_Kinases

>  <Ligand_Instance>  (810) 
nan

>  <PDB_ID>  (810) 
nan

>  <Standardized_SMILES>  (810) 
Cc1c[nH]c2ncnc(-c3ccc(NC(=O)Nc4cccc(C(=O)NC(C)C)c4)c(F)c3)c12

>  <Name>  (810) 
nan

>  <Pocket>  (810) 
nan

>  <ATP_Site>  (810) 
nan

>  <Peripheral>  (810) 
nan

>  <Num_H_Atoms_ProtBoundConf>  (810) 
nan

>  <Num_Resolved_Atoms>  (810) 
nan

>  <Num_Not_Resolved_Atoms>  (810) 
nan

$$$$
CHEMBL3797827
     RDKit          3D

  0  0  0  0  0  0  0  0  0  0999 V3000
M  V30 BEGIN CTAB
M  V30 COUNTS 47 50 0 0 0
M  V30 BEGIN ATOM
M  V30 1 N -1.630809 -4.225226 2.707473 0
M  V30 2 C -0.285711 -4.470627 2.314183 0
M  V30 3 C 0.180444 -3.818042 1.215509 0
M  V30 4 C 1.470934 -4.026407 0.802877 0
M  V30 5 C 2.154620 -3.430707 -0.336972 0
M  V30 6 N 2.928097 -4.078060 -1.228560 0
M  V30 7 N 3.392869 -3.246981 -2.131778 0
M  V30 8 C 2.935369 -2.008710 -1.862048 0
M  V30 9 C 3.093820 -0.783328 -2.453719 0
M  V30 10 C 2.469714 0.323553 -1.910378 0
M  V30 11 C 1.684479 0.272869 -0.792030 0
M  V30 12 C 1.073170 1.491403 -0.300296 0
M  V30 13 O 1.296315 2.544165 -0.930592 0
M  V30 14 N 0.243778 1.533678 0.851794 0
M  V30 15 C -0.391433 2.729192 1.384022 0
M  V30 16 C 0.041820 2.897385 2.822962 0
M  V30 17 O 1.412794 3.029418 2.907361 0
M  V30 18 C -1.860221 2.501602 1.319972 0
M  V30 19 C -2.448364 1.317711 1.717090 0
M  V30 20 C -3.820098 1.198036 1.621345 0
M  V30 21 C -4.655827 2.202844 1.146067 0
M  V30 22 C -4.056492 3.374625 0.754794 0
M  V30 23 Cl -5.016840 4.725587 0.132696 0
M  V30 24 C -2.693721 3.509272 0.843818 0
M  V30 25 C 1.537040 -0.970044 -0.210547 0
M  V30 26 C 2.152444 -2.108600 -0.732122 0
M  V30 27 C 2.231905 -4.908436 1.550029 0
M  V30 28 C 1.727896 -5.559114 2.666292 0
M  V30 29 N 0.458539 -5.329588 3.040109 0
M  V30 30 H -1.797671 -3.514280 3.470296 0
M  V30 31 H -2.639756 -4.452453 2.570909 0
M  V30 32 H -0.386111 -3.119034 0.604025 0
M  V30 33 H 4.013718 -3.451060 -2.942467 0
M  V30 34 H 3.718733 -0.746822 -3.342579 0
M  V30 35 H 2.665473 1.248040 -2.463830 0
M  V30 36 H 0.054531 0.654869 1.382119 0
M  V30 37 H -0.142433 3.613174 0.768429 0
M  V30 38 H -0.427199 3.786280 3.281540 0
M  V30 39 H -0.256786 1.998925 3.390985 0
M  V30 40 H 1.775121 2.466536 3.627304 0
M  V30 41 H -1.853791 0.514644 2.089350 0
M  V30 42 H -4.350495 0.289396 1.917957 0
M  V30 43 H -5.719867 2.106186 1.073278 0
M  V30 44 H -2.209567 4.428558 0.538298 0
M  V30 45 H 0.924223 -1.049244 0.674187 0
M  V30 46 H 3.258497 -5.151150 1.322187 0
M  V30 47 H 2.336939 -6.254307 3.250260 0
M  V30 END ATOM
M  V30 BEGIN BOND
M  V30 1 1 1 2
M  V30 2 2 2 3
M  V30 3 1 3 4
M  V30 4 1 4 5
M  V30 5 2 5 6
M  V30 6 1 6 7
M  V30 7 1 7 8
M  V30 8 2 8 9
M  V30 9 1 9 10
M  V30 10 2 10 11
M  V30 11 1 11 12
M  V30 12 2 12 13
M  V30 13 1 12 14
M  V30 14 1 14 15
M  V30 15 1 15 16
M  V30 16 1 16 17
M  V30 17 1 15 18
M  V30 18 2 18 19
M  V30 19 1 19 20
M  V30 20 2 20 21
M  V30 21 1 21 22
M  V30 22 1 22 23
M  V30 23 2 22 24
M  V30 24 1 11 25
M  V30 25 2 25 26
M  V30 26 2 4 27
M  V30 27 1 27 28
M  V30 28 2 28 29
M  V30 29 1 29 2
M  V30 30 1 26 5
M  V30 31 1 26 8
M  V30 32 1 24 18
M  V30 33 1 1 30
M  V30 34 1 1 31
M  V30 35 1 3 32
M  V30 36 1 7 33
M  V30 37 1 9 34
M  V30 38 1 10 35
M  V30 39 1 14 36
M  V30 40 1 15 37
M  V30 41 1 16 38
M  V30 42 1 16 39
M  V30 43 1 17 40
M  V30 44 1 19 41
M  V30 45 1 20 42
M  V30 46 1 21 43
M  V30 47 1 24 44
M  V30 48 1 25 45
M  V30 49 1 27 46
M  V30 50 1 28 47
M  V30 END BOND
M  V30 END CTAB
M  END
>  <Dataset>  (811) 
ChEMBL_Kinases

>  <Ligand_Instance>  (811) 
nan

>  <PDB_ID>  (811) 
nan

>  <Standardized_SMILES>  (811) 
Nc1cc(-c2n[nH]c3ccc(C(=O)NC(CO)c4cccc(Cl)c4)cc23)ccn1

>  <Name>  (811) 
nan

>  <Pocket>  (811) 
nan

>  <ATP_Site>  (811) 
nan

>  <Peripheral>  (811) 
nan

>  <Num_H_Atoms_ProtBoundConf>  (811) 
nan

>  <Num_Resolved_Atoms>  (811) 
nan

>  <Num_Not_Resolved_Atoms>  (811) 
nan

$$$$
CHEMBL3407846
     RDKit          3D

  0  0  0  0  0  0  0  0  0  0999 V3000
M  V30 BEGIN CTAB
M  V30 COUNTS 53 57 0 0 0
M  V30 BEGIN ATOM
M  V30 1 C 3.446580 -2.453498 6.286521 0
M  V30 2 N 2.384799 -2.129759 5.373607 0
M  V30 3 C 2.417416 -1.330347 4.293735 0
M  V30 4 C 1.170694 -1.266225 3.657361 0
M  V30 5 C 0.892111 -0.462411 2.474340 0
M  V30 6 C -0.112001 0.470291 2.320013 0
M  V30 7 C -0.323131 1.181530 1.158726 0
M  V30 8 C 0.500988 0.969592 0.073552 0
M  V30 9 C 1.510501 0.040533 0.210358 0
M  V30 10 C 1.716463 -0.668760 1.376892 0
M  V30 11 C 2.274390 -0.041174 -1.060306 0
M  V30 12 C 1.598863 0.857146 -2.042303 0
M  V30 13 N 0.557086 1.527306 -1.248234 0
M  V30 14 C -0.280713 2.595722 -1.756123 0
M  V30 15 C -1.272129 2.226149 -2.746243 0
M  V30 16 O -1.696425 3.323252 -3.260899 0
M  V30 17 C -1.886240 1.031539 -3.287359 0
M  V30 18 C -2.786230 1.213040 -4.316347 0
M  V30 19 C -3.417276 0.082965 -4.853650 0
M  V30 20 F -4.308238 0.203903 -5.863778 0
M  V30 21 C -3.164360 -1.186938 -4.385892 0
M  V30 22 C -2.268536 -1.390523 -3.358234 0
M  V30 23 C -1.953476 -2.736197 -2.809192 0
M  V30 24 F -0.579130 -2.787378 -2.654454 0
M  V30 25 F -2.594559 -2.858638 -1.580248 0
M  V30 26 F -2.379057 -3.745462 -3.619174 0
M  V30 27 C -1.671404 -0.260224 -2.858595 0
M  V30 28 C 0.394646 -2.090124 4.442739 0
M  V30 29 C -0.934056 -2.425239 4.304865 0
M  V30 30 N -1.723037 -1.918785 3.243030 0
M  V30 31 N -1.513346 -3.259581 5.183247 0
M  V30 32 C -0.767719 -3.767866 6.209253 0
M  V30 33 N 0.532007 -3.454832 6.363137 0
M  V30 34 C 1.121635 -2.619576 5.487870 0
M  V30 35 H 3.580247 -1.591267 6.997827 0
M  V30 36 H 3.181511 -3.307496 6.929776 0
M  V30 37 H 4.410923 -2.692642 5.817048 0
M  V30 38 H 3.307607 -0.797059 3.955734 0
M  V30 39 H -0.750204 0.648236 3.160638 0
M  V30 40 H -1.127707 1.895148 1.108998 0
M  V30 41 H 2.531216 -1.395268 1.439078 0
M  V30 42 H 2.218460 -1.081045 -1.456700 0
M  V30 43 H 3.334253 0.269796 -0.938869 0
M  V30 44 H 2.306230 1.630427 -2.451946 0
M  V30 45 H 1.112115 0.378728 -2.883673 0
M  V30 46 H -0.833302 3.050876 -0.880350 0
M  V30 47 H 0.386810 3.440468 -2.090762 0
M  V30 48 H -3.085740 2.150884 -4.787205 0
M  V30 49 H -3.666324 -2.036462 -4.821449 0
M  V30 50 H -0.975928 -0.415428 -2.050189 0
M  V30 51 H -1.346330 -2.276382 2.328401 0
M  V30 52 H -2.539716 -1.318653 3.070342 0
M  V30 53 H -1.345168 -4.436270 6.862688 0
M  V30 END ATOM
M  V30 BEGIN BOND
M  V30 1 1 1 2
M  V30 2 1 2 3
M  V30 3 2 3 4
M  V30 4 1 4 5
M  V30 5 2 5 6
M  V30 6 1 6 7
M  V30 7 2 7 8
M  V30 8 1 8 9
M  V30 9 2 9 10
M  V30 10 1 9 11
M  V30 11 1 11 12
M  V30 12 1 12 13
M  V30 13 1 13 14
M  V30 14 1 14 15
M  V30 15 2 15 16
M  V30 16 1 15 17
M  V30 17 2 17 18
M  V30 18 1 18 19
M  V30 19 1 19 20
M  V30 20 2 19 21
M  V30 21 1 21 22
M  V30 22 1 22 23
M  V30 23 1 23 24
M  V30 24 1 23 25
M  V30 25 1 23 26
M  V30 26 2 22 27
M  V30 27 1 4 28
M  V30 28 2 28 29
M  V30 29 1 29 30
M  V30 30 1 29 31
M  V30 31 2 31 32
M  V30 32 1 32 33
M  V30 33 2 33 34
M  V30 34 1 34 2
M  V30 35 1 10 5
M  V30 36 1 27 17
M  V30 37 1 34 28
M  V30 38 1 13 8
M  V30 39 1 1 35
M  V30 40 1 1 36
M  V30 41 1 1 37
M  V30 42 1 3 38
M  V30 43 1 6 39
M  V30 44 1 7 40
M  V30 45 1 10 41
M  V30 46 1 11 42
M  V30 47 1 11 43
M  V30 48 1 12 44
M  V30 49 1 12 45
M  V30 50 1 14 46
M  V30 51 1 14 47
M  V30 52 1 18 48
M  V30 53 1 21 49
M  V30 54 1 27 50
M  V30 55 1 30 51
M  V30 56 1 30 52
M  V30 57 1 32 53
M  V30 END BOND
M  V30 END CTAB
M  END
>  <Dataset>  (812) 
ChEMBL_Kinases

>  <Ligand_Instance>  (812) 
nan

>  <PDB_ID>  (812) 
nan

>  <Standardized_SMILES>  (812) 
Cn1cc(-c2ccc3c(c2)CCN3CC(=O)c2cc(F)cc(C(F)(F)F)c2)c2c(N)ncnc21

>  <Name>  (812) 
nan

>  <Pocket>  (812) 
nan

>  <ATP_Site>  (812) 
nan

>  <Peripheral>  (812) 
nan

>  <Num_H_Atoms_ProtBoundConf>  (812) 
nan

>  <Num_Resolved_Atoms>  (812) 
nan

>  <Num_Not_Resolved_Atoms>  (812) 
nan

$$$$
CHEMBL3407847
     RDKit          3D

  0  0  0  0  0  0  0  0  0  0999 V3000
M  V30 BEGIN CTAB
M  V30 COUNTS 57 60 0 0 0
M  V30 BEGIN ATOM
M  V30 1 C 7.623090 -3.537127 2.069604 0
M  V30 2 N 7.832092 -2.098745 2.047169 0
M  V30 3 C 6.572344 -1.466525 1.799704 0
M  V30 4 N 5.813538 -1.141900 2.884791 0
M  V30 5 C 4.609801 -0.540749 2.713488 0
M  V30 6 C 4.140068 -0.251348 1.442845 0
M  V30 7 C 2.918611 0.360356 1.231627 0
M  V30 8 C 2.503784 0.624087 -0.069639 0
M  V30 9 C 1.184992 1.276389 -0.118861 0
M  V30 10 C 1.023039 2.660434 -0.096442 0
M  V30 11 C 2.267852 3.470406 -0.018845 0
M  V30 12 C -0.231817 3.232331 -0.144355 0
M  V30 13 C -1.358228 2.413462 -0.216445 0
M  V30 14 C -1.166720 1.061974 -0.236729 0
M  V30 15 C -2.314750 0.159611 -0.311659 0
M  V30 16 O -2.122810 -1.097814 -0.329740 0
M  V30 17 N -3.672786 0.557993 -0.368441 0
M  V30 18 C -4.498742 -0.618688 -0.433818 0
M  V30 19 C -4.913490 -1.261847 -1.584648 0
M  V30 20 C -5.708521 -2.386764 -1.484244 0
M  V30 21 C -6.063136 -2.831608 -0.223531 0
M  V30 22 O -6.863355 -3.963951 -0.124375 0
M  V30 23 C -7.335023 -4.686757 -1.248988 0
M  V30 24 C -5.671810 -2.220599 0.951437 0
M  V30 25 C -6.105361 -2.775069 2.265275 0
M  V30 26 F -7.468734 -2.799921 2.398490 0
M  V30 27 F -5.584116 -4.059879 2.466883 0
M  V30 28 F -5.507854 -2.007729 3.269224 0
M  V30 29 C -4.867300 -1.084033 0.812178 0
M  V30 30 C 0.070927 0.447410 -0.190578 0
M  V30 31 N 0.252808 -0.970676 -0.212781 0
M  V30 32 C 3.289148 0.286569 -1.159096 0
M  V30 33 C 4.510160 -0.324701 -0.952613 0
M  V30 34 C 4.925308 -0.588467 0.345972 0
M  V30 35 N 6.131536 -1.192167 0.546275 0
M  V30 36 H 8.562076 -4.069853 2.321929 0
M  V30 37 H 7.310174 -3.823251 1.031180 0
M  V30 38 H 6.784917 -3.819120 2.732495 0
M  V30 39 H 8.681106 -1.505010 2.171993 0
M  V30 40 H 3.997454 -0.278468 3.582280 0
M  V30 41 H 2.367594 0.591072 2.129666 0
M  V30 42 H 2.868803 3.302415 -0.934738 0
M  V30 43 H 2.876260 3.182452 0.855022 0
M  V30 44 H 2.034039 4.557032 0.012154 0
M  V30 45 H -0.345521 4.296291 -0.126601 0
M  V30 46 H -2.315232 2.887996 -0.252149 0
M  V30 47 H -3.872642 1.574629 -0.355956 0
M  V30 48 H -4.573238 -0.821840 -2.512567 0
M  V30 49 H -6.024105 -2.877760 -2.394447 0
M  V30 50 H -6.559511 -4.982607 -1.959365 0
M  V30 51 H -8.099015 -4.100707 -1.827778 0
M  V30 52 H -7.891745 -5.561254 -0.859750 0
M  V30 53 H -4.575970 -0.625677 1.761207 0
M  V30 54 H 0.527456 -1.486713 -1.082400 0
M  V30 55 H 0.118396 -1.556367 0.644007 0
M  V30 56 H 2.868841 0.538133 -2.133933 0
M  V30 57 H 5.107336 -0.579104 -1.830294 0
M  V30 END ATOM
M  V30 BEGIN BOND
M  V30 1 1 1 2
M  V30 2 1 2 3
M  V30 3 2 3 4
M  V30 4 1 4 5
M  V30 5 2 5 6
M  V30 6 1 6 7
M  V30 7 2 7 8
M  V30 8 1 8 9
M  V30 9 2 9 10
M  V30 10 1 10 11
M  V30 11 1 10 12
M  V30 12 2 12 13
M  V30 13 1 13 14
M  V30 14 1 14 15
M  V30 15 2 15 16
M  V30 16 1 15 17
M  V30 17 1 17 18
M  V30 18 2 18 19
M  V30 19 1 19 20
M  V30 20 2 20 21
M  V30 21 1 21 22
M  V30 22 1 22 23
M  V30 23 1 21 24
M  V30 24 1 24 25
M  V30 25 1 25 26
M  V30 26 1 25 27
M  V30 27 1 25 28
M  V30 28 2 24 29
M  V30 29 2 14 30
M  V30 30 1 30 31
M  V30 31 1 8 32
M  V30 32 2 32 33
M  V30 33 1 33 34
M  V30 34 2 34 35
M  V30 35 1 35 3
M  V30 36 1 34 6
M  V30 37 1 30 9
M  V30 38 1 29 18
M  V30 39 1 1 36
M  V30 40 1 1 37
M  V30 41 1 1 38
M  V30 42 1 2 39
M  V30 43 1 5 40
M  V30 44 1 7 41
M  V30 45 1 11 42
M  V30 46 1 11 43
M  V30 47 1 11 44
M  V30 48 1 12 45
M  V30 49 1 13 46
M  V30 50 1 17 47
M  V30 51 1 19 48
M  V30 52 1 20 49
M  V30 53 1 23 50
M  V30 54 1 23 51
M  V30 55 1 23 52
M  V30 56 1 29 53
M  V30 57 1 31 54
M  V30 58 1 31 55
M  V30 59 1 32 56
M  V30 60 1 33 57
M  V30 END BOND
M  V30 END CTAB
M  END
>  <Dataset>  (813) 
ChEMBL_Kinases

>  <Ligand_Instance>  (813) 
nan

>  <PDB_ID>  (813) 
nan

>  <Standardized_SMILES>  (813) 
CNc1ncc2cc(-c3c(C)ccc(C(=O)Nc4ccc(OC)c(C(F)(F)F)c4)c3N)ccc2n1

>  <Name>  (813) 
nan

>  <Pocket>  (813) 
nan

>  <ATP_Site>  (813) 
nan

>  <Peripheral>  (813) 
nan

>  <Num_H_Atoms_ProtBoundConf>  (813) 
nan

>  <Num_Resolved_Atoms>  (813) 
nan

>  <Num_Not_Resolved_Atoms>  (813) 
nan

$$$$
CHEMBL3797917
     RDKit          3D

  0  0  0  0  0  0  0  0  0  0999 V3000
M  V30 BEGIN CTAB
M  V30 COUNTS 43 46 0 0 0
M  V30 BEGIN ATOM
M  V30 1 C -0.881184 -4.767981 1.803846 0
M  V30 2 C 0.617207 -4.617252 1.881959 0
M  V30 3 C 1.253653 -3.663703 1.114343 0
M  V30 4 C 2.641149 -3.479509 1.145834 0
M  V30 5 C 3.237492 -2.446997 0.303773 0
M  V30 6 N 4.345142 -2.624350 -0.457256 0
M  V30 7 N 4.625231 -1.494062 -1.099717 0
M  V30 8 C 3.723568 -0.540526 -0.789927 0
M  V30 9 C 3.523502 0.775525 -1.144027 0
M  V30 10 C 2.447763 1.479201 -0.607833 0
M  V30 11 C 1.544652 0.904240 0.288773 0
M  V30 12 C 0.464357 1.745645 0.775757 0
M  V30 13 O 0.407194 2.907373 0.362214 0
M  V30 14 N -0.520673 1.315164 1.690764 0
M  V30 15 C -1.644285 2.030328 2.260684 0
M  V30 16 C -2.608035 2.525269 1.264007 0
M  V30 17 C -3.378491 1.480060 0.742105 0
M  V30 18 Cl -3.244018 -0.226318 1.183311 0
M  V30 19 C -4.360861 1.726013 -0.215329 0
M  V30 20 N -4.550720 2.993717 -0.626284 0
M  V30 21 C -3.831910 4.021899 -0.148867 0
M  V30 22 Cl -4.027756 5.695656 -0.640900 0
M  V30 23 C -2.858974 3.796961 0.796495 0
M  V30 24 Cl -1.861671 5.027989 1.517024 0
M  V30 25 C 1.795915 -0.411816 0.604231 0
M  V30 26 C 2.849116 -1.137709 0.093192 0
M  V30 27 C 3.364318 -4.316445 2.001701 0
M  V30 28 C 2.669135 -5.249625 2.742749 0
M  V30 29 N 1.347296 -5.411039 2.700215 0
M  V30 30 H -1.289064 -4.013451 2.508005 0
M  V30 31 H -1.233717 -4.604161 0.766023 0
M  V30 32 H -1.187020 -5.762081 2.189530 0
M  V30 33 H 0.607568 -3.062115 0.479608 0
M  V30 34 H 5.436740 -1.352610 -1.761187 0
M  V30 35 H 4.206191 1.252233 -1.837655 0
M  V30 36 H 2.369933 2.511206 -0.944849 0
M  V30 37 H -0.392442 0.301445 1.991765 0
M  V30 38 H -1.235592 2.888901 2.878295 0
M  V30 39 H -2.171752 1.401899 3.000928 0
M  V30 40 H -4.983243 0.960341 -0.650785 0
M  V30 41 H 1.105641 -0.868583 1.297815 0
M  V30 42 H 4.436825 -4.173681 2.025489 0
M  V30 43 H 3.216787 -5.896432 3.402974 0
M  V30 END ATOM
M  V30 BEGIN BOND
M  V30 1 1 1 2
M  V30 2 2 2 3
M  V30 3 1 3 4
M  V30 4 1 4 5
M  V30 5 2 5 6
M  V30 6 1 6 7
M  V30 7 1 7 8
M  V30 8 2 8 9
M  V30 9 1 9 10
M  V30 10 2 10 11
M  V30 11 1 11 12
M  V30 12 2 12 13
M  V30 13 1 12 14
M  V30 14 1 14 15
M  V30 15 1 15 16
M  V30 16 2 16 17
M  V30 17 1 17 18
M  V30 18 1 17 19
M  V30 19 2 19 20
M  V30 20 1 20 21
M  V30 21 1 21 22
M  V30 22 2 21 23
M  V30 23 1 23 24
M  V30 24 1 11 25
M  V30 25 2 25 26
M  V30 26 2 4 27
M  V30 27 1 27 28
M  V30 28 2 28 29
M  V30 29 1 29 2
M  V30 30 1 26 5
M  V30 31 1 26 8
M  V30 32 1 23 16
M  V30 33 1 1 30
M  V30 34 1 1 31
M  V30 35 1 1 32
M  V30 36 1 3 33
M  V30 37 1 7 34
M  V30 38 1 9 35
M  V30 39 1 10 36
M  V30 40 1 14 37
M  V30 41 1 15 38
M  V30 42 1 15 39
M  V30 43 1 19 40
M  V30 44 1 25 41
M  V30 45 1 27 42
M  V30 46 1 28 43
M  V30 END BOND
M  V30 END CTAB
M  END
>  <Dataset>  (814) 
ChEMBL_Kinases

>  <Ligand_Instance>  (814) 
nan

>  <PDB_ID>  (814) 
nan

>  <Standardized_SMILES>  (814) 
Cc1cc(-c2n[nH]c3ccc(C(=O)NCc4c(Cl)cnc(Cl)c4Cl)cc23)ccn1

>  <Name>  (814) 
nan

>  <Pocket>  (814) 
nan

>  <ATP_Site>  (814) 
nan

>  <Peripheral>  (814) 
nan

>  <Num_H_Atoms_ProtBoundConf>  (814) 
nan

>  <Num_Resolved_Atoms>  (814) 
nan

>  <Num_Not_Resolved_Atoms>  (814) 
nan

$$$$
CHEMBL3407848
     RDKit          3D

  0  0  0  0  0  0  0  0  0  0999 V3000
M  V30 BEGIN CTAB
M  V30 COUNTS 70 75 0 0 0
M  V30 BEGIN ATOM
M  V30 1 C 4.213184 -7.637414 3.151503 0
M  V30 2 O 3.635791 -6.703908 2.270331 0
M  V30 3 C 4.132395 -5.402557 2.263395 0
M  V30 4 C 5.162590 -4.992108 3.080766 0
M  V30 5 C 5.652700 -3.686159 3.066306 0
M  V30 6 N 6.654679 -3.266327 3.846783 0
M  V30 7 C 7.068843 -1.974899 3.759646 0
M  V30 8 C 6.446517 -1.119094 2.865994 0
M  V30 9 C 5.394585 -1.524764 2.034290 0
M  V30 10 O 4.903464 -0.547513 1.219774 0
M  V30 11 C 3.644397 -0.019471 1.186173 0
M  V30 12 C 3.513179 0.920813 0.160218 0
M  V30 13 C 2.328660 1.590908 -0.070201 0
M  V30 14 C 1.246070 1.322604 0.736497 0
M  V30 15 N -0.068495 1.907338 0.661151 0
M  V30 16 C -0.919524 1.153981 -0.188838 0
M  V30 17 O -0.255488 0.187626 -0.626302 0
M  V30 18 C -2.281771 1.521971 -0.434421 0
M  V30 19 C -3.147514 0.816543 -1.201641 0
M  V30 20 C -3.059309 -0.433895 -1.941443 0
M  V30 21 C -3.513460 -0.464656 -3.261884 0
M  V30 22 C -3.489833 -1.586792 -4.045342 0
M  V30 23 C -2.997540 -2.767992 -3.535182 0
M  V30 24 C -2.543742 -2.784091 -2.250648 0
M  V30 25 C -2.578881 -1.642311 -1.484906 0
M  V30 26 N -4.333803 1.493609 -1.204921 0
M  V30 27 C -5.594032 1.177566 -1.864534 0
M  V30 28 N -4.208731 2.581768 -0.464735 0
M  V30 29 C -5.215991 3.574242 -0.201915 0
M  V30 30 C -5.836266 3.524598 1.036817 0
M  V30 31 C -6.826188 4.443681 1.389083 0
M  V30 32 C -7.183542 5.424187 0.459944 0
M  V30 33 C -6.570199 5.480380 -0.776643 0
M  V30 34 C -5.585503 4.561517 -1.119421 0
M  V30 35 C -2.938330 2.634049 0.034589 0
M  V30 36 O -2.533715 3.564963 0.776969 0
M  V30 37 N 1.369590 0.420488 1.721909 0
M  V30 38 C 2.509781 -0.244509 1.966880 0
M  V30 39 C 5.024052 -2.852612 2.174250 0
M  V30 40 C 3.995529 -3.232935 1.347078 0
M  V30 41 C 3.530958 -4.531686 1.383007 0
M  V30 42 O 2.498250 -4.938330 0.562284 0
M  V30 43 C 1.919732 -3.999583 -0.322895 0
M  V30 44 H 3.506119 -8.493842 3.245214 0
M  V30 45 H 4.312859 -7.232773 4.182513 0
M  V30 46 H 5.181618 -8.007825 2.766504 0
M  V30 47 H 5.613407 -5.709493 3.765288 0
M  V30 48 H 7.880179 -1.632686 4.389661 0
M  V30 49 H 6.839812 -0.093512 2.855926 0
M  V30 50 H 4.300945 1.219698 -0.547196 0
M  V30 51 H 2.150310 2.327959 -0.839051 0
M  V30 52 H -0.386148 2.787862 1.166575 0
M  V30 53 H -3.922558 0.399554 -3.780775 0
M  V30 54 H -3.837801 -1.621494 -5.066189 0
M  V30 55 H -2.953912 -3.688075 -4.109691 0
M  V30 56 H -2.135624 -3.678628 -1.762810 0
M  V30 57 H -2.224168 -1.664829 -0.464647 0
M  V30 58 H -6.448113 1.287719 -1.131553 0
M  V30 59 H -5.662740 0.110365 -2.170953 0
M  V30 60 H -5.745136 1.778269 -2.784194 0
M  V30 61 H -5.615903 2.802076 1.801645 0
M  V30 62 H -7.360760 4.489869 2.312934 0
M  V30 63 H -7.941435 6.171044 0.658491 0
M  V30 64 H -6.838094 6.237546 -1.511185 0
M  V30 65 H -5.070095 4.566054 -2.089483 0
M  V30 66 H 2.712315 -0.983463 2.728028 0
M  V30 67 H 3.518531 -2.566136 0.647526 0
M  V30 68 H 1.032114 -4.524879 -0.783825 0
M  V30 69 H 1.605489 -3.073348 0.167413 0
M  V30 70 H 2.607470 -3.790583 -1.187422 0
M  V30 END ATOM
M  V30 BEGIN BOND
M  V30 1 1 1 2
M  V30 2 1 2 3
M  V30 3 2 3 4
M  V30 4 1 4 5
M  V30 5 2 5 6
M  V30 6 1 6 7
M  V30 7 2 7 8
M  V30 8 1 8 9
M  V30 9 1 9 10
M  V30 10 1 10 11
M  V30 11 2 11 12
M  V30 12 1 12 13
M  V30 13 2 13 14
M  V30 14 1 14 15
M  V30 15 1 15 16
M  V30 16 2 16 17
M  V30 17 1 16 18
M  V30 18 2 18 19
M  V30 19 1 19 20
M  V30 20 2 20 21
M  V30 21 1 21 22
M  V30 22 2 22 23
M  V30 23 1 23 24
M  V30 24 2 24 25
M  V30 25 1 19 26
M  V30 26 1 26 27
M  V30 27 1 26 28
M  V30 28 1 28 29
M  V30 29 2 29 30
M  V30 30 1 30 31
M  V30 31 2 31 32
M  V30 32 1 32 33
M  V30 33 2 33 34
M  V30 34 1 28 35
M  V30 35 2 35 36
M  V30 36 1 14 37
M  V30 37 2 37 38
M  V30 38 2 9 39
M  V30 39 1 39 40
M  V30 40 2 40 41
M  V30 41 1 41 42
M  V30 42 1 42 43
M  V30 43 1 41 3
M  V30 44 1 39 5
M  V30 45 1 38 11
M  V30 46 1 35 18
M  V30 47 1 25 20
M  V30 48 1 34 29
M  V30 49 1 1 44
M  V30 50 1 1 45
M  V30 51 1 1 46
M  V30 52 1 4 47
M  V30 53 1 7 48
M  V30 54 1 8 49
M  V30 55 1 12 50
M  V30 56 1 13 51
M  V30 57 1 15 52
M  V30 58 1 21 53
M  V30 59 1 22 54
M  V30 60 1 23 55
M  V30 61 1 24 56
M  V30 62 1 25 57
M  V30 63 1 27 58
M  V30 64 1 27 59
M  V30 65 1 27 60
M  V30 66 1 30 61
M  V30 67 1 31 62
M  V30 68 1 32 63
M  V30 69 1 33 64
M  V30 70 1 34 65
M  V30 71 1 38 66
M  V30 72 1 40 67
M  V30 73 1 43 68
M  V30 74 1 43 69
M  V30 75 1 43 70
M  V30 END BOND
M  V30 END CTAB
M  END
>  <Dataset>  (815) 
ChEMBL_Kinases

>  <Ligand_Instance>  (815) 
nan

>  <PDB_ID>  (815) 
nan

>  <Standardized_SMILES>  (815) 
COc1cc2nccc(Oc3ccc(NC(=O)c4c(-c5ccccc5)n(C)n(-c5ccccc5)c4=O)nc3)c2cc1OC

>  <Name>  (815) 
nan

>  <Pocket>  (815) 
nan

>  <ATP_Site>  (815) 
nan

>  <Peripheral>  (815) 
nan

>  <Num_H_Atoms_ProtBoundConf>  (815) 
nan

>  <Num_Resolved_Atoms>  (815) 
nan

>  <Num_Not_Resolved_Atoms>  (815) 
nan

$$$$
CHEMBL3407849
     RDKit          3D

  0  0  0  0  0  0  0  0  0  0999 V3000
M  V30 BEGIN CTAB
M  V30 COUNTS 68 73 0 0 0
M  V30 BEGIN ATOM
M  V30 1 C 6.901390 -4.694541 6.775672 0
M  V30 2 N 6.899841 -4.121250 5.430056 0
M  V30 3 C 5.597118 -3.800363 4.915814 0
M  V30 4 N 4.506451 -4.016583 5.671737 0
M  V30 5 C 3.260776 -3.725671 5.204670 0
M  V30 6 C 3.107732 -3.201461 3.938743 0
M  V30 7 C 1.895875 -2.873212 3.359988 0
M  V30 8 C 1.826009 -2.349363 2.066570 0
M  V30 9 C 2.990598 -2.141213 1.316180 0
M  V30 10 O 2.675578 -1.623627 0.080821 0
M  V30 11 C 2.473856 -0.282223 -0.169713 0
M  V30 12 C 1.190022 -0.018184 -0.662888 0
M  V30 13 C 0.672332 1.213153 -1.010510 0
M  V30 14 C -0.650557 1.550996 -1.497546 0
M  V30 15 O -0.695916 2.612950 -2.219142 0
M  V30 16 C -1.936558 0.909714 -1.321777 0
M  V30 17 C -3.013981 1.167068 -2.126674 0
M  V30 18 C -3.208662 1.991569 -3.313847 0
M  V30 19 C -2.275999 1.839793 -4.339904 0
M  V30 20 C -2.335309 2.568335 -5.506410 0
M  V30 21 C -3.359136 3.491711 -5.677737 0
M  V30 22 C -4.299063 3.656419 -4.664919 0
M  V30 23 C -4.216558 2.914146 -3.506611 0
M  V30 24 N -4.056683 0.427621 -1.643456 0
M  V30 25 C -5.422041 0.360671 -2.167865 0
M  V30 26 N -3.712375 -0.282057 -0.585758 0
M  V30 27 C -4.497948 -1.170657 0.197933 0
M  V30 28 C -3.860722 -2.365107 0.549310 0
M  V30 29 C -4.499421 -3.336372 1.315460 0
M  V30 30 C -5.810020 -3.062149 1.718178 0
M  V30 31 C -6.476639 -1.880364 1.385457 0
M  V30 32 C -5.790877 -0.956629 0.624358 0
M  V30 33 C -2.396798 0.014421 -0.382848 0
M  V30 34 O -1.754185 -0.501924 0.562666 0
M  V30 35 C 1.593195 2.252898 -0.820822 0
M  V30 36 C 2.854478 2.068476 -0.346330 0
M  V30 37 C 3.294526 0.809432 -0.022056 0
M  V30 38 C 4.646764 0.487333 0.499930 0
M  V30 39 C 4.192321 -2.471692 1.902756 0
M  V30 40 C 4.245497 -2.987365 3.178601 0
M  V30 41 N 5.476347 -3.283241 3.661494 0
M  V30 42 H 7.896954 -4.678032 7.245537 0
M  V30 43 H 6.181341 -4.136663 7.395808 0
M  V30 44 H 6.518424 -5.737577 6.681643 0
M  V30 45 H 7.732646 -3.933179 4.836567 0
M  V30 46 H 2.360630 -3.891321 5.796812 0
M  V30 47 H 0.999052 -3.041441 3.958415 0
M  V30 48 H 0.796622 -2.138646 1.744992 0
M  V30 49 H 0.476777 -0.841191 -0.827415 0
M  V30 50 H -1.422098 1.156849 -4.371353 0
M  V30 51 H -1.658084 2.508314 -6.336366 0
M  V30 52 H -3.447017 4.090449 -6.580773 0
M  V30 53 H -5.086647 4.376618 -4.811980 0
M  V30 54 H -4.936643 3.018955 -2.695213 0
M  V30 55 H -5.855168 -0.642797 -1.976976 0
M  V30 56 H -6.081739 1.142056 -1.738706 0
M  V30 57 H -5.370686 0.438634 -3.279124 0
M  V30 58 H -2.840979 -2.631579 0.262911 0
M  V30 59 H -4.027029 -4.257077 1.594323 0
M  V30 60 H -6.297724 -3.842647 2.323594 0
M  V30 61 H -7.488712 -1.702174 1.713971 0
M  V30 62 H -6.250900 -0.031167 0.338306 0
M  V30 63 H 1.346199 3.295238 -1.048973 0
M  V30 64 H 3.555549 2.892438 -0.206286 0
M  V30 65 H 5.149279 -0.299934 -0.063032 0
M  V30 66 H 5.246953 1.436575 0.352948 0
M  V30 67 H 4.632561 0.358213 1.602002 0
M  V30 68 H 5.021960 -2.281233 1.253552 0
M  V30 END ATOM
M  V30 BEGIN BOND
M  V30 1 1 1 2
M  V30 2 1 2 3
M  V30 3 2 3 4
M  V30 4 1 4 5
M  V30 5 2 5 6
M  V30 6 1 6 7
M  V30 7 2 7 8
M  V30 8 1 8 9
M  V30 9 1 9 10
M  V30 10 1 10 11
M  V30 11 2 11 12
M  V30 12 1 12 13
M  V30 13 1 13 14
M  V30 14 2 14 15
M  V30 15 1 14 16
M  V30 16 2 16 17
M  V30 17 1 17 18
M  V30 18 2 18 19
M  V30 19 1 19 20
M  V30 20 2 20 21
M  V30 21 1 21 22
M  V30 22 2 22 23
M  V30 23 1 17 24
M  V30 24 1 24 25
M  V30 25 1 24 26
M  V30 26 1 26 27
M  V30 27 2 27 28
M  V30 28 1 28 29
M  V30 29 2 29 30
M  V30 30 1 30 31
M  V30 31 2 31 32
M  V30 32 1 26 33
M  V30 33 2 33 34
M  V30 34 2 13 35
M  V30 35 1 35 36
M  V30 36 2 36 37
M  V30 37 1 37 38
M  V30 38 2 9 39
M  V30 39 1 39 40
M  V30 40 2 40 41
M  V30 41 1 41 3
M  V30 42 1 40 6
M  V30 43 1 37 11
M  V30 44 1 33 16
M  V30 45 1 23 18
M  V30 46 1 32 27
M  V30 47 1 1 42
M  V30 48 1 1 43
M  V30 49 1 1 44
M  V30 50 1 2 45
M  V30 51 1 5 46
M  V30 52 1 7 47
M  V30 53 1 8 48
M  V30 54 1 12 49
M  V30 55 1 19 50
M  V30 56 1 20 51
M  V30 57 1 21 52
M  V30 58 1 22 53
M  V30 59 1 23 54
M  V30 60 1 25 55
M  V30 61 1 25 56
M  V30 62 1 25 57
M  V30 63 1 28 58
M  V30 64 1 29 59
M  V30 65 1 30 60
M  V30 66 1 31 61
M  V30 67 1 32 62
M  V30 68 1 35 63
M  V30 69 1 36 64
M  V30 70 1 38 65
M  V30 71 1 38 66
M  V30 72 1 38 67
M  V30 73 1 39 68
M  V30 END BOND
M  V30 END CTAB
M  END
>  <Dataset>  (816) 
ChEMBL_Kinases

>  <Ligand_Instance>  (816) 
nan

>  <PDB_ID>  (816) 
nan

>  <Standardized_SMILES>  (816) 
CNc1ncc2ccc(Oc3cc(C(=O)c4c(-c5ccccc5)n(C)n(-c5ccccc5)c4=O)ccc3C)cc2n1

>  <Name>  (816) 
nan

>  <Pocket>  (816) 
nan

>  <ATP_Site>  (816) 
nan

>  <Peripheral>  (816) 
nan

>  <Num_H_Atoms_ProtBoundConf>  (816) 
nan

>  <Num_Resolved_Atoms>  (816) 
nan

>  <Num_Not_Resolved_Atoms>  (816) 
nan

$$$$
CHEMBL3809940
     RDKit          3D

  0  0  0  0  0  0  0  0  0  0999 V3000
M  V30 BEGIN CTAB
M  V30 COUNTS 48 52 0 0 0
M  V30 BEGIN ATOM
M  V30 1 C -0.481832 -4.311297 2.206249 0
M  V30 2 C 0.314782 -3.392670 1.393937 0
M  V30 3 C 1.581948 -2.980495 1.447417 0
M  V30 4 C 2.407913 -2.076249 0.657924 0
M  V30 5 C 2.826114 -0.897723 1.522934 0 CFG=1
M  V30 6 C 4.305154 -0.743495 1.629715 0
M  V30 7 N 4.823360 0.135289 0.626545 0
M  V30 8 C 4.159105 1.209448 -0.023397 0
M  V30 9 O 4.721876 2.107952 -0.713717 0
M  V30 10 C 2.709866 1.297628 0.106198 0
M  V30 11 C 1.672757 2.104514 -0.311944 0
M  V30 12 C 0.522688 1.559970 0.212491 0
M  V30 13 N 0.855020 0.470798 0.920649 0
M  V30 14 C 2.180949 0.285933 0.869865 0
M  V30 15 C -0.845937 2.006232 0.025732 0
M  V30 16 C -1.215527 3.286241 -0.312209 0
M  V30 17 C -2.579053 3.562568 -0.480156 0
M  V30 18 C -3.605904 2.621586 -0.327630 0
M  V30 19 C -3.216542 1.327472 0.015784 0
M  V30 20 N -4.206516 0.431169 0.171275 0
M  V30 21 C -3.851039 -0.846405 0.521919 0
M  V30 22 C -4.490483 -2.129244 0.816920 0
M  V30 23 C -2.521629 -1.096751 0.681610 0
M  V30 24 N -1.604061 -0.131367 0.502073 0
M  V30 25 C -1.864155 1.121729 0.165702 0
M  V30 26 N -1.604722 -2.109955 1.028193 0
M  V30 27 C -0.475753 -2.743508 0.322709 0
M  V30 28 H 0.245898 -4.828803 2.898674 0
M  V30 29 H -1.150239 -3.749442 2.887571 0
M  V30 30 H -1.035838 -5.064343 1.625885 0
M  V30 31 H 2.075853 -3.457624 2.295467 0
M  V30 32 H 3.361617 -2.608071 0.295218 0
M  V30 33 H 1.980717 -1.687087 -0.260260 0
M  V30 34 H 2.362426 -1.003057 2.504500 0
M  V30 35 H 4.530519 -0.276266 2.631940 0
M  V30 36 H 4.840514 -1.717388 1.664571 0
M  V30 37 H 5.827439 -0.012532 0.310697 0
M  V30 38 H 1.804591 2.980055 -0.929519 0
M  V30 39 H 0.355389 -0.236340 1.497380 0
M  V30 40 H -0.443754 4.030788 -0.436543 0
M  V30 41 H -2.890181 4.585532 -0.751527 0
M  V30 42 H -4.634264 2.884788 -0.467860 0
M  V30 43 H -5.607167 -2.045001 0.738506 0
M  V30 44 H -4.265289 -2.469882 1.870637 0
M  V30 45 H -4.202797 -2.886253 0.057646 0
M  V30 46 H -2.105446 -2.205097 1.964837 0
M  V30 47 H 0.000340 -1.938672 -0.214858 0
M  V30 48 H -0.824679 -3.531887 -0.365023 0
M  V30 END ATOM
M  V30 BEGIN BOND
M  V30 1 1 1 2
M  V30 2 2 2 3
M  V30 3 1 3 4
M  V30 4 1 4 5
M  V30 5 1 5 6
M  V30 6 1 6 7
M  V30 7 1 7 8
M  V30 8 2 8 9
M  V30 9 1 8 10
M  V30 10 1 10 11
M  V30 11 2 11 12
M  V30 12 1 12 13
M  V30 13 1 13 14
M  V30 14 1 12 15
M  V30 15 2 15 16
M  V30 16 1 16 17
M  V30 17 2 17 18
M  V30 18 1 18 19
M  V30 19 2 19 20
M  V30 20 1 20 21
M  V30 21 1 21 22
M  V30 22 2 21 23
M  V30 23 1 23 24
M  V30 24 2 24 25
M  V30 25 1 23 26
M  V30 26 1 26 27
M  V30 27 1 27 2
M  V30 28 1 14 5
M  V30 29 1 25 15
M  V30 30 2 14 10
M  V30 31 1 25 19
M  V30 32 1 1 28
M  V30 33 1 1 29
M  V30 34 1 1 30
M  V30 35 1 3 31
M  V30 36 1 4 32
M  V30 37 1 4 33
M  V30 38 1 5 34 CFG=1
M  V30 39 1 6 35
M  V30 40 1 6 36
M  V30 41 1 7 37
M  V30 42 1 11 38
M  V30 43 1 13 39
M  V30 44 1 16 40
M  V30 45 1 17 41
M  V30 46 1 18 42
M  V30 47 1 22 43
M  V30 48 1 22 44
M  V30 49 1 22 45
M  V30 50 1 26 46
M  V30 51 1 27 47
M  V30 52 1 27 48
M  V30 END BOND
M  V30 END CTAB
M  END
>  <Dataset>  (817) 
ChEMBL_Kinases

>  <Ligand_Instance>  (817) 
nan

>  <PDB_ID>  (817) 
nan

>  <Standardized_SMILES>  (817) 
C/C1=C/C[C@H]2CNC(=O)c3cc([nH]c32)-c2cccc3nc(C)c(nc23)NC1

>  <Name>  (817) 
nan

>  <Pocket>  (817) 
nan

>  <ATP_Site>  (817) 
nan

>  <Peripheral>  (817) 
nan

>  <Num_H_Atoms_ProtBoundConf>  (817) 
nan

>  <Num_Resolved_Atoms>  (817) 
nan

>  <Num_Not_Resolved_Atoms>  (817) 
nan

$$$$
CHEMBL3407851
     RDKit          3D

  0  0  0  0  0  0  0  0  0  0999 V3000
M  V30 BEGIN CTAB
M  V30 COUNTS 65 70 0 0 0
M  V30 BEGIN ATOM
M  V30 1 C 5.293614 -0.532042 8.551400 0
M  V30 2 N 5.914097 -1.427171 7.601537 0
M  V30 3 C 5.555958 -1.382284 6.228986 0
M  V30 4 N 6.173608 -2.247779 5.381682 0
M  V30 5 C 5.854505 -2.227326 4.077361 0
M  V30 6 C 4.898187 -1.314097 3.646305 0
M  V30 7 C 4.583896 -1.308314 2.297519 0
M  V30 8 C 3.617747 -0.375068 1.899773 0
M  V30 9 C 2.981884 0.509641 2.743089 0
M  V30 10 O 2.038578 1.392553 2.235309 0
M  V30 11 C 1.876581 1.447700 0.860721 0
M  V30 12 C 0.726629 1.139730 0.181253 0
M  V30 13 C 0.535810 1.183800 -1.176170 0
M  V30 14 C -0.666299 0.809864 -1.881182 0
M  V30 15 O -0.719980 1.477173 -2.961302 0
M  V30 16 C -1.737975 -0.094494 -1.639628 0
M  V30 17 C -2.779898 -0.165778 -2.563718 0
M  V30 18 C -3.124349 0.416639 -3.868585 0
M  V30 19 C -2.347568 0.434670 -5.006087 0
M  V30 20 C -2.758684 1.038556 -6.175163 0
M  V30 21 C -3.994741 1.652299 -6.223371 0
M  V30 22 C -4.819449 1.667731 -5.119808 0
M  V30 23 C -4.360063 1.049203 -3.974392 0
M  V30 24 N -3.675238 -1.079882 -2.094500 0
M  V30 25 C -4.936624 -1.533767 -2.661983 0
M  V30 26 N -3.288346 -1.603767 -0.941656 0
M  V30 27 C -3.917871 -2.580175 -0.116012 0
M  V30 28 C -3.447089 -3.833827 0.208581 0
M  V30 29 C -4.235557 -4.614780 1.036238 0
M  V30 30 C -5.444553 -4.163353 1.520626 0
M  V30 31 C -5.929044 -2.892843 1.196217 0
M  V30 32 C -5.141812 -2.109657 0.367978 0
M  V30 33 C -2.118593 -1.000836 -0.679845 0
M  V30 34 O -1.446378 -1.252240 0.345686 0
M  V30 35 C 1.691755 1.598836 -1.841211 0
M  V30 36 C 2.879547 1.924814 -1.232926 0
M  V30 37 C 2.978812 1.850122 0.137268 0
M  V30 38 Cl 4.533152 2.302407 0.801968 0
M  V30 39 C 3.323097 0.476719 4.098067 0
M  V30 40 C 4.272668 -0.437279 4.505265 0
M  V30 41 N 4.637478 -0.505235 5.813698 0
M  V30 42 H 6.013781 -0.344285 9.367534 0
M  V30 43 H 5.009181 0.428912 8.095186 0
M  V30 44 H 4.376279 -0.968502 9.015436 0
M  V30 45 H 6.633596 -2.107968 7.962894 0
M  V30 46 H 6.348159 -2.920050 3.401366 0
M  V30 47 H 5.069791 -1.990918 1.629441 0
M  V30 48 H 3.426840 -0.447896 0.823769 0
M  V30 49 H -0.057734 0.866890 0.863761 0
M  V30 50 H -1.397348 -0.052522 -4.993881 0
M  V30 51 H -2.096442 1.014003 -7.030804 0
M  V30 52 H -4.248187 2.102406 -7.168823 0
M  V30 53 H -5.785999 2.154509 -5.178375 0
M  V30 54 H -5.068550 1.101295 -3.138547 0
M  V30 55 H -4.974128 -2.635937 -2.582469 0
M  V30 56 H -5.817573 -1.033262 -2.245147 0
M  V30 57 H -4.951814 -1.323179 -3.758870 0
M  V30 58 H -2.497601 -4.085087 -0.221592 0
M  V30 59 H -3.840438 -5.600608 1.277682 0
M  V30 60 H -6.046453 -4.798184 2.170988 0
M  V30 61 H -6.880594 -2.582229 1.598435 0
M  V30 62 H -5.587011 -1.149243 0.168506 0
M  V30 63 H 1.655567 1.672083 -2.937951 0
M  V30 64 H 3.724732 2.240228 -1.866150 0
M  V30 65 H 2.833386 1.161278 4.773410 0
M  V30 END ATOM
M  V30 BEGIN BOND
M  V30 1 1 1 2
M  V30 2 1 2 3
M  V30 3 2 3 4
M  V30 4 1 4 5
M  V30 5 2 5 6
M  V30 6 1 6 7
M  V30 7 2 7 8
M  V30 8 1 8 9
M  V30 9 1 9 10
M  V30 10 1 10 11
M  V30 11 2 11 12
M  V30 12 1 12 13
M  V30 13 1 13 14
M  V30 14 2 14 15
M  V30 15 1 14 16
M  V30 16 2 16 17
M  V30 17 1 17 18
M  V30 18 2 18 19
M  V30 19 1 19 20
M  V30 20 2 20 21
M  V30 21 1 21 22
M  V30 22 2 22 23
M  V30 23 1 17 24
M  V30 24 1 24 25
M  V30 25 1 24 26
M  V30 26 1 26 27
M  V30 27 2 27 28
M  V30 28 1 28 29
M  V30 29 2 29 30
M  V30 30 1 30 31
M  V30 31 2 31 32
M  V30 32 1 26 33
M  V30 33 2 33 34
M  V30 34 2 13 35
M  V30 35 1 35 36
M  V30 36 2 36 37
M  V30 37 1 37 38
M  V30 38 2 9 39
M  V30 39 1 39 40
M  V30 40 2 40 41
M  V30 41 1 41 3
M  V30 42 1 40 6
M  V30 43 1 37 11
M  V30 44 1 33 16
M  V30 45 1 23 18
M  V30 46 1 32 27
M  V30 47 1 1 42
M  V30 48 1 1 43
M  V30 49 1 1 44
M  V30 50 1 2 45
M  V30 51 1 5 46
M  V30 52 1 7 47
M  V30 53 1 8 48
M  V30 54 1 12 49
M  V30 55 1 19 50
M  V30 56 1 20 51
M  V30 57 1 21 52
M  V30 58 1 22 53
M  V30 59 1 23 54
M  V30 60 1 25 55
M  V30 61 1 25 56
M  V30 62 1 25 57
M  V30 63 1 28 58
M  V30 64 1 29 59
M  V30 65 1 30 60
M  V30 66 1 31 61
M  V30 67 1 32 62
M  V30 68 1 35 63
M  V30 69 1 36 64
M  V30 70 1 39 65
M  V30 END BOND
M  V30 END CTAB
M  END
>  <Dataset>  (818) 
ChEMBL_Kinases

>  <Ligand_Instance>  (818) 
nan

>  <PDB_ID>  (818) 
nan

>  <Standardized_SMILES>  (818) 
CNc1ncc2ccc(Oc3cc(C(=O)c4c(-c5ccccc5)n(C)n(-c5ccccc5)c4=O)ccc3Cl)cc2n1

>  <Name>  (818) 
nan

>  <Pocket>  (818) 
nan

>  <ATP_Site>  (818) 
nan

>  <Peripheral>  (818) 
nan

>  <Num_H_Atoms_ProtBoundConf>  (818) 
nan

>  <Num_Resolved_Atoms>  (818) 
nan

>  <Num_Not_Resolved_Atoms>  (818) 
nan

$$$$
CHEMBL3407852
     RDKit          3D

  0  0  0  0  0  0  0  0  0  0999 V3000
M  V30 BEGIN CTAB
M  V30 COUNTS 70 75 0 0 0
M  V30 BEGIN ATOM
M  V30 1 C 5.095479 -1.189859 4.088783 0
M  V30 2 N 6.058740 -2.031155 3.403563 0
M  V30 3 C 6.097177 -2.320331 2.027697 0
M  V30 4 N 7.053022 -3.128676 1.489149 0
M  V30 5 C 7.017020 -3.354599 0.157350 0
M  V30 6 C 6.029230 -2.769184 -0.604284 0
M  V30 7 C 5.949121 -2.967755 -1.963131 0
M  V30 8 F 6.862495 -3.754935 -2.555555 0
M  V30 9 C 4.970455 -2.389122 -2.724502 0
M  V30 10 C 4.011559 -1.572522 -2.154434 0
M  V30 11 O 2.979672 -0.946388 -2.872614 0
M  V30 12 C 2.051227 -0.137757 -2.232335 0
M  V30 13 C 2.372289 1.196972 -2.140740 0
M  V30 14 C 3.643454 1.717908 -2.701228 0
M  V30 15 C 1.511615 2.076885 -1.522320 0
M  V30 16 C 0.354390 1.535415 -1.024977 0
M  V30 17 C -0.043105 0.221697 -1.071879 0
M  V30 18 C -1.251264 -0.393760 -0.585690 0
M  V30 19 O -1.367409 -1.622816 -0.943600 0
M  V30 20 C -2.376667 0.021239 0.208030 0
M  V30 21 C -3.566008 -0.686393 0.175974 0
M  V30 22 C -4.071034 -1.854108 -0.573665 0
M  V30 23 C -3.986793 -2.049262 -1.935389 0
M  V30 24 C -4.489626 -3.197045 -2.510434 0
M  V30 25 C -5.092292 -4.191336 -1.767986 0
M  V30 26 C -5.189104 -4.019916 -0.405502 0
M  V30 27 C -4.680253 -2.865602 0.151207 0
M  V30 28 N -4.421443 -0.081147 1.054190 0
M  V30 29 C -5.800494 -0.461548 1.371719 0
M  V30 30 N -3.867595 0.961665 1.645857 0
M  V30 31 C -4.448526 1.828755 2.610479 0
M  V30 32 C -5.441625 2.760224 2.392948 0
M  V30 33 C -5.895840 3.526794 3.446740 0
M  V30 34 C -5.351170 3.350345 4.698612 0
M  V30 35 C -4.356416 2.424784 4.941763 0
M  V30 36 C -3.907592 1.657418 3.866982 0
M  V30 37 C -2.631616 1.012483 1.125947 0
M  V30 38 O -1.837177 1.909341 1.494097 0
M  V30 39 C 0.852268 -0.634800 -1.704328 0
M  V30 40 N 0.715548 -2.055695 -1.906850 0
M  V30 41 C 4.071053 -1.354700 -0.774401 0
M  V30 42 C 5.072438 -1.953255 -0.029485 0
M  V30 43 N 5.121696 -1.738075 1.297291 0
M  V30 44 H 5.579970 -0.207975 4.283076 0
M  V30 45 H 4.777556 -1.591328 5.062441 0
M  V30 46 H 4.211891 -0.971533 3.467167 0
M  V30 47 H 6.769469 -2.429771 4.069919 0
M  V30 48 H 7.755259 -3.990035 -0.317068 0
M  V30 49 H 4.924132 -2.557294 -3.791417 0
M  V30 50 H 4.482656 1.642059 -1.979308 0
M  V30 51 H 3.553123 2.790274 -2.948974 0
M  V30 52 H 3.891787 1.212331 -3.662595 0
M  V30 53 H 1.733031 3.123277 -1.434792 0
M  V30 54 H -0.306918 2.233150 -0.565480 0
M  V30 55 H -3.527707 -1.277077 -2.520225 0
M  V30 56 H -4.400003 -3.306937 -3.588528 0
M  V30 57 H -5.456472 -5.057010 -2.313809 0
M  V30 58 H -5.661665 -4.808199 0.142609 0
M  V30 59 H -4.818926 -2.849431 1.243493 0
M  V30 60 H -6.413651 0.470389 1.511515 0
M  V30 61 H -6.271526 -1.035354 0.575631 0
M  V30 62 H -5.832948 -0.975069 2.343656 0
M  V30 63 H -5.786054 2.807063 1.382008 0
M  V30 64 H -6.672970 4.247676 3.249435 0
M  V30 65 H -5.701315 3.949914 5.540311 0
M  V30 66 H -3.948616 2.313943 5.951088 0
M  V30 67 H -3.129466 0.954052 4.127076 0
M  V30 68 H 0.380839 -2.472715 -2.814874 0
M  V30 69 H 0.976825 -2.600429 -1.080859 0
M  V30 70 H 3.356568 -0.728480 -0.256040 0
M  V30 END ATOM
M  V30 BEGIN BOND
M  V30 1 1 1 2
M  V30 2 1 2 3
M  V30 3 2 3 4
M  V30 4 1 4 5
M  V30 5 2 5 6
M  V30 6 1 6 7
M  V30 7 1 7 8
M  V30 8 2 7 9
M  V30 9 1 9 10
M  V30 10 1 10 11
M  V30 11 1 11 12
M  V30 12 2 12 13
M  V30 13 1 13 14
M  V30 14 1 13 15
M  V30 15 2 15 16
M  V30 16 1 16 17
M  V30 17 1 17 18
M  V30 18 2 18 19
M  V30 19 1 18 20
M  V30 20 2 20 21
M  V30 21 1 21 22
M  V30 22 2 22 23
M  V30 23 1 23 24
M  V30 24 2 24 25
M  V30 25 1 25 26
M  V30 26 2 26 27
M  V30 27 1 21 28
M  V30 28 1 28 29
M  V30 29 1 28 30
M  V30 30 1 30 31
M  V30 31 2 31 32
M  V30 32 1 32 33
M  V30 33 2 33 34
M  V30 34 1 34 35
M  V30 35 2 35 36
M  V30 36 1 30 37
M  V30 37 2 37 38
M  V30 38 2 17 39
M  V30 39 1 39 40
M  V30 40 2 10 41
M  V30 41 1 41 42
M  V30 42 2 42 43
M  V30 43 1 43 3
M  V30 44 1 42 6
M  V30 45 1 39 12
M  V30 46 1 37 20
M  V30 47 1 27 22
M  V30 48 1 36 31
M  V30 49 1 1 44
M  V30 50 1 1 45
M  V30 51 1 1 46
M  V30 52 1 2 47
M  V30 53 1 5 48
M  V30 54 1 9 49
M  V30 55 1 14 50
M  V30 56 1 14 51
M  V30 57 1 14 52
M  V30 58 1 15 53
M  V30 59 1 16 54
M  V30 60 1 23 55
M  V30 61 1 24 56
M  V30 62 1 25 57
M  V30 63 1 26 58
M  V30 64 1 27 59
M  V30 65 1 29 60
M  V30 66 1 29 61
M  V30 67 1 29 62
M  V30 68 1 32 63
M  V30 69 1 33 64
M  V30 70 1 34 65
M  V30 71 1 35 66
M  V30 72 1 36 67
M  V30 73 1 40 68
M  V30 74 1 40 69
M  V30 75 1 41 70
M  V30 END BOND
M  V30 END CTAB
M  END
>  <Dataset>  (819) 
ChEMBL_Kinases

>  <Ligand_Instance>  (819) 
nan

>  <PDB_ID>  (819) 
nan

>  <Standardized_SMILES>  (819) 
CNc1ncc2c(F)cc(Oc3c(C)ccc(C(=O)c4c(-c5ccccc5)n(C)n(-c5ccccc5)c4=O)c3N)cc2n1

>  <Name>  (819) 
nan

>  <Pocket>  (819) 
nan

>  <ATP_Site>  (819) 
nan

>  <Peripheral>  (819) 
nan

>  <Num_H_Atoms_ProtBoundConf>  (819) 
nan

>  <Num_Resolved_Atoms>  (819) 
nan

>  <Num_Not_Resolved_Atoms>  (819) 
nan

$$$$
CHEMBL3407853
     RDKit          3D

  0  0  0  0  0  0  0  0  0  0999 V3000
M  V30 BEGIN CTAB
M  V30 COUNTS 70 75 0 0 0
M  V30 BEGIN ATOM
M  V30 1 C 4.811933 -0.725722 4.100134 0
M  V30 2 N 5.868326 -1.553405 3.575823 0
M  V30 3 C 6.026850 -1.928010 2.223761 0
M  V30 4 N 7.008799 -2.700699 1.717117 0
M  V30 5 C 7.062064 -2.997473 0.394018 0
M  V30 6 C 6.105985 -2.513646 -0.477629 0
M  V30 7 C 6.082215 -2.763179 -1.829050 0
M  V30 8 Cl 7.352649 -3.766610 -2.503469 0
M  V30 9 C 5.110322 -2.259114 -2.652780 0
M  V30 10 C 4.100870 -1.467911 -2.147679 0
M  V30 11 O 3.051770 -0.887079 -2.850276 0
M  V30 12 C 2.084359 -0.105699 -2.232803 0
M  V30 13 C 2.349882 1.242328 -2.158020 0
M  V30 14 C 3.607624 1.805551 -2.713402 0
M  V30 15 C 1.451409 2.099521 -1.564397 0
M  V30 16 C 0.310878 1.512577 -1.072479 0
M  V30 17 C -0.033394 0.184534 -1.102973 0
M  V30 18 C -1.224670 -0.465150 -0.618132 0
M  V30 19 O -1.289450 -1.703286 -0.960877 0
M  V30 20 C -2.375711 -0.086813 0.158166 0
M  V30 21 C -3.534667 -0.833414 0.126911 0
M  V30 22 C -3.987264 -2.027516 -0.613203 0
M  V30 23 C -3.886535 -2.244193 -1.961653 0
M  V30 24 C -4.340173 -3.416941 -2.526863 0
M  V30 25 C -4.913479 -4.424829 -1.779136 0
M  V30 26 C -5.028560 -4.234522 -0.418394 0
M  V30 27 C -4.565223 -3.050878 0.116767 0
M  V30 28 N -4.416062 -0.250755 0.987939 0
M  V30 29 C -5.787846 -0.679625 1.299659 0
M  V30 30 N -3.909588 0.819498 1.573506 0
M  V30 31 C -4.532558 1.674931 2.522793 0
M  V30 32 C -5.542724 2.593811 2.307042 0
M  V30 33 C -6.013088 3.336316 3.386067 0
M  V30 34 C -5.471434 3.147417 4.640515 0
M  V30 35 C -4.452326 2.225102 4.875820 0
M  V30 36 C -3.992959 1.493394 3.797519 0
M  V30 37 C -2.671309 0.907370 1.061484 0
M  V30 38 O -1.915507 1.838866 1.427320 0
M  V30 39 C 0.899027 -0.641140 -1.709594 0
M  V30 40 N 0.822362 -2.067398 -1.891656 0
M  V30 41 C 4.155745 -1.234928 -0.772140 0
M  V30 42 C 5.115245 -1.726798 0.070448 0
M  V30 43 N 5.082988 -1.446225 1.384329 0
M  V30 44 H 5.205564 -0.200714 4.991759 0
M  V30 45 H 3.910412 -1.286489 4.395760 0
M  V30 46 H 4.479566 0.051987 3.385876 0
M  V30 47 H 6.601758 -1.927311 4.232423 0
M  V30 48 H 7.845017 -3.612055 -0.002218 0
M  V30 49 H 5.067750 -2.439103 -3.716311 0
M  V30 50 H 3.395603 2.627557 -3.417690 0
M  V30 51 H 4.193116 2.177930 -1.846756 0
M  V30 52 H 4.148627 1.015193 -3.247124 0
M  V30 53 H 1.622854 3.161337 -1.486225 0
M  V30 54 H -0.386952 2.197227 -0.628754 0
M  V30 55 H -3.447803 -1.459389 -2.560008 0
M  V30 56 H -4.215247 -3.493898 -3.604042 0
M  V30 57 H -5.233822 -5.301533 -2.327953 0
M  V30 58 H -5.475216 -5.018748 0.165295 0
M  V30 59 H -4.699615 -2.994524 1.196040 0
M  V30 60 H -6.225724 -1.271399 0.496734 0
M  V30 61 H -5.868725 -1.192555 2.263246 0
M  V30 62 H -6.434389 0.234669 1.393372 0
M  V30 63 H -5.879831 2.650920 1.299500 0
M  V30 64 H -6.801676 4.042860 3.177011 0
M  V30 65 H -5.844168 3.733930 5.488287 0
M  V30 66 H -4.054711 2.111080 5.889295 0
M  V30 67 H -3.204857 0.802682 4.063901 0
M  V30 68 H 0.377899 -2.597023 -2.672257 0
M  V30 69 H 1.249236 -2.711009 -1.182849 0
M  V30 70 H 3.380333 -0.614200 -0.318338 0
M  V30 END ATOM
M  V30 BEGIN BOND
M  V30 1 1 1 2
M  V30 2 1 2 3
M  V30 3 2 3 4
M  V30 4 1 4 5
M  V30 5 2 5 6
M  V30 6 1 6 7
M  V30 7 1 7 8
M  V30 8 2 7 9
M  V30 9 1 9 10
M  V30 10 1 10 11
M  V30 11 1 11 12
M  V30 12 2 12 13
M  V30 13 1 13 14
M  V30 14 1 13 15
M  V30 15 2 15 16
M  V30 16 1 16 17
M  V30 17 1 17 18
M  V30 18 2 18 19
M  V30 19 1 18 20
M  V30 20 2 20 21
M  V30 21 1 21 22
M  V30 22 2 22 23
M  V30 23 1 23 24
M  V30 24 2 24 25
M  V30 25 1 25 26
M  V30 26 2 26 27
M  V30 27 1 21 28
M  V30 28 1 28 29
M  V30 29 1 28 30
M  V30 30 1 30 31
M  V30 31 2 31 32
M  V30 32 1 32 33
M  V30 33 2 33 34
M  V30 34 1 34 35
M  V30 35 2 35 36
M  V30 36 1 30 37
M  V30 37 2 37 38
M  V30 38 2 17 39
M  V30 39 1 39 40
M  V30 40 2 10 41
M  V30 41 1 41 42
M  V30 42 2 42 43
M  V30 43 1 43 3
M  V30 44 1 42 6
M  V30 45 1 39 12
M  V30 46 1 37 20
M  V30 47 1 27 22
M  V30 48 1 36 31
M  V30 49 1 1 44
M  V30 50 1 1 45
M  V30 51 1 1 46
M  V30 52 1 2 47
M  V30 53 1 5 48
M  V30 54 1 9 49
M  V30 55 1 14 50
M  V30 56 1 14 51
M  V30 57 1 14 52
M  V30 58 1 15 53
M  V30 59 1 16 54
M  V30 60 1 23 55
M  V30 61 1 24 56
M  V30 62 1 25 57
M  V30 63 1 26 58
M  V30 64 1 27 59
M  V30 65 1 29 60
M  V30 66 1 29 61
M  V30 67 1 29 62
M  V30 68 1 32 63
M  V30 69 1 33 64
M  V30 70 1 34 65
M  V30 71 1 35 66
M  V30 72 1 36 67
M  V30 73 1 40 68
M  V30 74 1 40 69
M  V30 75 1 41 70
M  V30 END BOND
M  V30 END CTAB
M  END
>  <Dataset>  (820) 
ChEMBL_Kinases

>  <Ligand_Instance>  (820) 
nan

>  <PDB_ID>  (820) 
nan

>  <Standardized_SMILES>  (820) 
CNc1ncc2c(Cl)cc(Oc3c(C)ccc(C(=O)c4c(-c5ccccc5)n(C)n(-c5ccccc5)c4=O)c3N)cc2n1

>  <Name>  (820) 
nan

>  <Pocket>  (820) 
nan

>  <ATP_Site>  (820) 
nan

>  <Peripheral>  (820) 
nan

>  <Num_H_Atoms_ProtBoundConf>  (820) 
nan

>  <Num_Resolved_Atoms>  (820) 
nan

>  <Num_Not_Resolved_Atoms>  (820) 
nan

$$$$
CHEMBL3798015
     RDKit          3D

  0  0  0  0  0  0  0  0  0  0999 V3000
M  V30 BEGIN CTAB
M  V30 COUNTS 48 51 0 0 0
M  V30 BEGIN ATOM
M  V30 1 C -2.106281 -4.242056 0.556800 0
M  V30 2 C -0.727570 -4.489759 0.045304 0
M  V30 3 C -0.089715 -3.494846 -0.665031 0
M  V30 4 C 1.169099 -3.627068 -1.172211 0
M  V30 5 C 1.872604 -2.583794 -1.932682 0
M  V30 6 N 2.572325 -2.728801 -3.066110 0
M  V30 7 N 3.078364 -1.582155 -3.486933 0
M  V30 8 C 2.693560 -0.663557 -2.596272 0
M  V30 9 C 2.889629 0.696631 -2.467510 0
M  V30 10 C 2.401065 1.496588 -1.453529 0
M  V30 11 C 1.646048 0.880089 -0.476883 0
M  V30 12 C 1.131080 1.728708 0.593514 0
M  V30 13 O 1.383077 2.938356 0.586435 0
M  V30 14 N 0.339029 1.234258 1.667537 0
M  V30 15 C -0.181563 2.060200 2.739402 0
M  V30 16 C 0.497611 1.554508 3.995939 0
M  V30 17 O 1.880484 1.738776 3.759596 0
M  V30 18 C -1.630356 1.958105 2.901802 0
M  V30 19 C -2.286621 2.019995 1.665638 0
M  V30 20 C -3.682662 1.940746 1.589250 0
M  V30 21 C -4.449135 1.799737 2.727691 0
M  V30 22 C -3.784470 1.740409 3.939052 0
M  V30 23 Cl -4.649048 1.562309 5.453430 0
M  V30 24 C -2.413972 1.816960 4.029046 0
M  V30 25 C 1.407654 -0.477206 -0.538957 0
M  V30 26 C 1.931071 -1.228120 -1.591458 0
M  V30 27 C 1.803959 -4.850637 -0.934112 0
M  V30 28 C 1.185027 -5.859098 -0.226470 0
M  V30 29 N -0.074178 -5.640780 0.244130 0
M  V30 30 H -2.653550 -3.525677 -0.081757 0
M  V30 31 H -2.684267 -5.168375 0.691900 0
M  V30 32 H -1.990014 -3.789071 1.575916 0
M  V30 33 H -0.611005 -2.578393 -0.822842 0
M  V30 34 H 3.662385 -1.354325 -4.321769 0
M  V30 35 H 3.490506 1.174518 -3.248843 0
M  V30 36 H 2.615590 2.554153 -1.449798 0
M  V30 37 H 0.103544 0.218371 1.710619 0
M  V30 38 H 0.112343 3.121326 2.620341 0
M  V30 39 H 0.186769 2.090312 4.914483 0
M  V30 40 H 0.324839 0.461646 4.028578 0
M  V30 41 H 2.423811 1.044619 4.215921 0
M  V30 42 H -1.825156 2.128606 0.693157 0
M  V30 43 H -4.220591 1.985146 0.652799 0
M  V30 44 H -5.527166 1.737560 2.680497 0
M  V30 45 H -1.824788 1.778645 4.928858 0
M  V30 46 H 0.828255 -0.956187 0.208652 0
M  V30 47 H 2.814046 -4.998718 -1.323176 0
M  V30 48 H 1.712361 -6.789867 -0.065221 0
M  V30 END ATOM
M  V30 BEGIN BOND
M  V30 1 1 1 2
M  V30 2 2 2 3
M  V30 3 1 3 4
M  V30 4 1 4 5
M  V30 5 2 5 6
M  V30 6 1 6 7
M  V30 7 1 7 8
M  V30 8 2 8 9
M  V30 9 1 9 10
M  V30 10 2 10 11
M  V30 11 1 11 12
M  V30 12 2 12 13
M  V30 13 1 12 14
M  V30 14 1 14 15
M  V30 15 1 15 16
M  V30 16 1 16 17
M  V30 17 1 15 18
M  V30 18 2 18 19
M  V30 19 1 19 20
M  V30 20 2 20 21
M  V30 21 1 21 22
M  V30 22 1 22 23
M  V30 23 2 22 24
M  V30 24 1 11 25
M  V30 25 2 25 26
M  V30 26 2 4 27
M  V30 27 1 27 28
M  V30 28 2 28 29
M  V30 29 1 29 2
M  V30 30 1 26 5
M  V30 31 1 26 8
M  V30 32 1 24 18
M  V30 33 1 1 30
M  V30 34 1 1 31
M  V30 35 1 1 32
M  V30 36 1 3 33
M  V30 37 1 7 34
M  V30 38 1 9 35
M  V30 39 1 10 36
M  V30 40 1 14 37
M  V30 41 1 15 38
M  V30 42 1 16 39
M  V30 43 1 16 40
M  V30 44 1 17 41
M  V30 45 1 19 42
M  V30 46 1 20 43
M  V30 47 1 21 44
M  V30 48 1 24 45
M  V30 49 1 25 46
M  V30 50 1 27 47
M  V30 51 1 28 48
M  V30 END BOND
M  V30 END CTAB
M  END
>  <Dataset>  (821) 
ChEMBL_Kinases

>  <Ligand_Instance>  (821) 
nan

>  <PDB_ID>  (821) 
nan

>  <Standardized_SMILES>  (821) 
Cc1cc(-c2n[nH]c3ccc(C(=O)NC(CO)c4cccc(Cl)c4)cc23)ccn1

>  <Name>  (821) 
nan

>  <Pocket>  (821) 
nan

>  <ATP_Site>  (821) 
nan

>  <Peripheral>  (821) 
nan

>  <Num_H_Atoms_ProtBoundConf>  (821) 
nan

>  <Num_Resolved_Atoms>  (821) 
nan

>  <Num_Not_Resolved_Atoms>  (821) 
nan

$$$$
CHEMBL3407854
     RDKit          3D

  0  0  0  0  0  0  0  0  0  0999 V3000
M  V30 BEGIN CTAB
M  V30 COUNTS 68 73 0 0 0
M  V30 BEGIN ATOM
M  V30 1 C 9.108547 -0.978173 5.375051 0
M  V30 2 C 8.045205 -1.596910 4.555429 0
M  V30 3 N 7.968777 -2.933673 4.542504 0
M  V30 4 C 7.019906 -3.538099 3.808407 0
M  V30 5 C 6.150932 -2.709556 3.086395 0
M  V30 6 C 5.166437 -3.299267 2.322768 0
M  V30 7 C 4.253884 -2.596193 1.569366 0
M  V30 8 C 4.316398 -1.198719 1.568356 0
M  V30 9 O 3.597850 -0.217716 0.958103 0
M  V30 10 C 2.572070 -0.256568 0.085753 0
M  V30 11 C 2.777516 -0.327455 -1.303870 0
M  V30 12 C 4.198501 -0.362324 -1.721375 0
M  V30 13 C 1.663435 -0.357867 -2.114093 0
M  V30 14 C 0.356189 -0.321885 -1.627145 0
M  V30 15 C 0.168072 -0.251289 -0.250757 0
M  V30 16 C -1.214190 -0.278472 0.177993 0
M  V30 17 O -1.177717 -0.601956 1.374983 0
M  V30 18 C -2.474458 -0.028279 -0.463342 0
M  V30 19 C -3.637437 -0.583815 0.021582 0
M  V30 20 C -4.093306 -1.423576 1.114904 0
M  V30 21 C -3.908210 -1.293372 2.467552 0
M  V30 22 C -4.367056 -2.186333 3.408717 0
M  V30 23 C -5.068590 -3.299436 2.970117 0
M  V30 24 C -5.307577 -3.517251 1.607873 0
M  V30 25 C -4.800006 -2.557416 0.765862 0
M  V30 26 N -4.611749 -0.118847 -0.820252 0
M  V30 27 C -6.061964 -0.383989 -0.800401 0
M  V30 28 N -4.147992 0.679726 -1.783918 0
M  V30 29 C -4.868775 1.335895 -2.819639 0
M  V30 30 C -5.152405 2.683720 -2.597451 0
M  V30 31 C -5.853941 3.418973 -3.552429 0
M  V30 32 C -6.259810 2.775567 -4.724700 0
M  V30 33 C -6.002171 1.440242 -4.990718 0
M  V30 34 C -5.306230 0.791010 -3.996441 0
M  V30 35 C -2.817335 0.733805 -1.557052 0
M  V30 36 O -2.096532 1.427398 -2.313252 0
M  V30 37 C 1.262842 -0.222226 0.554359 0
M  V30 38 N 1.067274 -0.157976 1.944809 0
M  V30 39 C 5.316743 -0.594097 2.344464 0
M  V30 40 C 6.221372 -1.330618 3.093406 0
M  V30 41 N 7.202968 -0.828000 3.856705 0
M  V30 42 H 10.001928 -1.657825 5.334261 0
M  V30 43 H 9.384024 0.000789 4.893308 0
M  V30 44 H 8.765988 -0.820881 6.420879 0
M  V30 45 H 6.862232 -4.605878 3.722976 0
M  V30 46 H 5.053296 -4.373374 2.268361 0
M  V30 47 H 3.452423 -2.929410 0.943085 0
M  V30 48 H 4.315398 -0.630515 -2.794049 0
M  V30 49 H 4.753972 -1.166424 -1.162734 0
M  V30 50 H 4.730471 0.595246 -1.529130 0
M  V30 51 H 1.995495 -0.410666 -3.154111 0
M  V30 52 H -0.277795 -0.380507 -2.466385 0
M  V30 53 H -3.382245 -0.422300 2.822155 0
M  V30 54 H -4.167534 -1.992926 4.453414 0
M  V30 55 H -5.448893 -4.027485 3.673627 0
M  V30 56 H -5.854106 -4.385555 1.269784 0
M  V30 57 H -5.009966 -2.777069 -0.291043 0
M  V30 58 H -6.393210 -0.701703 0.208909 0
M  V30 59 H -6.328867 -1.202985 -1.494607 0
M  V30 60 H -6.642876 0.514271 -1.063774 0
M  V30 61 H -4.871984 3.250433 -1.718717 0
M  V30 62 H -6.095446 4.463458 -3.413900 0
M  V30 63 H -6.803468 3.379679 -5.440150 0
M  V30 64 H -6.317909 0.946331 -5.896441 0
M  V30 65 H -5.074725 -0.257827 -4.151944 0
M  V30 66 H 0.675219 0.566038 2.609988 0
M  V30 67 H 1.127406 -0.559245 2.879853 0
M  V30 68 H 5.526479 0.470483 2.472526 0
M  V30 END ATOM
M  V30 BEGIN BOND
M  V30 1 1 1 2
M  V30 2 2 2 3
M  V30 3 1 3 4
M  V30 4 2 4 5
M  V30 5 1 5 6
M  V30 6 2 6 7
M  V30 7 1 7 8
M  V30 8 1 8 9
M  V30 9 1 9 10
M  V30 10 2 10 11
M  V30 11 1 11 12
M  V30 12 1 11 13
M  V30 13 2 13 14
M  V30 14 1 14 15
M  V30 15 1 15 16
M  V30 16 2 16 17
M  V30 17 1 16 18
M  V30 18 2 18 19
M  V30 19 1 19 20
M  V30 20 2 20 21
M  V30 21 1 21 22
M  V30 22 2 22 23
M  V30 23 1 23 24
M  V30 24 2 24 25
M  V30 25 1 19 26
M  V30 26 1 26 27
M  V30 27 1 26 28
M  V30 28 1 28 29
M  V30 29 2 29 30
M  V30 30 1 30 31
M  V30 31 2 31 32
M  V30 32 1 32 33
M  V30 33 2 33 34
M  V30 34 1 28 35
M  V30 35 2 35 36
M  V30 36 2 15 37
M  V30 37 1 37 38
M  V30 38 2 8 39
M  V30 39 1 39 40
M  V30 40 2 40 41
M  V30 41 1 41 2
M  V30 42 1 40 5
M  V30 43 1 37 10
M  V30 44 1 35 18
M  V30 45 1 25 20
M  V30 46 1 34 29
M  V30 47 1 1 42
M  V30 48 1 1 43
M  V30 49 1 1 44
M  V30 50 1 4 45
M  V30 51 1 6 46
M  V30 52 1 7 47
M  V30 53 1 12 48
M  V30 54 1 12 49
M  V30 55 1 12 50
M  V30 56 1 13 51
M  V30 57 1 14 52
M  V30 58 1 21 53
M  V30 59 1 22 54
M  V30 60 1 23 55
M  V30 61 1 24 56
M  V30 62 1 25 57
M  V30 63 1 27 58
M  V30 64 1 27 59
M  V30 65 1 27 60
M  V30 66 1 30 61
M  V30 67 1 31 62
M  V30 68 1 32 63
M  V30 69 1 33 64
M  V30 70 1 34 65
M  V30 71 1 38 66
M  V30 72 1 38 67
M  V30 73 1 39 68
M  V30 END BOND
M  V30 END CTAB
M  END
>  <Dataset>  (822) 
ChEMBL_Kinases

>  <Ligand_Instance>  (822) 
nan

>  <PDB_ID>  (822) 
nan

>  <Standardized_SMILES>  (822) 
Cc1ncc2ccc(Oc3c(C)ccc(C(=O)c4c(-c5ccccc5)n(C)n(-c5ccccc5)c4=O)c3N)cc2n1

>  <Name>  (822) 
nan

>  <Pocket>  (822) 
nan

>  <ATP_Site>  (822) 
nan

>  <Peripheral>  (822) 
nan

>  <Num_H_Atoms_ProtBoundConf>  (822) 
nan

>  <Num_Resolved_Atoms>  (822) 
nan

>  <Num_Not_Resolved_Atoms>  (822) 
nan

$$$$
CHEMBL3407856
     RDKit          3D

  0  0  0  0  0  0  0  0  0  0999 V3000
M  V30 BEGIN CTAB
M  V30 COUNTS 65 70 0 0 0
M  V30 BEGIN ATOM
M  V30 1 C 8.904225 2.624010 3.599969 0
M  V30 2 C 7.422191 2.663269 3.206076 0
M  V30 3 N 6.591541 3.235970 2.718541 0
M  V30 4 C 5.328241 2.943713 2.540469 0
M  V30 5 C 4.346652 3.699072 1.926709 0
M  V30 6 C 3.065172 3.221966 1.834052 0
M  V30 7 C 2.637780 2.002979 2.316354 0
M  V30 8 C 1.312194 1.404878 2.271501 0
M  V30 9 C 0.501598 1.689671 3.346717 0
M  V30 10 C 0.961734 2.552930 4.470483 0
M  V30 11 C -0.773533 1.170584 3.402260 0
M  V30 12 C -1.150690 0.380324 2.341866 0
M  V30 13 C -0.400800 0.053320 1.241252 0
M  V30 14 C -0.771907 -0.752740 0.106643 0
M  V30 15 O 0.110373 -0.714941 -0.825780 0
M  V30 16 C -1.880439 -1.593163 -0.255581 0
M  V30 17 C -2.116224 -1.916498 -1.581742 0
M  V30 18 C -1.505799 -1.553160 -2.871805 0
M  V30 19 C -1.209196 -2.598094 -3.756298 0
M  V30 20 C -0.648331 -2.374756 -4.996609 0
M  V30 21 C -0.359037 -1.082892 -5.404922 0
M  V30 22 C -0.650973 -0.046881 -4.533241 0
M  V30 23 C -1.204464 -0.285661 -3.313418 0
M  V30 24 N -3.199564 -2.752165 -1.606240 0
M  V30 25 C -3.830698 -3.363246 -2.777873 0
M  V30 26 N -3.672062 -2.985528 -0.395696 0
M  V30 27 C -4.781568 -3.799902 -0.037271 0
M  V30 28 C -4.581217 -5.034042 0.561716 0
M  V30 29 C -5.681178 -5.797839 0.896027 0
M  V30 30 C -6.987632 -5.370968 0.652132 0
M  V30 31 C -7.161498 -4.121740 0.046757 0
M  V30 32 C -6.074180 -3.336797 -0.298093 0
M  V30 33 C -2.866685 -2.279961 0.413961 0
M  V30 34 O -3.054251 -2.295135 1.648173 0
M  V30 35 C 0.866890 0.596133 1.230154 0
M  V30 36 N 1.860830 0.430719 0.225148 0
M  V30 37 C 3.629523 1.232972 2.939753 0
M  V30 38 C 4.923379 1.756153 3.013325 0
M  V30 39 S 6.439537 1.121549 3.704277 0
M  V30 40 H 9.274895 3.569505 3.215375 0
M  V30 41 H 9.009444 2.570693 4.698434 0
M  V30 42 H 9.392251 1.773759 3.083809 0
M  V30 43 H 4.450672 4.679181 1.478202 0
M  V30 44 H 2.241213 3.778021 1.356577 0
M  V30 45 H 0.919126 3.640525 4.208395 0
M  V30 46 H 0.384810 2.304448 5.377257 0
M  V30 47 H 2.050210 2.333432 4.604051 0
M  V30 48 H -1.430589 1.377152 4.233021 0
M  V30 49 H -2.153517 0.008809 2.411780 0
M  V30 50 H -1.386149 -3.646822 -3.557486 0
M  V30 51 H -0.409382 -3.155624 -5.696480 0
M  V30 52 H 0.081294 -0.893189 -6.375561 0
M  V30 53 H -0.436426 0.974574 -4.824006 0
M  V30 54 H -1.428976 0.527406 -2.662135 0
M  V30 55 H -4.936189 -3.404221 -2.627657 0
M  V30 56 H -3.539164 -4.445534 -2.858075 0
M  V30 57 H -3.681745 -2.790428 -3.700485 0
M  V30 58 H -3.594249 -5.421179 0.776958 0
M  V30 59 H -5.553019 -6.763811 1.363952 0
M  V30 60 H -7.800913 -6.019401 0.939799 0
M  V30 61 H -8.202019 -3.844212 -0.117844 0
M  V30 62 H -6.279632 -2.376004 -0.766138 0
M  V30 63 H 2.092254 1.028454 -0.599492 0
M  V30 64 H 2.471585 -0.391163 0.275918 0
M  V30 65 H 3.443222 0.253717 3.366876 0
M  V30 END ATOM
M  V30 BEGIN BOND
M  V30 1 1 1 2
M  V30 2 2 2 3
M  V30 3 1 3 4
M  V30 4 2 4 5
M  V30 5 1 5 6
M  V30 6 2 6 7
M  V30 7 1 7 8
M  V30 8 2 8 9
M  V30 9 1 9 10
M  V30 10 1 9 11
M  V30 11 2 11 12
M  V30 12 1 12 13
M  V30 13 1 13 14
M  V30 14 2 14 15
M  V30 15 1 14 16
M  V30 16 2 16 17
M  V30 17 1 17 18
M  V30 18 2 18 19
M  V30 19 1 19 20
M  V30 20 2 20 21
M  V30 21 1 21 22
M  V30 22 2 22 23
M  V30 23 1 17 24
M  V30 24 1 24 25
M  V30 25 1 24 26
M  V30 26 1 26 27
M  V30 27 2 27 28
M  V30 28 1 28 29
M  V30 29 2 29 30
M  V30 30 1 30 31
M  V30 31 2 31 32
M  V30 32 1 26 33
M  V30 33 2 33 34
M  V30 34 2 13 35
M  V30 35 1 35 36
M  V30 36 1 7 37
M  V30 37 2 37 38
M  V30 38 1 38 39
M  V30 39 1 39 2
M  V30 40 1 38 4
M  V30 41 1 35 8
M  V30 42 1 33 16
M  V30 43 1 23 18
M  V30 44 1 32 27
M  V30 45 1 1 40
M  V30 46 1 1 41
M  V30 47 1 1 42
M  V30 48 1 5 43
M  V30 49 1 6 44
M  V30 50 1 10 45
M  V30 51 1 10 46
M  V30 52 1 10 47
M  V30 53 1 11 48
M  V30 54 1 12 49
M  V30 55 1 19 50
M  V30 56 1 20 51
M  V30 57 1 21 52
M  V30 58 1 22 53
M  V30 59 1 23 54
M  V30 60 1 25 55
M  V30 61 1 25 56
M  V30 62 1 25 57
M  V30 63 1 28 58
M  V30 64 1 29 59
M  V30 65 1 30 60
M  V30 66 1 31 61
M  V30 67 1 32 62
M  V30 68 1 36 63
M  V30 69 1 36 64
M  V30 70 1 37 65
M  V30 END BOND
M  V30 END CTAB
M  END
>  <Dataset>  (823) 
ChEMBL_Kinases

>  <Ligand_Instance>  (823) 
nan

>  <PDB_ID>  (823) 
nan

>  <Standardized_SMILES>  (823) 
Cc1nc2ccc(-c3c(C)ccc(C(=O)c4c(-c5ccccc5)n(C)n(-c5ccccc5)c4=O)c3N)cc2s1

>  <Name>  (823) 
nan

>  <Pocket>  (823) 
nan

>  <ATP_Site>  (823) 
nan

>  <Peripheral>  (823) 
nan

>  <Num_H_Atoms_ProtBoundConf>  (823) 
nan

>  <Num_Resolved_Atoms>  (823) 
nan

>  <Num_Not_Resolved_Atoms>  (823) 
nan

$$$$
CHEMBL3407857
     RDKit          3D

  0  0  0  0  0  0  0  0  0  0999 V3000
M  V30 BEGIN CTAB
M  V30 COUNTS 67 72 0 0 0
M  V30 BEGIN ATOM
M  V30 1 C 9.863512 -1.951068 4.127364 0
M  V30 2 N 9.300811 -1.921066 2.808484 0
M  V30 3 C 7.898268 -1.987539 2.725928 0
M  V30 4 N 6.960410 -2.039138 3.500026 0
M  V30 5 C 5.688737 -2.108103 3.098277 0
M  V30 6 C 4.594393 -2.171209 3.937059 0
M  V30 7 C 3.336402 -2.242546 3.396389 0
M  V30 8 C 3.063801 -2.257837 2.028140 0
M  V30 9 C 1.738845 -2.337453 1.439084 0
M  V30 10 C 1.305830 -3.650833 1.263173 0
M  V30 11 C 2.130208 -4.840721 1.631031 0
M  V30 12 C 0.067159 -3.865244 0.720323 0
M  V30 13 C -0.725059 -2.804435 0.359365 0
M  V30 14 C -0.321557 -1.475607 0.521906 0
M  V30 15 C -1.036269 -0.278739 0.143823 0
M  V30 16 O -0.347187 0.784451 0.164551 0
M  V30 17 C -2.380935 0.020370 -0.266208 0
M  V30 18 C -2.757259 1.088234 -1.040390 0
M  V30 19 C -1.977648 2.131413 -1.691040 0
M  V30 20 C -2.237976 3.490316 -1.669710 0
M  V30 21 C -1.480504 4.445059 -2.310417 0
M  V30 22 C -0.367762 4.045920 -3.039359 0
M  V30 23 C -0.066965 2.701370 -3.089643 0
M  V30 24 C -0.860107 1.802019 -2.430817 0
M  V30 25 N -4.117768 1.035775 -1.153970 0
M  V30 26 C -4.981144 1.948338 -1.881323 0
M  V30 27 N -4.558308 -0.021913 -0.474171 0
M  V30 28 C -5.963276 -0.357677 -0.397326 0
M  V30 29 C -6.432747 -1.594467 -0.793126 0
M  V30 30 C -7.740938 -2.007271 -0.755031 0
M  V30 31 C -8.681648 -1.088500 -0.271300 0
M  V30 32 C -8.220282 0.163174 0.130751 0
M  V30 33 C -6.901161 0.550926 0.081989 0
M  V30 34 C -3.506113 -0.689216 0.099211 0
M  V30 35 O -3.781641 -1.703103 0.768250 0
M  V30 36 C 0.918778 -1.298368 1.065773 0
M  V30 37 N 1.565532 -0.055067 1.334399 0
M  V30 38 C 4.144495 -2.195606 1.178860 0
M  V30 39 C 5.410421 -2.123108 1.727023 0
M  V30 40 S 7.110963 -2.029504 1.058871 0
M  V30 41 H 9.784993 -0.938989 4.567395 0
M  V30 42 H 10.923208 -2.300879 4.127729 0
M  V30 43 H 9.314869 -2.641368 4.812213 0
M  V30 44 H 9.938102 -1.852353 1.976106 0
M  V30 45 H 4.559173 -2.174064 5.020057 0
M  V30 46 H 2.405259 -2.295771 3.983526 0
M  V30 47 H 2.906696 -5.057157 0.840450 0
M  V30 48 H 1.469449 -5.717173 1.730739 0
M  V30 49 H 2.663962 -4.682823 2.592540 0
M  V30 50 H -0.325345 -4.876695 0.558563 0
M  V30 51 H -1.682866 -2.989242 -0.081950 0
M  V30 52 H -3.117237 3.800062 -1.090960 0
M  V30 53 H -1.798078 5.485723 -2.212336 0
M  V30 54 H 0.187622 4.833604 -3.520964 0
M  V30 55 H 0.817212 2.443626 -3.675327 0
M  V30 56 H -0.502896 0.771248 -2.563081 0
M  V30 57 H -4.497077 2.354292 -2.793882 0
M  V30 58 H -5.280742 2.801329 -1.252558 0
M  V30 59 H -5.888184 1.387078 -2.258640 0
M  V30 60 H -5.746505 -2.354504 -1.183355 0
M  V30 61 H -8.079888 -2.986832 -1.074196 0
M  V30 62 H -9.737289 -1.305821 -0.196203 0
M  V30 63 H -8.969166 0.857952 0.501295 0
M  V30 64 H -6.566859 1.532363 0.400238 0
M  V30 65 H 1.537431 0.190222 2.339897 0
M  V30 66 H 1.914351 0.299217 0.402740 0
M  V30 67 H 4.126260 -2.195285 0.108520 0
M  V30 END ATOM
M  V30 BEGIN BOND
M  V30 1 1 1 2
M  V30 2 1 2 3
M  V30 3 2 3 4
M  V30 4 1 4 5
M  V30 5 2 5 6
M  V30 6 1 6 7
M  V30 7 2 7 8
M  V30 8 1 8 9
M  V30 9 2 9 10
M  V30 10 1 10 11
M  V30 11 1 10 12
M  V30 12 2 12 13
M  V30 13 1 13 14
M  V30 14 1 14 15
M  V30 15 2 15 16
M  V30 16 1 15 17
M  V30 17 2 17 18
M  V30 18 1 18 19
M  V30 19 2 19 20
M  V30 20 1 20 21
M  V30 21 2 21 22
M  V30 22 1 22 23
M  V30 23 2 23 24
M  V30 24 1 18 25
M  V30 25 1 25 26
M  V30 26 1 25 27
M  V30 27 1 27 28
M  V30 28 2 28 29
M  V30 29 1 29 30
M  V30 30 2 30 31
M  V30 31 1 31 32
M  V30 32 2 32 33
M  V30 33 1 27 34
M  V30 34 2 34 35
M  V30 35 2 14 36
M  V30 36 1 36 37
M  V30 37 1 8 38
M  V30 38 2 38 39
M  V30 39 1 39 40
M  V30 40 1 40 3
M  V30 41 1 39 5
M  V30 42 1 36 9
M  V30 43 1 34 17
M  V30 44 1 24 19
M  V30 45 1 33 28
M  V30 46 1 1 41
M  V30 47 1 1 42
M  V30 48 1 1 43
M  V30 49 1 2 44
M  V30 50 1 6 45
M  V30 51 1 7 46
M  V30 52 1 11 47
M  V30 53 1 11 48
M  V30 54 1 11 49
M  V30 55 1 12 50
M  V30 56 1 13 51
M  V30 57 1 20 52
M  V30 58 1 21 53
M  V30 59 1 22 54
M  V30 60 1 23 55
M  V30 61 1 24 56
M  V30 62 1 26 57
M  V30 63 1 26 58
M  V30 64 1 26 59
M  V30 65 1 29 60
M  V30 66 1 30 61
M  V30 67 1 31 62
M  V30 68 1 32 63
M  V30 69 1 33 64
M  V30 70 1 37 65
M  V30 71 1 37 66
M  V30 72 1 38 67
M  V30 END BOND
M  V30 END CTAB
M  END
>  <Dataset>  (824) 
ChEMBL_Kinases

>  <Ligand_Instance>  (824) 
nan

>  <PDB_ID>  (824) 
nan

>  <Standardized_SMILES>  (824) 
CNc1nc2ccc(-c3c(C)ccc(C(=O)c4c(-c5ccccc5)n(C)n(-c5ccccc5)c4=O)c3N)cc2s1

>  <Name>  (824) 
nan

>  <Pocket>  (824) 
nan

>  <ATP_Site>  (824) 
nan

>  <Peripheral>  (824) 
nan

>  <Num_H_Atoms_ProtBoundConf>  (824) 
nan

>  <Num_Resolved_Atoms>  (824) 
nan

>  <Num_Not_Resolved_Atoms>  (824) 
nan

$$$$
CHEMBL3798109
     RDKit          3D

  0  0  0  0  0  0  0  0  0  0999 V3000
M  V30 BEGIN CTAB
M  V30 COUNTS 41 44 0 0 0
M  V30 BEGIN ATOM
M  V30 1 O 3.280587 -2.628166 2.769666 0
M  V30 2 C 2.270503 -2.021349 2.366796 0
M  V30 3 N 1.512209 -2.913531 1.558258 0
M  V30 4 C 0.759665 -3.830008 0.743348 0
M  V30 5 C 1.113181 -3.631390 -0.717824 0
M  V30 6 C 1.127576 -2.242974 -0.900847 0
M  V30 7 C 1.420857 -1.587394 -2.130923 0
M  V30 8 C 1.707609 -2.421628 -3.201918 0
M  V30 9 C 1.685504 -3.759334 -2.997538 0
M  V30 10 C 1.408684 -4.413514 -1.823435 0
M  V30 11 C 1.910976 -0.591183 2.642346 0
M  V30 12 C 3.034659 0.085027 3.015895 0
M  V30 13 C 2.830375 1.473581 3.056665 0
M  V30 14 C 1.619231 2.012020 2.746926 0
M  V30 15 N 1.142622 3.271094 2.669253 0
M  V30 16 N -0.160191 3.339347 2.283250 0
M  V30 17 C -0.553335 2.073732 2.099650 0
M  V30 18 C -1.888885 1.771906 1.620846 0
M  V30 19 C -2.186943 0.749423 0.732559 0
M  V30 20 C -3.403492 0.474481 0.205719 0
M  V30 21 N -4.467337 1.274367 0.573249 0
M  V30 22 C -4.170983 2.283484 1.444944 0
M  V30 23 C -2.951352 2.606168 2.015232 0
M  V30 24 C 0.508576 1.273813 2.375481 0
M  V30 25 C 0.674116 -0.076386 2.323870 0
M  V30 26 H 0.656017 -2.306424 1.379804 0
M  V30 27 H -0.290781 -3.845464 0.921163 0
M  V30 28 H 1.135105 -4.896875 1.029495 0
M  V30 29 H 0.950521 -1.387472 -0.215297 0
M  V30 30 H 1.463334 -0.529889 -2.328725 0
M  V30 31 H 1.954217 -2.041650 -4.175276 0
M  V30 32 H 1.901827 -4.466492 -3.818910 0
M  V30 33 H 1.339608 -5.429374 -1.507331 0
M  V30 34 H 3.984926 -0.388540 3.238076 0
M  V30 35 H 3.629867 2.149234 3.336352 0
M  V30 36 H 1.638879 4.199548 2.850691 0
M  V30 37 H -1.412248 0.079617 0.387714 0
M  V30 38 H -3.590845 -0.356806 -0.480448 0
M  V30 39 H -5.067946 2.875102 1.683118 0
M  V30 40 H -2.844954 3.411991 2.700636 0
M  V30 41 H -0.119104 -0.734143 2.082550 0
M  V30 END ATOM
M  V30 BEGIN BOND
M  V30 1 2 1 2
M  V30 2 1 2 3
M  V30 3 1 3 4
M  V30 4 1 4 5
M  V30 5 2 5 6
M  V30 6 1 6 7
M  V30 7 2 7 8
M  V30 8 1 8 9
M  V30 9 2 9 10
M  V30 10 1 2 11
M  V30 11 2 11 12
M  V30 12 1 12 13
M  V30 13 2 13 14
M  V30 14 1 14 15
M  V30 15 1 15 16
M  V30 16 2 16 17
M  V30 17 1 17 18
M  V30 18 2 18 19
M  V30 19 1 19 20
M  V30 20 2 20 21
M  V30 21 1 21 22
M  V30 22 2 22 23
M  V30 23 1 17 24
M  V30 24 2 24 25
M  V30 25 1 10 5
M  V30 26 1 25 11
M  V30 27 1 24 14
M  V30 28 1 23 18
M  V30 29 1 3 26
M  V30 30 1 4 27
M  V30 31 1 4 28
M  V30 32 1 6 29
M  V30 33 1 7 30
M  V30 34 1 8 31
M  V30 35 1 9 32
M  V30 36 1 10 33
M  V30 37 1 12 34
M  V30 38 1 13 35
M  V30 39 1 15 36
M  V30 40 1 19 37
M  V30 41 1 20 38
M  V30 42 1 22 39
M  V30 43 1 23 40
M  V30 44 1 25 41
M  V30 END BOND
M  V30 END CTAB
M  END
>  <Dataset>  (825) 
ChEMBL_Kinases

>  <Ligand_Instance>  (825) 
nan

>  <PDB_ID>  (825) 
nan

>  <Standardized_SMILES>  (825) 
O=C(NCc1ccccc1)c1ccc2[nH]nc(-c3ccncc3)c2c1

>  <Name>  (825) 
nan

>  <Pocket>  (825) 
nan

>  <ATP_Site>  (825) 
nan

>  <Peripheral>  (825) 
nan

>  <Num_H_Atoms_ProtBoundConf>  (825) 
nan

>  <Num_Resolved_Atoms>  (825) 
nan

>  <Num_Not_Resolved_Atoms>  (825) 
nan

$$$$
CHEMBL3407858
     RDKit          3D

  0  0  0  0  0  0  0  0  0  0999 V3000
M  V30 BEGIN CTAB
M  V30 COUNTS 64 69 0 0 0
M  V30 BEGIN ATOM
M  V30 1 C 1.728171 -2.243172 5.121746 0
M  V30 2 C 1.199220 -1.909492 3.767270 0
M  V30 3 C 1.046498 -2.927755 2.855579 0
M  V30 4 C 0.555839 -2.549703 1.630636 0
M  V30 5 C 0.199606 -1.294986 1.197041 0
M  V30 6 C -0.329085 -0.869046 -0.053880 0
M  V30 7 O -0.688058 0.364930 -0.044018 0
M  V30 8 C -0.569873 -1.458765 -1.333508 0
M  V30 9 C -1.455914 -0.872084 -2.243215 0
M  V30 10 C -2.344583 0.289048 -2.219301 0
M  V30 11 C -2.296074 1.167156 -3.300051 0
M  V30 12 C -3.065454 2.290308 -3.440400 0
M  V30 13 C -3.963627 2.584004 -2.435964 0
M  V30 14 C -4.045408 1.751717 -1.358561 0
M  V30 15 C -3.257782 0.626290 -1.243362 0
M  V30 16 N -1.439522 -1.641074 -3.374892 0
M  V30 17 C -2.209822 -1.426110 -4.611278 0
M  V30 18 N -0.616598 -2.668704 -3.260694 0
M  V30 19 C -0.355398 -3.666170 -4.240281 0
M  V30 20 C -1.299227 -4.671710 -4.292898 0
M  V30 21 C -1.163311 -5.714171 -5.210430 0
M  V30 22 C -0.060027 -5.698372 -6.052470 0
M  V30 23 C 0.858518 -4.657363 -5.952625 0
M  V30 24 C 0.750044 -3.621326 -5.061355 0
M  V30 25 C -0.108024 -2.544433 -2.041110 0
M  V30 26 O 0.726368 -3.387512 -1.631443 0
M  V30 27 C 0.376830 -0.303120 2.167633 0
M  V30 28 N 0.099414 1.098214 2.024308 0
M  V30 29 C 0.873226 -0.616714 3.439921 0
M  V30 30 C 1.072190 0.384785 4.476451 0
M  V30 31 C 0.170692 0.791677 5.425546 0
M  V30 32 C 0.395870 1.737207 6.384040 0
M  V30 33 C 1.617008 2.375210 6.456136 0
M  V30 34 N 2.059038 3.304642 7.279890 0
M  V30 35 C 3.073945 3.833725 7.338664 0
M  V30 36 N 3.492472 4.867215 8.294074 0
M  V30 37 S 3.995709 2.987981 5.877547 0
M  V30 38 C 2.541504 1.963828 5.489564 0
M  V30 39 C 2.307077 0.996864 4.511562 0
M  V30 40 H 0.891176 -2.610498 5.758324 0
M  V30 41 H 2.254209 -1.375208 5.559846 0
M  V30 42 H 2.435994 -3.087918 4.992022 0
M  V30 43 H 1.295444 -3.928910 3.099254 0
M  V30 44 H 0.429289 -3.364742 0.940912 0
M  V30 45 H -1.604767 0.985019 -4.123221 0
M  V30 46 H -2.987600 2.939129 -4.301755 0
M  V30 47 H -4.606714 3.434111 -2.450994 0
M  V30 48 H -4.743592 1.964193 -0.559684 0
M  V30 49 H -3.330051 -0.037374 -0.393718 0
M  V30 50 H -1.561207 -1.028886 -5.425663 0
M  V30 51 H -2.530417 -2.436435 -5.001705 0
M  V30 52 H -3.131503 -0.869021 -4.437368 0
M  V30 53 H -2.168799 -4.724677 -3.660765 0
M  V30 54 H -1.889490 -6.497883 -5.258795 0
M  V30 55 H 0.060134 -6.490861 -6.762986 0
M  V30 56 H 1.684775 -4.706303 -6.630696 0
M  V30 57 H 1.459575 -2.822891 -4.988624 0
M  V30 58 H -0.803270 1.516530 2.326818 0
M  V30 59 H 0.997256 1.430122 1.584650 0
M  V30 60 H -0.803829 0.279059 5.364151 0
M  V30 61 H -0.429604 1.936824 7.055740 0
M  V30 62 H 3.802715 4.540589 9.245820 0
M  V30 63 H 3.467952 5.869691 8.001385 0
M  V30 64 H 3.151336 0.827941 3.864893 0
M  V30 END ATOM
M  V30 BEGIN BOND
M  V30 1 1 1 2
M  V30 2 2 2 3
M  V30 3 1 3 4
M  V30 4 2 4 5
M  V30 5 1 5 6
M  V30 6 2 6 7
M  V30 7 1 6 8
M  V30 8 2 8 9
M  V30 9 1 9 10
M  V30 10 2 10 11
M  V30 11 1 11 12
M  V30 12 2 12 13
M  V30 13 1 13 14
M  V30 14 2 14 15
M  V30 15 1 9 16
M  V30 16 1 16 17
M  V30 17 1 16 18
M  V30 18 1 18 19
M  V30 19 2 19 20
M  V30 20 1 20 21
M  V30 21 2 21 22
M  V30 22 1 22 23
M  V30 23 2 23 24
M  V30 24 1 18 25
M  V30 25 2 25 26
M  V30 26 1 5 27
M  V30 27 1 27 28
M  V30 28 2 27 29
M  V30 29 1 29 30
M  V30 30 2 30 31
M  V30 31 1 31 32
M  V30 32 2 32 33
M  V30 33 1 33 34
M  V30 34 2 34 35
M  V30 35 1 35 36
M  V30 36 1 35 37
M  V30 37 1 37 38
M  V30 38 2 38 39
M  V30 39 1 29 2
M  V30 40 1 39 30
M  V30 41 1 25 8
M  V30 42 1 38 33
M  V30 43 1 15 10
M  V30 44 1 24 19
M  V30 45 1 1 40
M  V30 46 1 1 41
M  V30 47 1 1 42
M  V30 48 1 3 43
M  V30 49 1 4 44
M  V30 50 1 11 45
M  V30 51 1 12 46
M  V30 52 1 13 47
M  V30 53 1 14 48
M  V30 54 1 15 49
M  V30 55 1 17 50
M  V30 56 1 17 51
M  V30 57 1 17 52
M  V30 58 1 20 53
M  V30 59 1 21 54
M  V30 60 1 22 55
M  V30 61 1 23 56
M  V30 62 1 24 57
M  V30 63 1 28 58
M  V30 64 1 28 59
M  V30 65 1 31 60
M  V30 66 1 32 61
M  V30 67 1 36 62
M  V30 68 1 36 63
M  V30 69 1 39 64
M  V30 END BOND
M  V30 END CTAB
M  END
>  <Dataset>  (826) 
ChEMBL_Kinases

>  <Ligand_Instance>  (826) 
nan

>  <PDB_ID>  (826) 
nan

>  <Standardized_SMILES>  (826) 
Cc1ccc(C(=O)c2c(-c3ccccc3)n(C)n(-c3ccccc3)c2=O)c(N)c1-c1ccc2nc(N)sc2c1

>  <Name>  (826) 
nan

>  <Pocket>  (826) 
nan

>  <ATP_Site>  (826) 
nan

>  <Peripheral>  (826) 
nan

>  <Num_H_Atoms_ProtBoundConf>  (826) 
nan

>  <Num_Resolved_Atoms>  (826) 
nan

>  <Num_Not_Resolved_Atoms>  (826) 
nan

$$$$
CHEMBL3407850
     RDKit          3D

  0  0  0  0  0  0  0  0  0  0999 V3000
M  V30 BEGIN CTAB
M  V30 COUNTS 67 72 0 0 0
M  V30 BEGIN ATOM
M  V30 1 C 5.104850 -5.286188 6.439953 0
M  V30 2 N 6.096397 -4.394271 5.843216 0
M  V30 3 C 5.601011 -3.097941 5.483527 0
M  V30 4 N 5.587624 -1.964753 6.208444 0
M  V30 5 C 5.065885 -0.854409 5.666412 0
M  V30 6 C 4.551338 -0.869204 4.390020 0
M  V30 7 C 4.013927 0.263657 3.820347 0
M  V30 8 C 3.498766 0.259980 2.545484 0
M  V30 9 C 3.501565 -0.887722 1.784910 0
M  V30 10 O 3.062269 -1.166650 0.509971 0
M  V30 11 C 2.564000 -0.152154 -0.282908 0
M  V30 12 C 1.279963 -0.112129 -0.780685 0
M  V30 13 C 0.748085 0.879041 -1.573946 0
M  V30 14 C -0.622156 0.899935 -2.051728 0
M  V30 15 O -0.724791 1.531487 -3.139594 0
M  V30 16 C -1.838208 0.333804 -1.498995 0
M  V30 17 C -2.959629 0.170288 -2.281982 0
M  V30 18 C -3.314253 0.376082 -3.681000 0
M  V30 19 C -2.534245 -0.058263 -4.734628 0
M  V30 20 C -2.836992 0.124787 -6.067814 0
M  V30 21 C -4.000219 0.787821 -6.395860 0
M  V30 22 C -4.813568 1.240975 -5.382709 0
M  V30 23 C -4.474522 1.037788 -4.066682 0
M  V30 24 N -3.925543 -0.335011 -1.460002 0
M  V30 25 C -5.309451 -0.701438 -1.756622 0
M  V30 26 N -3.487973 -0.498284 -0.224033 0
M  V30 27 C -4.152714 -0.989054 0.934528 0
M  V30 28 C -3.725992 -2.127073 1.584325 0
M  V30 29 C -4.447685 -2.506580 2.700059 0
M  V30 30 C -5.534670 -1.785640 3.137480 0
M  V30 31 C -5.963760 -0.630883 2.473990 0
M  V30 32 C -5.240535 -0.255409 1.360897 0
M  V30 33 C -2.191772 -0.085585 -0.237309 0
M  V30 34 O -1.458537 -0.096160 0.763921 0
M  V30 35 C 1.635728 1.878785 -1.850273 0
M  V30 36 C 2.932616 1.921910 -1.398191 0
M  V30 37 C 3.420323 0.895702 -0.598901 0
M  V30 38 N 4.769950 1.023376 -0.184176 0
M  V30 39 C 4.048494 -2.042083 2.363697 0
M  V30 40 C 4.565384 -2.029997 3.648475 0
M  V30 41 N 5.100395 -3.103990 4.247462 0
M  V30 42 H 4.790646 -4.983481 7.446208 0
M  V30 43 H 5.493782 -6.316115 6.427473 0
M  V30 44 H 4.204675 -5.296598 5.771966 0
M  V30 45 H 7.090952 -4.748717 5.717373 0
M  V30 46 H 5.053265 0.056280 6.244846 0
M  V30 47 H 3.971002 1.220042 4.355005 0
M  V30 48 H 3.054077 1.084954 2.007656 0
M  V30 49 H 0.711213 -0.973120 -0.490838 0
M  V30 50 H -1.612415 -0.592479 -4.559769 0
M  V30 51 H -2.205620 -0.226152 -6.872196 0
M  V30 52 H -4.233198 0.928990 -7.448426 0
M  V30 53 H -5.704871 1.749192 -5.721858 0
M  V30 54 H -5.153575 1.416441 -3.318883 0
M  V30 55 H -5.579926 -1.659096 -1.253169 0
M  V30 56 H -6.026778 0.055070 -1.432765 0
M  V30 57 H -5.423788 -0.917780 -2.846153 0
M  V30 58 H -2.864029 -2.614299 1.155709 0
M  V30 59 H -4.094916 -3.398855 3.190736 0
M  V30 60 H -6.067814 -2.120757 4.014699 0
M  V30 61 H -6.820488 -0.086836 2.843076 0
M  V30 62 H -5.613674 0.650319 0.878212 0
M  V30 63 H 1.313827 2.722128 -2.478194 0
M  V30 64 H 3.569744 2.763901 -1.672099 0
M  V30 65 H 4.868916 1.786911 0.501669 0
M  V30 66 H 5.568959 0.427131 -0.523187 0
M  V30 67 H 4.129442 -3.021838 1.908605 0
M  V30 END ATOM
M  V30 BEGIN BOND
M  V30 1 1 1 2
M  V30 2 1 2 3
M  V30 3 2 3 4
M  V30 4 1 4 5
M  V30 5 2 5 6
M  V30 6 1 6 7
M  V30 7 2 7 8
M  V30 8 1 8 9
M  V30 9 1 9 10
M  V30 10 1 10 11
M  V30 11 2 11 12
M  V30 12 1 12 13
M  V30 13 1 13 14
M  V30 14 2 14 15
M  V30 15 1 14 16
M  V30 16 2 16 17
M  V30 17 1 17 18
M  V30 18 2 18 19
M  V30 19 1 19 20
M  V30 20 2 20 21
M  V30 21 1 21 22
M  V30 22 2 22 23
M  V30 23 1 17 24
M  V30 24 1 24 25
M  V30 25 1 24 26
M  V30 26 1 26 27
M  V30 27 2 27 28
M  V30 28 1 28 29
M  V30 29 2 29 30
M  V30 30 1 30 31
M  V30 31 2 31 32
M  V30 32 1 26 33
M  V30 33 2 33 34
M  V30 34 2 13 35
M  V30 35 1 35 36
M  V30 36 2 36 37
M  V30 37 1 37 38
M  V30 38 2 9 39
M  V30 39 1 39 40
M  V30 40 2 40 41
M  V30 41 1 41 3
M  V30 42 1 40 6
M  V30 43 1 37 11
M  V30 44 1 33 16
M  V30 45 1 23 18
M  V30 46 1 32 27
M  V30 47 1 1 42
M  V30 48 1 1 43
M  V30 49 1 1 44
M  V30 50 1 2 45
M  V30 51 1 5 46
M  V30 52 1 7 47
M  V30 53 1 8 48
M  V30 54 1 12 49
M  V30 55 1 19 50
M  V30 56 1 20 51
M  V30 57 1 21 52
M  V30 58 1 22 53
M  V30 59 1 23 54
M  V30 60 1 25 55
M  V30 61 1 25 56
M  V30 62 1 25 57
M  V30 63 1 28 58
M  V30 64 1 29 59
M  V30 65 1 30 60
M  V30 66 1 31 61
M  V30 67 1 32 62
M  V30 68 1 35 63
M  V30 69 1 36 64
M  V30 70 1 38 65
M  V30 71 1 38 66
M  V30 72 1 39 67
M  V30 END BOND
M  V30 END CTAB
M  END
>  <Dataset>  (827) 
ChEMBL_Kinases

>  <Ligand_Instance>  (827) 
nan

>  <PDB_ID>  (827) 
nan

>  <Standardized_SMILES>  (827) 
CNc1ncc2ccc(Oc3cc(C(=O)c4c(-c5ccccc5)n(C)n(-c5ccccc5)c4=O)ccc3N)cc2n1

>  <Name>  (827) 
nan

>  <Pocket>  (827) 
nan

>  <ATP_Site>  (827) 
nan

>  <Peripheral>  (827) 
nan

>  <Num_H_Atoms_ProtBoundConf>  (827) 
nan

>  <Num_Resolved_Atoms>  (827) 
nan

>  <Num_Not_Resolved_Atoms>  (827) 
nan

$$$$
CHEMBL3401987
     RDKit          3D

  0  0  0  0  0  0  0  0  0  0999 V3000
M  V30 BEGIN CTAB
M  V30 COUNTS 52 56 0 0 0
M  V30 BEGIN ATOM
M  V30 1 C -0.726538 -0.246045 4.725152 0
M  V30 2 C 0.522066 -1.078817 4.574943 0
M  V30 3 O 1.154609 -1.208609 5.801188 0
M  V30 4 C 1.413179 -0.417399 3.547776 0 CFG=1
M  V30 5 C 2.699638 -1.224499 3.360215 0
M  V30 6 C 3.707045 -0.281742 2.741117 0
M  V30 7 C 3.004275 0.377077 1.576273 0
M  V30 8 C 1.800636 -0.430814 1.145817 0
M  V30 9 C 2.235222 -1.870572 1.006893 0
M  V30 10 C 2.514265 -2.380112 2.402437 0
M  V30 11 C 0.700075 -0.418211 2.215800 0 CFG=2
M  V30 12 N -0.135241 0.757649 2.051762 0
M  V30 13 C -0.931713 0.865117 0.854934 0
M  V30 14 N -0.933786 -0.078327 -0.102921 0
M  V30 15 C -1.661770 -0.013508 -1.230475 0
M  V30 16 C -1.599663 -1.088035 -2.214637 0
M  V30 17 C -0.842198 -2.224771 -2.119822 0
M  V30 18 N -1.060316 -2.968375 -3.229100 0
M  V30 19 C -1.942136 -2.334873 -4.036441 0
M  V30 20 N -2.475097 -2.660077 -5.239760 0
M  V30 21 C -3.349539 -1.858688 -5.865486 0
M  V30 22 C -3.736632 -0.661029 -5.290976 0
M  V30 23 F -4.612438 0.190444 -5.868441 0
M  V30 24 C -3.179811 -0.343882 -4.056607 0
M  V30 25 C -2.271729 -1.163286 -3.393839 0
M  V30 26 N -2.471729 1.058392 -1.473650 0
M  V30 27 C -2.478005 2.008515 -0.522917 0
M  V30 28 C -1.743804 1.971096 0.642675 0
M  V30 29 F -1.792258 2.954417 1.557073 0
M  V30 30 H -1.344231 -0.631186 5.585340 0
M  V30 31 H -1.355436 -0.259408 3.814724 0
M  V30 32 H -0.528275 0.817578 4.976704 0
M  V30 33 H 0.204707 -2.067706 4.189201 0
M  V30 34 H 1.041033 -2.118462 6.136886 0
M  V30 35 H 1.673483 0.615577 3.863454 0
M  V30 36 H 3.054731 -1.615211 4.340150 0
M  V30 37 H 4.542878 -0.900203 2.313358 0
M  V30 38 H 4.101651 0.466382 3.468086 0
M  V30 39 H 3.666246 0.423399 0.678127 0
M  V30 40 H 2.745912 1.432963 1.795060 0
M  V30 41 H 1.411500 -0.020214 0.189765 0
M  V30 42 H 3.108194 -1.983095 0.333125 0
M  V30 43 H 1.353000 -2.445013 0.620859 0
M  V30 44 H 3.462877 -2.924508 2.369152 0
M  V30 45 H 1.740297 -3.094159 2.749053 0
M  V30 46 H 0.082771 -1.338032 2.170232 0
M  V30 47 H -0.199053 1.525791 2.727317 0
M  V30 48 H -0.171313 -2.524220 -1.321380 0
M  V30 49 H -0.638403 -3.891202 -3.468872 0
M  V30 50 H -3.806631 -2.067603 -6.826796 0
M  V30 51 H -3.468113 0.587898 -3.588306 0
M  V30 52 H -3.120091 2.883056 -0.690535 0
M  V30 END ATOM
M  V30 BEGIN BOND
M  V30 1 1 1 2
M  V30 2 1 2 3
M  V30 3 1 2 4
M  V30 4 1 4 5
M  V30 5 1 5 6
M  V30 6 1 6 7
M  V30 7 1 7 8
M  V30 8 1 8 9
M  V30 9 1 9 10
M  V30 10 1 8 11
M  V30 11 1 11 12
M  V30 12 1 12 13
M  V30 13 2 13 14
M  V30 14 1 14 15
M  V30 15 1 15 16
M  V30 16 2 16 17
M  V30 17 1 17 18
M  V30 18 1 18 19
M  V30 19 2 19 20
M  V30 20 1 20 21
M  V30 21 2 21 22
M  V30 22 1 22 23
M  V30 23 1 22 24
M  V30 24 2 24 25
M  V30 25 2 15 26
M  V30 26 1 26 27
M  V30 27 2 27 28
M  V30 28 1 28 29
M  V30 29 1 11 4
M  V30 30 1 28 13
M  V30 31 1 10 5
M  V30 32 1 25 16
M  V30 33 1 25 19
M  V30 34 1 1 30
M  V30 35 1 1 31
M  V30 36 1 1 32
M  V30 37 1 2 33
M  V30 38 1 3 34
M  V30 39 1 4 35 CFG=1
M  V30 40 1 5 36
M  V30 41 1 6 37
M  V30 42 1 6 38
M  V30 43 1 7 39
M  V30 44 1 7 40
M  V30 45 1 8 41
M  V30 46 1 9 42
M  V30 47 1 9 43
M  V30 48 1 10 44
M  V30 49 1 10 45
M  V30 50 1 11 46 CFG=1
M  V30 51 1 12 47
M  V30 52 1 17 48
M  V30 53 1 18 49
M  V30 54 1 21 50
M  V30 55 1 24 51
M  V30 56 1 27 52
M  V30 END BOND
M  V30 END CTAB
M  END
>  <Dataset>  (828) 
ChEMBL_Kinases

>  <Ligand_Instance>  (828) 
nan

>  <PDB_ID>  (828) 
nan

>  <Standardized_SMILES>  (828) 
CC(O)[C@H]1C2CCC(CC2)[C@@H]1Nc1nc(-c2c[nH]c3ncc(F)cc23)ncc1F

>  <Name>  (828) 
nan

>  <Pocket>  (828) 
nan

>  <ATP_Site>  (828) 
nan

>  <Peripheral>  (828) 
nan

>  <Num_H_Atoms_ProtBoundConf>  (828) 
nan

>  <Num_Resolved_Atoms>  (828) 
nan

>  <Num_Not_Resolved_Atoms>  (828) 
nan

$$$$
CHEMBL4100435
     RDKit          3D

  0  0  0  0  0  0  0  0  0  0999 V3000
M  V30 BEGIN CTAB
M  V30 COUNTS 43 46 0 0 0
M  V30 BEGIN ATOM
M  V30 1 N 1.627735 -5.168406 3.232227 0
M  V30 2 C 2.432330 -5.113311 2.059217 0
M  V30 3 O 3.195774 -6.115019 1.933344 0
M  V30 4 C 2.371274 -3.998773 1.100461 0
M  V30 5 C 3.215477 -4.095712 0.014690 0
M  V30 6 C 3.145390 -3.040203 -0.876169 0
M  V30 7 Cl 4.161703 -3.020522 -2.310984 0
M  V30 8 C 2.285095 -1.982157 -0.668096 0
M  V30 9 C 1.976462 -0.815242 -1.330809 0
M  V30 10 Cl 2.762574 -0.374855 -2.838799 0
M  V30 11 C 1.009737 -0.149234 -0.607233 0
M  V30 12 C 0.469989 1.115908 -1.039776 0
M  V30 13 C -0.001518 2.168181 -1.399942 0
M  V30 14 C -0.566856 3.424734 -1.837007 0
M  V30 15 C -2.057593 3.644390 -1.670694 0
M  V30 16 C -1.451568 3.500818 -3.028074 0
M  V30 17 N 0.698888 -0.875888 0.506528 0
M  V30 18 C -0.283667 -0.389325 1.420204 0
M  V30 19 C 0.293699 0.793758 2.149597 0
M  V30 20 C -0.738738 1.319167 3.096412 0
M  V30 21 C -1.063122 0.189230 4.076858 0
M  V30 22 N -1.670095 -0.900353 3.340877 0
M  V30 23 C -0.780702 -1.459335 2.349419 0
M  V30 24 C 1.481592 -1.981913 0.451511 0
M  V30 25 N 1.517226 -2.987864 1.343971 0
M  V30 26 H 1.810416 -4.682847 4.153317 0
M  V30 27 H 0.718313 -5.659291 3.482211 0
M  V30 28 H 3.880963 -4.931069 -0.130433 0
M  V30 29 H 0.110820 4.304644 -1.683684 0
M  V30 30 H -2.673412 2.841238 -1.240158 0
M  V30 31 H -2.320950 4.657532 -1.301054 0
M  V30 32 H -1.656576 2.537660 -3.535251 0
M  V30 33 H -1.393562 4.418013 -3.662111 0
M  V30 34 H -1.163198 -0.045822 0.839151 0
M  V30 35 H 0.585731 1.540832 1.395480 0
M  V30 36 H 1.166984 0.473766 2.769944 0
M  V30 37 H -1.650888 1.680473 2.590502 0
M  V30 38 H -0.335296 2.154615 3.689262 0
M  V30 39 H -1.795353 0.577094 4.790579 0
M  V30 40 H -0.114421 -0.079329 4.570159 0
M  V30 41 H -1.847246 -1.669159 4.053097 0
M  V30 42 H -0.002067 -2.008689 2.891968 0
M  V30 43 H -1.376379 -2.177115 1.748082 0
M  V30 END ATOM
M  V30 BEGIN BOND
M  V30 1 1 1 2
M  V30 2 2 2 3
M  V30 3 1 2 4
M  V30 4 2 4 5
M  V30 5 1 5 6
M  V30 6 1 6 7
M  V30 7 2 6 8
M  V30 8 1 8 9
M  V30 9 1 9 10
M  V30 10 2 9 11
M  V30 11 1 11 12
M  V30 12 3 12 13
M  V30 13 1 13 14
M  V30 14 1 14 15
M  V30 15 1 15 16
M  V30 16 1 11 17
M  V30 17 1 17 18
M  V30 18 1 18 19
M  V30 19 1 19 20
M  V30 20 1 20 21
M  V30 21 1 21 22
M  V30 22 1 22 23
M  V30 23 1 17 24
M  V30 24 2 24 25
M  V30 25 1 25 4
M  V30 26 1 24 8
M  V30 27 1 16 14
M  V30 28 1 23 18
M  V30 29 1 1 26
M  V30 30 1 1 27
M  V30 31 1 5 28
M  V30 32 1 14 29
M  V30 33 1 15 30
M  V30 34 1 15 31
M  V30 35 1 16 32
M  V30 36 1 16 33
M  V30 37 1 18 34
M  V30 38 1 19 35
M  V30 39 1 19 36
M  V30 40 1 20 37
M  V30 41 1 20 38
M  V30 42 1 21 39
M  V30 43 1 21 40
M  V30 44 1 22 41
M  V30 45 1 23 42
M  V30 46 1 23 43
M  V30 END BOND
M  V30 END CTAB
M  END
>  <Dataset>  (829) 
ChEMBL_Kinases

>  <Ligand_Instance>  (829) 
nan

>  <PDB_ID>  (829) 
nan

>  <Standardized_SMILES>  (829) 
NC(=O)c1cc(Cl)c2c(Cl)c(C#CC3CC3)n(C3CCCNC3)c2n1

>  <Name>  (829) 
nan

>  <Pocket>  (829) 
nan

>  <ATP_Site>  (829) 
nan

>  <Peripheral>  (829) 
nan

>  <Num_H_Atoms_ProtBoundConf>  (829) 
nan

>  <Num_Resolved_Atoms>  (829) 
nan

>  <Num_Not_Resolved_Atoms>  (829) 
nan

$$$$
CHEMBL4100292
     RDKit          3D

  0  0  0  0  0  0  0  0  0  0999 V3000
M  V30 BEGIN CTAB
M  V30 COUNTS 59 62 0 0 0
M  V30 BEGIN ATOM
M  V30 1 C 9.640136 -0.872604 5.765129 0
M  V30 2 C 8.411553 -0.438757 5.975982 0
M  V30 3 C 7.229422 -0.017811 5.245052 0
M  V30 4 O 6.376812 0.283620 6.113138 0
M  V30 5 N 7.337982 -0.053924 3.834425 0
M  V30 6 C 6.272243 0.325851 2.977760 0
M  V30 7 C 5.370650 -0.667336 2.604901 0
M  V30 8 C 4.293072 -0.434357 1.772560 0
M  V30 9 C 4.074982 0.831946 1.271962 0
M  V30 10 C 3.011520 1.288108 0.383458 0
M  V30 11 O 2.815629 2.431704 -0.078671 0
M  V30 12 N 2.047450 0.375215 -0.049763 0
M  V30 13 C 0.890937 0.358001 -0.876008 0
M  V30 14 C -0.366255 0.577635 -0.339682 0
M  V30 15 C -1.434278 0.558690 -1.209372 0
M  V30 16 C -1.326805 0.335588 -2.568928 0
M  V30 17 N -2.457147 0.304210 -3.406210 0
M  V30 18 C -3.759377 -0.211335 -3.238420 0
M  V30 19 C -4.180457 -0.972159 -2.171382 0
M  V30 20 C -5.463213 -1.447770 -2.022727 0
M  V30 21 C -5.801299 -2.240425 -0.861562 0
M  V30 22 N -4.892809 -2.527503 0.084085 0
M  V30 23 C -5.437521 -3.271789 1.058178 0
M  V30 24 S -4.756556 -3.957565 2.557892 0
M  V30 25 C -3.003641 -3.527757 2.726709 0
M  V30 26 N -6.719985 -3.488152 0.768258 0
M  V30 27 C -6.942776 -2.850323 -0.417858 0
M  V30 28 C -8.234342 -2.817890 -1.132183 0
M  V30 29 C -6.289179 -1.084969 -3.054544 0
M  V30 30 C -5.927281 -0.329304 -4.144179 0
M  V30 31 N -4.663605 0.091243 -4.209670 0
M  V30 32 C -0.039183 0.126534 -3.014719 0
M  V30 33 C 1.091912 0.125848 -2.230231 0
M  V30 34 C 4.955513 1.853657 1.622401 0
M  V30 35 C 6.016124 1.576386 2.454924 0
M  V30 36 H 10.644561 -1.227821 5.737021 0
M  V30 37 H 10.147291 -1.047985 4.809259 0
M  V30 38 H 8.700371 -0.544856 7.008425 0
M  V30 39 H 8.211798 -0.362577 3.368676 0
M  V30 40 H 5.405255 -1.713770 2.915208 0
M  V30 41 H 3.572757 -1.174676 1.460800 0
M  V30 42 H 2.040304 -0.649564 0.237628 0
M  V30 43 H -0.413968 0.747246 0.718917 0
M  V30 44 H -2.370968 0.751823 -0.700467 0
M  V30 45 H -2.196720 0.778580 -4.305830 0
M  V30 46 H -3.422297 -1.192713 -1.437275 0
M  V30 47 H -3.889412 -2.298977 0.209651 0
M  V30 48 H -2.838141 -2.531901 2.276768 0
M  V30 49 H -2.755161 -3.496015 3.800575 0
M  V30 50 H -2.393404 -4.275675 2.154395 0
M  V30 51 H -8.971536 -3.459087 -0.554973 0
M  V30 52 H -8.108250 -3.379285 -2.081787 0
M  V30 53 H -8.704545 -1.837772 -1.213374 0
M  V30 54 H -7.316920 -1.400249 -3.044237 0
M  V30 55 H -6.637972 -0.082599 -4.921286 0
M  V30 56 H 0.089199 -0.053870 -4.084868 0
M  V30 57 H 2.088906 -0.039267 -2.600051 0
M  V30 58 H 4.904608 2.901105 1.301394 0
M  V30 59 H 6.742885 2.342464 2.764276 0
M  V30 END ATOM
M  V30 BEGIN BOND
M  V30 1 2 1 2
M  V30 2 1 2 3
M  V30 3 2 3 4
M  V30 4 1 3 5
M  V30 5 1 5 6
M  V30 6 2 6 7
M  V30 7 1 7 8
M  V30 8 2 8 9
M  V30 9 1 9 10
M  V30 10 2 10 11
M  V30 11 1 10 12
M  V30 12 1 12 13
M  V30 13 2 13 14
M  V30 14 1 14 15
M  V30 15 2 15 16
M  V30 16 1 16 17
M  V30 17 1 17 18
M  V30 18 2 18 19
M  V30 19 1 19 20
M  V30 20 1 20 21
M  V30 21 1 21 22
M  V30 22 1 22 23
M  V30 23 1 23 24
M  V30 24 1 24 25
M  V30 25 2 23 26
M  V30 26 1 26 27
M  V30 27 1 27 28
M  V30 28 2 20 29
M  V30 29 1 29 30
M  V30 30 2 30 31
M  V30 31 1 16 32
M  V30 32 2 32 33
M  V30 33 1 9 34
M  V30 34 2 34 35
M  V30 35 1 35 6
M  V30 36 1 33 13
M  V30 37 1 31 18
M  V30 38 2 27 21
M  V30 39 1 1 36
M  V30 40 1 1 37
M  V30 41 1 2 38
M  V30 42 1 5 39
M  V30 43 1 7 40
M  V30 44 1 8 41
M  V30 45 1 12 42
M  V30 46 1 14 43
M  V30 47 1 15 44
M  V30 48 1 17 45
M  V30 49 1 19 46
M  V30 50 1 22 47
M  V30 51 1 25 48
M  V30 52 1 25 49
M  V30 53 1 25 50
M  V30 54 1 28 51
M  V30 55 1 28 52
M  V30 56 1 28 53
M  V30 57 1 29 54
M  V30 58 1 30 55
M  V30 59 1 32 56
M  V30 60 1 33 57
M  V30 61 1 34 58
M  V30 62 1 35 59
M  V30 END BOND
M  V30 END CTAB
M  END
>  <Dataset>  (830) 
ChEMBL_Kinases

>  <Ligand_Instance>  (830) 
nan

>  <PDB_ID>  (830) 
nan

>  <Standardized_SMILES>  (830) 
C=CC(=O)Nc1ccc(C(=O)Nc2ccc(Nc3cc(-c4[nH]c(SC)nc4C)ccn3)cc2)cc1

>  <Name>  (830) 
nan

>  <Pocket>  (830) 
nan

>  <ATP_Site>  (830) 
nan

>  <Peripheral>  (830) 
nan

>  <Num_H_Atoms_ProtBoundConf>  (830) 
nan

>  <Num_Resolved_Atoms>  (830) 
nan

>  <Num_Not_Resolved_Atoms>  (830) 
nan

$$$$
CHEMBL3793927
     RDKit          3D

  0  0  0  0  0  0  0  0  0  0999 V3000
M  V30 BEGIN CTAB
M  V30 COUNTS 47 50 0 0 0
M  V30 BEGIN ATOM
M  V30 1 N 0.786715 0.688773 6.341325 0
M  V30 2 C 1.213072 0.232386 5.063929 0
M  V30 3 C 1.538633 1.096147 4.054479 0
M  V30 4 C 1.963600 0.703155 2.779496 0
M  V30 5 C 2.270104 1.791995 1.861341 0
M  V30 6 C 3.156649 2.729936 2.401230 0
M  V30 7 C 3.613313 3.836699 1.719764 0
M  V30 8 N 3.139622 3.971706 0.452413 0
M  V30 9 C 2.284293 3.063668 -0.062546 0
M  V30 10 C 1.807352 1.954935 0.577754 0
M  V30 11 N 0.916545 1.008580 0.067949 0
M  V30 12 C 0.323149 0.927773 -1.204696 0
M  V30 13 O 0.585244 1.802061 -2.067251 0
M  V30 14 C -0.602044 -0.103521 -1.650941 0
M  V30 15 N -0.998118 -1.121505 -0.862495 0
M  V30 16 C -1.853571 -2.087572 -1.253795 0
M  V30 17 C -2.126820 -3.078869 -0.218851 0
M  V30 18 C -3.120420 -3.066560 0.740607 0
M  V30 19 F -3.929355 -1.980438 0.687560 0
M  V30 20 C -3.215892 -4.106255 1.639685 0
M  V30 21 C -2.337906 -5.172124 1.609697 0
M  V30 22 C -1.345267 -5.183725 0.650627 0
M  V30 23 C -1.224356 -4.141655 -0.275101 0
M  V30 24 F -0.207465 -4.264458 -1.171617 0
M  V30 25 C -2.373994 -2.070602 -2.519213 0
M  V30 26 C -2.002956 -1.048564 -3.374038 0
M  V30 27 C -1.112079 -0.064248 -2.929575 0
M  V30 28 N -0.759377 0.975211 -3.857580 0
M  V30 29 C 2.038777 -0.655903 2.591543 0
M  V30 30 C 1.714064 -1.526735 3.597945 0
M  V30 31 N 1.311396 -1.088022 4.803474 0
M  V30 32 H -0.152686 1.147027 6.281408 0
M  V30 33 H 1.242945 0.640193 7.284132 0
M  V30 34 H 1.444530 2.148963 4.309689 0
M  V30 35 H 3.551950 2.652570 3.404498 0
M  V30 36 H 4.297521 4.553202 2.147807 0
M  V30 37 H 1.982531 3.281549 -1.071561 0
M  V30 38 H 0.582206 0.213694 0.649627 0
M  V30 39 H -4.006902 -4.049959 2.367470 0
M  V30 40 H -2.421277 -5.983104 2.319672 0
M  V30 41 H -0.640751 -6.028659 0.618544 0
M  V30 42 H -3.059954 -2.879288 -2.775159 0
M  V30 43 H -2.414269 -1.043057 -4.360723 0
M  V30 44 H -1.267554 1.832964 -3.541311 0
M  V30 45 H -0.168040 1.093803 -4.709574 0
M  V30 46 H 2.374626 -0.957843 1.612926 0
M  V30 47 H 1.792303 -2.588600 3.391035 0
M  V30 END ATOM
M  V30 BEGIN BOND
M  V30 1 1 1 2
M  V30 2 2 2 3
M  V30 3 1 3 4
M  V30 4 1 4 5
M  V30 5 2 5 6
M  V30 6 1 6 7
M  V30 7 2 7 8
M  V30 8 1 8 9
M  V30 9 2 9 10
M  V30 10 1 10 11
M  V30 11 1 11 12
M  V30 12 2 12 13
M  V30 13 1 12 14
M  V30 14 2 14 15
M  V30 15 1 15 16
M  V30 16 1 16 17
M  V30 17 2 17 18
M  V30 18 1 18 19
M  V30 19 1 18 20
M  V30 20 2 20 21
M  V30 21 1 21 22
M  V30 22 2 22 23
M  V30 23 1 23 24
M  V30 24 2 16 25
M  V30 25 1 25 26
M  V30 26 2 26 27
M  V30 27 1 27 28
M  V30 28 2 4 29
M  V30 29 1 29 30
M  V30 30 2 30 31
M  V30 31 1 31 2
M  V30 32 1 10 5
M  V30 33 1 27 14
M  V30 34 1 23 17
M  V30 35 1 1 32
M  V30 36 1 1 33
M  V30 37 1 3 34
M  V30 38 1 6 35
M  V30 39 1 7 36
M  V30 40 1 9 37
M  V30 41 1 11 38
M  V30 42 1 20 39
M  V30 43 1 21 40
M  V30 44 1 22 41
M  V30 45 1 25 42
M  V30 46 1 26 43
M  V30 47 1 28 44
M  V30 48 1 28 45
M  V30 49 1 29 46
M  V30 50 1 30 47
M  V30 END BOND
M  V30 END CTAB
M  END
>  <Dataset>  (831) 
ChEMBL_Kinases

>  <Ligand_Instance>  (831) 
nan

>  <PDB_ID>  (831) 
nan

>  <Standardized_SMILES>  (831) 
Nc1cc(-c2ccncc2NC(=O)c2nc(-c3c(F)cccc3F)ccc2N)ccn1

>  <Name>  (831) 
nan

>  <Pocket>  (831) 
nan

>  <ATP_Site>  (831) 
nan

>  <Peripheral>  (831) 
nan

>  <Num_H_Atoms_ProtBoundConf>  (831) 
nan

>  <Num_Resolved_Atoms>  (831) 
nan

>  <Num_Not_Resolved_Atoms>  (831) 
nan

$$$$
CHEMBL4100175
     RDKit          3D

  0  0  0  0  0  0  0  0  0  0999 V3000
M  V30 BEGIN CTAB
M  V30 COUNTS 49 52 0 0 0
M  V30 BEGIN ATOM
M  V30 1 O -1.215847 0.365377 1.955710 0
M  V30 2 C -0.273609 1.180565 2.146440 0
M  V30 3 N -0.469106 2.525617 1.800219 0
M  V30 4 C -1.649434 3.124609 1.232218 0
M  V30 5 C -1.686304 2.779164 -0.212052 0
M  V30 6 C -1.022270 3.658451 -1.077812 0
M  V30 7 C -0.941960 3.520799 -2.441262 0
M  V30 8 C -1.561962 2.430249 -3.022784 0
M  V30 9 C -2.217648 1.556457 -2.196332 0
M  V30 10 C -2.291075 1.705869 -0.829441 0
M  V30 11 C 0.966082 0.663452 2.720045 0
M  V30 12 C 2.051639 1.482044 2.921163 0
M  V30 13 C 3.205315 0.973064 3.469652 0
M  V30 14 C 3.283100 -0.350307 3.819694 0
M  V30 15 C 2.203348 -1.220087 3.633066 0
M  V30 16 N 2.321755 -2.581721 4.021724 0
M  V30 17 C 1.334627 -3.635399 3.895454 0
M  V30 18 C 1.056745 -3.930435 2.468301 0
M  V30 19 N 0.326036 -3.649125 1.505363 0
M  V30 20 C 0.440119 -4.192437 0.328631 0
M  V30 21 C -0.464051 -3.805865 -0.741632 0
M  V30 22 C -0.404881 -4.335999 -2.010877 0
M  V30 23 C -1.251411 -3.979367 -3.016657 0
M  V30 24 N -2.218720 -3.058262 -2.804124 0
M  V30 25 C -2.344042 -2.497361 -1.605823 0
M  V30 26 C -1.473721 -2.881478 -0.618146 0
M  V30 27 C 1.476603 -5.196269 0.086281 0
M  V30 28 S 2.262762 -5.240040 1.810237 0
M  V30 29 C 1.090845 -0.660445 3.087406 0
M  V30 30 H 0.315174 3.195578 1.961315 0
M  V30 31 H -2.580945 2.794860 1.741241 0
M  V30 32 H -1.657988 4.228675 1.307498 0
M  V30 33 H -0.512970 4.542557 -0.662090 0
M  V30 34 H -0.409195 4.244911 -3.040335 0
M  V30 35 H -1.516059 2.296342 -4.087321 0
M  V30 36 H -2.725442 0.675418 -2.610924 0
M  V30 37 H -2.801189 1.035978 -0.163795 0
M  V30 38 H 2.073788 2.518795 2.677300 0
M  V30 39 H 4.074681 1.598649 3.637854 0
M  V30 40 H 4.202115 -0.736671 4.251779 0
M  V30 41 H 3.249856 -2.870188 4.460404 0
M  V30 42 H 0.373912 -3.205891 4.318236 0
M  V30 43 H 1.644007 -4.520272 4.486751 0
M  V30 44 H 0.329718 -5.077316 -2.284505 0
M  V30 45 H -1.195302 -4.402445 -4.008127 0
M  V30 46 H -3.096876 -1.768268 -1.407668 0
M  V30 47 H -1.582967 -2.415655 0.364539 0
M  V30 48 H 1.646070 -5.731636 -0.941133 0
M  V30 49 H 0.229580 -1.261988 2.919921 0
M  V30 END ATOM
M  V30 BEGIN BOND
M  V30 1 2 1 2
M  V30 2 1 2 3
M  V30 3 1 3 4
M  V30 4 1 4 5
M  V30 5 2 5 6
M  V30 6 1 6 7
M  V30 7 2 7 8
M  V30 8 1 8 9
M  V30 9 2 9 10
M  V30 10 1 2 11
M  V30 11 2 11 12
M  V30 12 1 12 13
M  V30 13 2 13 14
M  V30 14 1 14 15
M  V30 15 1 15 16
M  V30 16 1 16 17
M  V30 17 1 17 18
M  V30 18 2 18 19
M  V30 19 1 19 20
M  V30 20 1 20 21
M  V30 21 2 21 22
M  V30 22 1 22 23
M  V30 23 2 23 24
M  V30 24 1 24 25
M  V30 25 2 25 26
M  V30 26 2 20 27
M  V30 27 1 27 28
M  V30 28 2 15 29
M  V30 29 1 10 5
M  V30 30 1 29 11
M  V30 31 1 28 18
M  V30 32 1 26 21
M  V30 33 1 3 30
M  V30 34 1 4 31
M  V30 35 1 4 32
M  V30 36 1 6 33
M  V30 37 1 7 34
M  V30 38 1 8 35
M  V30 39 1 9 36
M  V30 40 1 10 37
M  V30 41 1 12 38
M  V30 42 1 13 39
M  V30 43 1 14 40
M  V30 44 1 16 41
M  V30 45 1 17 42
M  V30 46 1 17 43
M  V30 47 1 22 44
M  V30 48 1 23 45
M  V30 49 1 25 46
M  V30 50 1 26 47
M  V30 51 1 27 48
M  V30 52 1 29 49
M  V30 END BOND
M  V30 END CTAB
M  END
>  <Dataset>  (832) 
ChEMBL_Kinases

>  <Ligand_Instance>  (832) 
nan

>  <PDB_ID>  (832) 
nan

>  <Standardized_SMILES>  (832) 
O=C(NCc1ccccc1)c1cccc(NCc2nc(-c3ccncc3)cs2)c1

>  <Name>  (832) 
nan

>  <Pocket>  (832) 
nan

>  <ATP_Site>  (832) 
nan

>  <Peripheral>  (832) 
nan

>  <Num_H_Atoms_ProtBoundConf>  (832) 
nan

>  <Num_Resolved_Atoms>  (832) 
nan

>  <Num_Not_Resolved_Atoms>  (832) 
nan

$$$$
CHEMBL3793945
     RDKit          3D

  0  0  0  0  0  0  0  0  0  0999 V3000
M  V30 BEGIN CTAB
M  V30 COUNTS 53 57 0 0 0
M  V30 BEGIN ATOM
M  V30 1 C 7.116161 -2.871836 -0.032065 0
M  V30 2 O 6.572195 -1.570033 -0.027676 0
M  V30 3 C 5.459056 -1.267618 -0.790974 0
M  V30 4 O 5.074989 -2.286279 -1.428320 0
M  V30 5 C 4.891604 0.094876 -0.775304 0
M  V30 6 C 5.491245 1.046170 0.010369 0
M  V30 7 C 4.905135 2.289834 -0.002506 0
M  V30 8 C 3.767738 2.579233 -0.764977 0
M  V30 9 C 3.230740 1.544059 -1.531431 0
M  V30 10 N 2.037570 1.941237 -2.268451 0
M  V30 11 C 0.932189 1.606794 -1.386392 0
M  V30 12 O 1.595258 1.147890 -0.461726 0
M  V30 13 C -0.286893 1.962159 -2.008219 0
M  V30 14 C -0.963634 1.415319 -0.770575 0
M  V30 15 C -2.362167 1.328872 -0.432715 0
M  V30 16 N -2.992048 0.817960 0.744507 0
M  V30 17 C -3.009310 -0.482340 1.080964 0
M  V30 18 C -3.669755 -0.545002 2.288729 0
M  V30 19 C -3.889164 -1.814956 3.022671 0
M  V30 20 C -4.555432 -1.616045 4.207779 0
M  V30 21 C -4.776148 -2.784825 4.952263 0
M  V30 22 C -4.329156 -4.006741 4.467840 0
M  V30 23 N -4.550784 -5.111240 5.210421 0
M  V30 24 C -4.140690 -6.354713 4.814489 0
M  V30 25 C -3.472381 -6.479573 3.601911 0
M  V30 26 N -3.250009 -5.367017 2.856078 0
M  V30 27 C -3.662640 -4.153045 3.267033 0
M  V30 28 C -3.431144 -2.998522 2.505847 0
M  V30 29 N -4.021673 0.701828 2.629626 0
M  V30 30 N -3.601944 1.539446 1.674053 0
M  V30 31 C -3.282168 1.803755 -1.340754 0
M  V30 32 C -2.797573 2.328127 -2.509391 0
M  V30 33 C -1.457112 2.289090 -2.574359 0
M  V30 34 O -0.650624 2.769832 -3.681847 0
M  V30 35 C 3.778518 0.252071 -1.565409 0
M  V30 36 H 6.414446 -3.623315 -0.419276 0
M  V30 37 H 7.413038 -3.194293 1.006359 0
M  V30 38 H 8.063798 -2.874683 -0.631748 0
M  V30 39 H 6.363094 0.818607 0.594752 0
M  V30 40 H 5.286287 3.107868 0.574554 0
M  V30 41 H 3.334257 3.569179 -0.748680 0
M  V30 42 H 1.933830 2.384771 -3.240221 0
M  V30 43 H -0.644533 0.936451 0.210025 0
M  V30 44 H -2.591934 -1.305191 0.518932 0
M  V30 45 H -4.894467 -0.674224 4.573217 0
M  V30 46 H -5.293813 -2.715820 5.899071 0
M  V30 47 H -4.336393 -7.237423 5.440352 0
M  V30 48 H -3.158067 -7.465075 3.310804 0
M  V30 49 H -2.913786 -3.061621 1.559510 0
M  V30 50 H -4.349582 1.864253 -1.356504 0
M  V30 51 H -3.165668 2.768285 -3.406817 0
M  V30 52 H -0.856555 2.402613 -4.607522 0
M  V30 53 H 3.282163 -0.463127 -2.190693 0
M  V30 END ATOM
M  V30 BEGIN BOND
M  V30 1 1 1 2
M  V30 2 1 2 3
M  V30 3 2 3 4
M  V30 4 1 3 5
M  V30 5 2 5 6
M  V30 6 1 6 7
M  V30 7 2 7 8
M  V30 8 1 8 9
M  V30 9 1 9 10
M  V30 10 1 10 11
M  V30 11 2 11 12
M  V30 12 1 11 13
M  V30 13 2 13 14
M  V30 14 1 14 15
M  V30 15 1 15 16
M  V30 16 1 16 17
M  V30 17 2 17 18
M  V30 18 1 18 19
M  V30 19 2 19 20
M  V30 20 1 20 21
M  V30 21 2 21 22
M  V30 22 1 22 23
M  V30 23 2 23 24
M  V30 24 1 24 25
M  V30 25 2 25 26
M  V30 26 1 26 27
M  V30 27 2 27 28
M  V30 28 1 18 29
M  V30 29 2 29 30
M  V30 30 2 15 31
M  V30 31 1 31 32
M  V30 32 2 32 33
M  V30 33 1 33 34
M  V30 34 2 9 35
M  V30 35 1 35 5
M  V30 36 1 33 13
M  V30 37 1 30 16
M  V30 38 1 28 19
M  V30 39 1 27 22
M  V30 40 1 1 36
M  V30 41 1 1 37
M  V30 42 1 1 38
M  V30 43 1 6 39
M  V30 44 1 7 40
M  V30 45 1 8 41
M  V30 46 1 10 42
M  V30 47 1 14 43
M  V30 48 1 17 44
M  V30 49 1 20 45
M  V30 50 1 21 46
M  V30 51 1 24 47
M  V30 52 1 25 48
M  V30 53 1 28 49
M  V30 54 1 31 50
M  V30 55 1 32 51
M  V30 56 1 34 52
M  V30 57 1 35 53
M  V30 END BOND
M  V30 END CTAB
M  END
>  <Dataset>  (833) 
ChEMBL_Kinases

>  <Ligand_Instance>  (833) 
nan

>  <PDB_ID>  (833) 
nan

>  <Standardized_SMILES>  (833) 
COC(=O)c1cccc(NC(=O)c2cc(-n3cc(-c4ccc5nccnc5c4)nn3)ccc2O)c1

>  <Name>  (833) 
nan

>  <Pocket>  (833) 
nan

>  <ATP_Site>  (833) 
nan

>  <Peripheral>  (833) 
nan

>  <Num_H_Atoms_ProtBoundConf>  (833) 
nan

>  <Num_Resolved_Atoms>  (833) 
nan

>  <Num_Not_Resolved_Atoms>  (833) 
nan

$$$$
CHEMBL3794572
     RDKit          3D

  0  0  0  0  0  0  0  0  0  0999 V3000
M  V30 BEGIN CTAB
M  V30 COUNTS 51 54 0 0 0
M  V30 BEGIN ATOM
M  V30 1 C 7.300735 -2.997076 2.817263 0
M  V30 2 O 6.514749 -1.859650 2.536075 0
M  V30 3 C 6.306261 -0.815952 3.424479 0
M  V30 4 O 6.779595 -0.720683 4.606462 0
M  V30 5 C 5.470580 0.308607 3.015481 0
M  V30 6 C 5.239070 1.366548 3.870987 0
M  V30 7 C 4.453879 2.447914 3.518827 0
M  V30 8 C 3.863706 2.490774 2.254786 0
M  V30 9 C 4.075284 1.449013 1.375710 0
M  V30 10 N 3.497529 1.425699 0.053517 0
M  V30 11 C 2.240463 0.790036 0.140016 0
M  V30 12 O 2.003805 0.438885 1.329012 0
M  V30 13 C 1.260220 0.512230 -0.896332 0
M  V30 14 C 0.098305 -0.131128 -0.533506 0
M  V30 15 C -0.882434 -0.439125 -1.418111 0
M  V30 16 N -2.060859 -1.105443 -0.979910 0
M  V30 17 C -3.266975 -0.717672 -0.591984 0
M  V30 18 C -3.990544 -1.867106 -0.281003 0
M  V30 19 C -5.370360 -1.802088 0.184241 0
M  V30 20 C -6.093916 -0.640414 0.364357 0
M  V30 21 C -7.387093 -0.691558 0.806746 0
M  V30 22 C -8.042434 -1.889563 1.097314 0
M  V30 23 C -7.283843 -3.029232 0.904045 0
M  V30 24 N -7.938105 -4.259373 1.196071 0 CHG=1 VAL=4
M  V30 25 O -7.333743 -5.340963 1.051944 0
M  V30 26 O -9.230164 -4.426177 1.644623 0 CHG=-1 VAL=1
M  V30 27 C -5.978206 -3.010088 0.459232 0
M  V30 28 N -3.152303 -2.917101 -0.506416 0
M  V30 29 N -1.984794 -2.441636 -0.930101 0
M  V30 30 C -0.784347 -0.126406 -2.757958 0
M  V30 31 C 0.367238 0.518709 -3.155432 0
M  V30 32 C 1.344506 0.817295 -2.231805 0
M  V30 33 O 2.466281 1.459301 -2.687854 0
M  V30 34 C 4.873990 0.370173 1.761372 0
M  V30 35 H 7.592138 -3.052337 3.905998 0
M  V30 36 H 6.795856 -3.942389 2.562496 0
M  V30 37 H 8.275655 -2.965127 2.257637 0
M  V30 38 H 5.670690 1.387546 4.863383 0
M  V30 39 H 4.252750 3.291757 4.164369 0
M  V30 40 H 3.227582 3.284345 1.862422 0
M  V30 41 H 3.792403 1.754713 -0.878176 0
M  V30 42 H -0.064103 -0.416807 0.508980 0
M  V30 43 H -3.491283 0.335765 -0.575409 0
M  V30 44 H -5.581559 0.287851 0.137659 0
M  V30 45 H -7.905230 0.228090 0.930751 0
M  V30 46 H -9.067820 -1.934785 1.448358 0
M  V30 47 H -5.483433 -3.978534 0.345922 0
M  V30 48 H -1.519215 -0.337701 -3.519540 0
M  V30 49 H 0.498938 0.788703 -4.195014 0
M  V30 50 H 2.804605 1.459997 -3.635759 0
M  V30 51 H 5.073652 -0.484539 1.098432 0
M  V30 END ATOM
M  V30 BEGIN BOND
M  V30 1 1 1 2
M  V30 2 1 2 3
M  V30 3 2 3 4
M  V30 4 1 3 5
M  V30 5 2 5 6
M  V30 6 1 6 7
M  V30 7 2 7 8
M  V30 8 1 8 9
M  V30 9 1 9 10
M  V30 10 1 10 11
M  V30 11 2 11 12
M  V30 12 1 11 13
M  V30 13 2 13 14
M  V30 14 1 14 15
M  V30 15 1 15 16
M  V30 16 1 16 17
M  V30 17 2 17 18
M  V30 18 1 18 19
M  V30 19 2 19 20
M  V30 20 1 20 21
M  V30 21 2 21 22
M  V30 22 1 22 23
M  V30 23 1 23 24
M  V30 24 2 24 25
M  V30 25 1 24 26
M  V30 26 2 23 27
M  V30 27 1 18 28
M  V30 28 2 28 29
M  V30 29 2 15 30
M  V30 30 1 30 31
M  V30 31 2 31 32
M  V30 32 1 32 33
M  V30 33 2 9 34
M  V30 34 1 34 5
M  V30 35 1 32 13
M  V30 36 1 29 16
M  V30 37 1 27 19
M  V30 38 1 1 35
M  V30 39 1 1 36
M  V30 40 1 1 37
M  V30 41 1 6 38
M  V30 42 1 7 39
M  V30 43 1 8 40
M  V30 44 1 10 41
M  V30 45 1 14 42
M  V30 46 1 17 43
M  V30 47 1 20 44
M  V30 48 1 21 45
M  V30 49 1 22 46
M  V30 50 1 27 47
M  V30 51 1 30 48
M  V30 52 1 31 49
M  V30 53 1 33 50
M  V30 54 1 34 51
M  V30 END BOND
M  V30 END CTAB
M  END
>  <Dataset>  (834) 
ChEMBL_Kinases

>  <Ligand_Instance>  (834) 
nan

>  <PDB_ID>  (834) 
nan

>  <Standardized_SMILES>  (834) 
COC(=O)c1cccc(NC(=O)c2cc(-n3cc(-c4cccc([N+](=O)[O-])c4)nn3)ccc2O)c1

>  <Name>  (834) 
nan

>  <Pocket>  (834) 
nan

>  <ATP_Site>  (834) 
nan

>  <Peripheral>  (834) 
nan

>  <Num_H_Atoms_ProtBoundConf>  (834) 
nan

>  <Num_Resolved_Atoms>  (834) 
nan

>  <Num_Not_Resolved_Atoms>  (834) 
nan

$$$$
CHEMBL3797242
     RDKit          3D

  0  0  0  0  0  0  0  0  0  0999 V3000
M  V30 BEGIN CTAB
M  V30 COUNTS 40 43 0 0 0
M  V30 BEGIN ATOM
M  V30 1 O 1.947928 2.157590 0.709248 0
M  V30 2 C 1.404121 1.052932 0.927534 0
M  V30 3 N 2.242034 -0.050898 1.211169 0
M  V30 4 C 3.676798 -0.139857 1.300176 0
M  V30 5 C 4.385395 0.244459 0.051818 0
M  V30 6 C 4.313636 -0.667302 -0.980134 0
M  V30 7 Cl 3.475529 -2.187727 -0.947881 0
M  V30 8 C 4.968257 -0.365962 -2.177840 0
M  V30 9 N 5.656734 0.784203 -2.334525 0
M  V30 10 C 5.725412 1.678151 -1.318075 0
M  V30 11 C 5.094415 1.412897 -0.129491 0
M  V30 12 Cl 5.200376 2.549328 1.169342 0
M  V30 13 C -0.048606 1.016530 0.866971 0
M  V30 14 C -0.707047 2.191360 0.566362 0
M  V30 15 C -2.102131 2.264476 0.484478 0
M  V30 16 C -2.857622 1.135544 0.708608 0
M  V30 17 N -4.178936 0.903782 0.700164 0
M  V30 18 N -4.377632 -0.373538 0.984485 0
M  V30 19 C -3.205754 -1.004424 1.184173 0
M  V30 20 C -3.034065 -2.414283 1.516666 0
M  V30 21 C -2.128077 -3.293307 0.959812 0
M  V30 22 C -2.146026 -4.589536 1.433324 0
M  V30 23 N -2.991859 -5.011477 2.390708 0
M  V30 24 C -3.887307 -4.178008 2.953531 0
M  V30 25 C -3.908935 -2.858577 2.509649 0
M  V30 26 C -2.227092 -0.048917 1.010230 0
M  V30 27 C -0.852420 -0.073665 1.080005 0
M  V30 28 H 1.651007 -0.924148 1.374932 0
M  V30 29 H 3.939260 -1.201690 1.476819 0
M  V30 30 H 4.079084 0.417879 2.175570 0
M  V30 31 H 5.011656 -0.959267 -3.068130 0
M  V30 32 H 6.280311 2.612195 -1.435778 0
M  V30 33 H -0.195413 3.146125 0.370461 0
M  V30 34 H -2.606232 3.193862 0.247473 0
M  V30 35 H -4.883702 1.654810 0.494522 0
M  V30 36 H -1.489566 -2.888953 0.206716 0
M  V30 37 H -1.438636 -5.284420 1.001710 0
M  V30 38 H -4.568177 -4.518327 3.724243 0
M  V30 39 H -4.644961 -2.220790 2.989091 0
M  V30 40 H -0.368280 -1.009496 1.317693 0
M  V30 END ATOM
M  V30 BEGIN BOND
M  V30 1 2 1 2
M  V30 2 1 2 3
M  V30 3 1 3 4
M  V30 4 1 4 5
M  V30 5 2 5 6
M  V30 6 1 6 7
M  V30 7 1 6 8
M  V30 8 2 8 9
M  V30 9 1 9 10
M  V30 10 2 10 11
M  V30 11 1 11 12
M  V30 12 1 2 13
M  V30 13 2 13 14
M  V30 14 1 14 15
M  V30 15 2 15 16
M  V30 16 1 16 17
M  V30 17 1 17 18
M  V30 18 2 18 19
M  V30 19 1 19 20
M  V30 20 2 20 21
M  V30 21 1 21 22
M  V30 22 2 22 23
M  V30 23 1 23 24
M  V30 24 2 24 25
M  V30 25 1 19 26
M  V30 26 2 26 27
M  V30 27 1 11 5
M  V30 28 1 27 13
M  V30 29 1 26 16
M  V30 30 1 25 20
M  V30 31 1 3 28
M  V30 32 1 4 29
M  V30 33 1 4 30
M  V30 34 1 8 31
M  V30 35 1 10 32
M  V30 36 1 14 33
M  V30 37 1 15 34
M  V30 38 1 17 35
M  V30 39 1 21 36
M  V30 40 1 22 37
M  V30 41 1 24 38
M  V30 42 1 25 39
M  V30 43 1 27 40
M  V30 END BOND
M  V30 END CTAB
M  END
>  <Dataset>  (835) 
ChEMBL_Kinases

>  <Ligand_Instance>  (835) 
nan

>  <PDB_ID>  (835) 
nan

>  <Standardized_SMILES>  (835) 
O=C(NCc1c(Cl)cncc1Cl)c1ccc2[nH]nc(-c3ccncc3)c2c1

>  <Name>  (835) 
nan

>  <Pocket>  (835) 
nan

>  <ATP_Site>  (835) 
nan

>  <Peripheral>  (835) 
nan

>  <Num_H_Atoms_ProtBoundConf>  (835) 
nan

>  <Num_Resolved_Atoms>  (835) 
nan

>  <Num_Not_Resolved_Atoms>  (835) 
nan

$$$$
CHEMBL4099609
     RDKit          3D

  0  0  0  0  0  0  0  0  0  0999 V3000
M  V30 BEGIN CTAB
M  V30 COUNTS 48 52 0 0 0
M  V30 BEGIN ATOM
M  V30 1 C -1.304991 1.656724 1.048413 0
M  V30 2 C 0.162978 1.419829 0.922647 0
M  V30 3 C 0.927052 2.480197 0.414671 0
M  V30 4 C 2.293693 2.446917 0.232293 0
M  V30 5 C 2.958299 1.260716 0.582288 0
M  V30 6 C 4.312138 1.128582 0.419763 0
M  V30 7 C 4.938064 -0.053363 0.753420 0
M  V30 8 C 4.181711 -1.106192 1.254177 0
M  V30 9 C 4.907838 -2.370509 1.587753 0
M  V30 10 N 4.889096 -3.202879 0.383037 0
M  V30 11 C 2.827148 -0.961914 1.412441 0
M  V30 12 C 2.204611 0.224057 1.079700 0
M  V30 13 C 0.841701 0.241692 1.269238 0
M  V30 14 C -0.029869 -0.778894 1.786085 0
M  V30 15 C -1.125242 -1.390236 1.365189 0
M  V30 16 C -1.877095 -1.224389 0.128092 0
M  V30 17 C -1.410566 -1.222498 -1.172669 0
M  V30 18 N -2.409001 -1.027970 -2.031045 0
M  V30 19 C -3.574953 -0.891672 -1.359812 0
M  V30 20 C -4.897530 -0.665963 -1.749331 0
M  V30 21 C -5.918952 -0.554359 -0.820555 0
M  V30 22 C -5.585799 -0.674381 0.510501 0
M  V30 23 C -4.274760 -0.897937 0.880331 0
M  V30 24 C -3.244777 -1.012762 -0.026817 0
M  V30 25 C -1.595438 -2.366950 2.359666 0
M  V30 26 O -2.608953 -3.138546 2.296842 0
M  V30 27 N -0.685805 -2.308256 3.458332 0
M  V30 28 C 0.298717 -1.326440 3.128676 0
M  V30 29 O 1.171572 -1.181096 4.045862 0
M  V30 30 H -1.404971 2.729047 1.391928 0
M  V30 31 H -1.820060 1.673475 0.058248 0
M  V30 32 H -1.799917 1.094683 1.834436 0
M  V30 33 H 0.427198 3.415820 0.136602 0
M  V30 34 H 2.848476 3.262824 -0.150594 0
M  V30 35 H 4.905175 1.943574 0.032325 0
M  V30 36 H 6.028866 -0.094935 0.601006 0
M  V30 37 H 4.390960 -2.898631 2.394880 0
M  V30 38 H 5.944656 -2.127509 1.898165 0
M  V30 39 H 4.691178 -4.206992 0.608477 0
M  V30 40 H 4.115315 -2.862146 -0.250982 0
M  V30 41 H 2.308748 -1.831855 1.785525 0
M  V30 42 H -0.390273 -1.356491 -1.469029 0
M  V30 43 H -2.429773 -0.968197 -3.081259 0
M  V30 44 H -5.125581 -0.578443 -2.795535 0
M  V30 45 H -6.950600 -0.380556 -1.118860 0
M  V30 46 H -6.400640 -0.580706 1.221499 0
M  V30 47 H -4.130826 -0.963840 1.935949 0
M  V30 48 H -0.834794 -2.937842 4.302756 0
M  V30 END ATOM
M  V30 BEGIN BOND
M  V30 1 1 1 2
M  V30 2 2 2 3
M  V30 3 1 3 4
M  V30 4 2 4 5
M  V30 5 1 5 6
M  V30 6 2 6 7
M  V30 7 1 7 8
M  V30 8 1 8 9
M  V30 9 1 9 10
M  V30 10 2 8 11
M  V30 11 1 11 12
M  V30 12 2 12 13
M  V30 13 1 13 14
M  V30 14 2 14 15
M  V30 15 1 15 16
M  V30 16 2 16 17
M  V30 17 1 17 18
M  V30 18 1 18 19
M  V30 19 2 19 20
M  V30 20 1 20 21
M  V30 21 2 21 22
M  V30 22 1 22 23
M  V30 23 2 23 24
M  V30 24 1 15 25
M  V30 25 2 25 26
M  V30 26 1 25 27
M  V30 27 1 27 28
M  V30 28 2 28 29
M  V30 29 1 13 2
M  V30 30 1 28 14
M  V30 31 1 12 5
M  V30 32 1 24 16
M  V30 33 1 24 19
M  V30 34 1 1 30
M  V30 35 1 1 31
M  V30 36 1 1 32
M  V30 37 1 3 33
M  V30 38 1 4 34
M  V30 39 1 6 35
M  V30 40 1 7 36
M  V30 41 1 9 37
M  V30 42 1 9 38
M  V30 43 1 10 39
M  V30 44 1 10 40
M  V30 45 1 11 41
M  V30 46 1 17 42
M  V30 47 1 18 43
M  V30 48 1 20 44
M  V30 49 1 21 45
M  V30 50 1 22 46
M  V30 51 1 23 47
M  V30 52 1 27 48
M  V30 END BOND
M  V30 END CTAB
M  END
>  <Dataset>  (836) 
ChEMBL_Kinases

>  <Ligand_Instance>  (836) 
nan

>  <PDB_ID>  (836) 
nan

>  <Standardized_SMILES>  (836) 
Cc1ccc2ccc(CN)cc2c1C1=C(c2c[nH]c3ccccc23)C(=O)NC1=O

>  <Name>  (836) 
nan

>  <Pocket>  (836) 
nan

>  <ATP_Site>  (836) 
nan

>  <Peripheral>  (836) 
nan

>  <Num_H_Atoms_ProtBoundConf>  (836) 
nan

>  <Num_Resolved_Atoms>  (836) 
nan

>  <Num_Not_Resolved_Atoms>  (836) 
nan

$$$$
CHEMBL3797817
     RDKit          3D

  0  0  0  0  0  0  0  0  0  0999 V3000
M  V30 BEGIN CTAB
M  V30 COUNTS 46 50 0 0 0
M  V30 BEGIN ATOM
M  V30 1 O -4.664116 -2.660122 1.052994 0
M  V30 2 C -3.846253 -1.733665 1.104184 0
M  V30 3 N -4.240411 -0.368683 1.114569 0
M  V30 4 C -3.003886 0.375409 1.179225 0
M  V30 5 C -2.963718 1.775375 1.208041 0
M  V30 6 C -1.728269 2.380957 1.270138 0
M  V30 7 C -0.596516 1.554687 1.300208 0
M  V30 8 N 0.634893 2.302308 1.365032 0
M  V30 9 C 1.241020 2.663314 0.152434 0
M  V30 10 O 0.518881 2.219829 -0.808140 0
M  V30 11 C 2.472463 3.409275 -0.061609 0
M  V30 12 C 2.809417 3.605053 -1.403640 0
M  V30 13 C 3.947620 4.293338 -1.757866 0
M  V30 14 C 4.814661 4.825383 -0.828602 0
M  V30 15 C 4.488019 4.635727 0.490859 0
M  V30 16 C 3.350126 3.947621 0.842033 0
M  V30 17 F 3.016013 3.753256 2.136076 0
M  V30 18 C -0.747657 0.189768 1.267534 0
M  V30 19 C -1.917812 -0.462049 1.207184 0
M  V30 20 C -2.406370 -1.803799 1.161344 0
M  V30 21 C -1.660627 -2.863923 1.171290 0
M  V30 22 N -2.184661 -4.179179 1.124798 0
M  V30 23 C -1.155126 -5.161241 1.147129 0
M  V30 24 C -1.242629 -6.555577 1.116586 0
M  V30 25 C -0.043603 -7.232611 1.151545 0
M  V30 26 C 1.176997 -6.595758 1.212853 0
M  V30 27 C 1.178800 -5.220315 1.239607 0
M  V30 28 C 0.024081 -4.447024 1.208285 0
M  V30 29 C -0.237290 -3.024212 1.225329 0
M  V30 30 N 0.692289 -2.216070 1.278118 0
M  V30 31 O 1.997148 -2.524015 1.324552 0
M  V30 32 H -5.233796 -0.019052 1.080926 0
M  V30 33 H -3.827148 2.395949 1.184900 0
M  V30 34 H -1.682611 3.440444 1.292619 0
M  V30 35 H 1.106348 2.593376 2.249897 0
M  V30 36 H 2.183861 3.220248 -2.213045 0
M  V30 37 H 4.172361 4.422940 -2.807304 0
M  V30 38 H 5.716447 5.371036 -1.058131 0
M  V30 39 H 5.111385 5.018977 1.275213 0
M  V30 40 H 0.207344 -0.216777 1.298688 0
M  V30 41 H -3.182267 -4.425164 1.080009 0
M  V30 42 H -2.198109 -7.056133 1.068596 0
M  V30 43 H -0.140244 -8.307327 1.126826 0
M  V30 44 H 2.070893 -7.203934 1.236831 0
M  V30 45 H 2.174091 -4.807374 1.287513 0
M  V30 46 H 2.686259 -2.356735 0.592275 0
M  V30 END ATOM
M  V30 BEGIN BOND
M  V30 1 2 1 2
M  V30 2 1 2 3
M  V30 3 1 3 4
M  V30 4 2 4 5
M  V30 5 1 5 6
M  V30 6 2 6 7
M  V30 7 1 7 8
M  V30 8 1 8 9
M  V30 9 2 9 10
M  V30 10 1 9 11
M  V30 11 2 11 12
M  V30 12 1 12 13
M  V30 13 2 13 14
M  V30 14 1 14 15
M  V30 15 2 15 16
M  V30 16 1 16 17
M  V30 17 1 7 18
M  V30 18 2 18 19
M  V30 19 1 19 20
M  V30 20 2 20 21
M  V30 21 1 21 22
M  V30 22 1 22 23
M  V30 23 2 23 24
M  V30 24 1 24 25
M  V30 25 2 25 26
M  V30 26 1 26 27
M  V30 27 2 27 28
M  V30 28 1 28 29
M  V30 29 2 29 30
M  V30 30 1 30 31
M  V30 31 1 20 2
M  V30 32 1 29 21
M  V30 33 1 19 4
M  V30 34 1 28 23
M  V30 35 1 16 11
M  V30 36 1 3 32
M  V30 37 1 5 33
M  V30 38 1 6 34
M  V30 39 1 8 35
M  V30 40 1 12 36
M  V30 41 1 13 37
M  V30 42 1 14 38
M  V30 43 1 15 39
M  V30 44 1 18 40
M  V30 45 1 22 41
M  V30 46 1 24 42
M  V30 47 1 25 43
M  V30 48 1 26 44
M  V30 49 1 27 45
M  V30 50 1 31 46
M  V30 END BOND
M  V30 END CTAB
M  END
>  <Dataset>  (837) 
ChEMBL_Kinases

>  <Ligand_Instance>  (837) 
nan

>  <PDB_ID>  (837) 
nan

>  <Standardized_SMILES>  (837) 
O=C1Nc2ccc(NC(=O)c3ccccc3F)cc2/C1=C1/Nc2ccccc2/C1=N\O

>  <Name>  (837) 
nan

>  <Pocket>  (837) 
nan

>  <ATP_Site>  (837) 
nan

>  <Peripheral>  (837) 
nan

>  <Num_H_Atoms_ProtBoundConf>  (837) 
nan

>  <Num_Resolved_Atoms>  (837) 
nan

>  <Num_Not_Resolved_Atoms>  (837) 
nan

$$$$
CHEMBL4099579
     RDKit          3D

  0  0  0  0  0  0  0  0  0  0999 V3000
M  V30 BEGIN CTAB
M  V30 COUNTS 67 69 0 0 0
M  V30 BEGIN ATOM
M  V30 1 C 3.926965 -1.862820 5.205638 0
M  V30 2 C 4.489088 -2.666298 4.083850 0
M  V30 3 C 3.855270 -2.419550 2.738349 0
M  V30 4 C 3.965450 -1.025563 2.259486 0
M  V30 5 C 3.325785 -0.781393 0.905267 0
M  V30 6 C 3.895598 -1.589253 -0.188629 0
M  V30 7 C 3.244037 -1.272334 -1.501220 0
M  V30 8 C 1.770399 -1.568581 -1.451068 0
M  V30 9 C 1.099862 -1.288399 -2.790489 0
M  V30 10 C 1.264376 0.135829 -3.160961 0
M  V30 11 C 0.174817 0.856022 -3.355338 0
M  V30 12 C -1.298709 0.682281 -3.319452 0
M  V30 13 C -1.705692 1.952720 -2.615133 0
M  V30 14 C -3.172924 2.243302 -2.780771 0
M  V30 15 O -3.540124 2.202689 -4.120250 0
M  V30 16 C -1.299293 2.059657 -1.178597 0
M  V30 17 O -1.893249 1.274197 -0.232339 0
M  V30 18 C -1.942744 -0.003792 0.077191 0
M  V30 19 O -1.406402 -0.966404 -0.440731 0
M  V30 20 C -2.785639 -0.337332 1.244863 0
M  V30 21 C -3.550372 0.457377 2.093367 0
M  V30 22 N -4.150030 -0.296276 3.023221 0
M  V30 23 C -5.014545 0.224944 4.054740 0
M  V30 24 C -3.831868 -1.589178 2.855112 0
M  V30 25 C -4.182687 -2.735675 3.534771 0
M  V30 26 C -3.706141 -3.961338 3.146455 0
M  V30 27 C -2.866074 -4.022578 2.058415 0
M  V30 28 C -2.533925 -2.864734 1.401017 0
M  V30 29 C -2.986153 -1.612182 1.752321 0
M  V30 30 O -0.936122 2.952807 -3.346059 0
M  V30 31 C 0.264090 2.293723 -3.726958 0
M  V30 32 O 1.201051 2.955370 -4.295766 0
M  V30 33 H 3.343354 -0.970537 4.870978 0
M  V30 34 H 4.693421 -1.576542 5.968048 0
M  V30 35 H 3.183453 -2.485507 5.746067 0
M  V30 36 H 4.437538 -3.738665 4.359525 0
M  V30 37 H 5.594551 -2.449389 4.061387 0
M  V30 38 H 2.850198 -2.838081 2.756114 0
M  V30 39 H 4.442728 -3.060966 2.024033 0
M  V30 40 H 5.022171 -0.704904 2.152785 0
M  V30 41 H 3.489262 -0.298487 2.950955 0
M  V30 42 H 3.396509 0.290558 0.650283 0
M  V30 43 H 2.227008 -1.005956 0.998168 0
M  V30 44 H 5.011902 -1.485182 -0.261246 0
M  V30 45 H 3.756102 -2.696040 -0.052458 0
M  V30 46 H 3.741347 -1.963601 -2.250507 0
M  V30 47 H 3.447583 -0.222500 -1.820478 0
M  V30 48 H 1.659413 -2.651052 -1.257187 0
M  V30 49 H 1.317842 -0.912027 -0.681014 0
M  V30 50 H 0.032748 -1.580757 -2.759740 0
M  V30 51 H 1.597093 -1.916859 -3.559602 0
M  V30 52 H 2.247586 0.566525 -3.267597 0
M  V30 53 H -1.710827 0.710146 -4.369951 0
M  V30 54 H -1.697455 -0.172430 -2.836972 0
M  V30 55 H -3.790784 1.563010 -2.170786 0
M  V30 56 H -3.337988 3.258279 -2.338043 0
M  V30 57 H -4.535830 2.225716 -4.165560 0
M  V30 58 H -1.462033 3.133938 -0.864888 0
M  V30 59 H -0.165417 1.963665 -1.090827 0
M  V30 60 H -3.605208 1.540645 1.957061 0
M  V30 61 H -4.387863 0.391492 4.957293 0
M  V30 62 H -5.788219 -0.508698 4.329989 0
M  V30 63 H -5.464086 1.195867 3.727901 0
M  V30 64 H -4.842135 -2.679289 4.387368 0
M  V30 65 H -3.988430 -4.835890 3.684166 0
M  V30 66 H -2.507196 -5.002950 1.777049 0
M  V30 67 H -1.871668 -3.010990 0.562157 0
M  V30 END ATOM
M  V30 BEGIN BOND
M  V30 1 1 1 2
M  V30 2 1 2 3
M  V30 3 1 3 4
M  V30 4 1 4 5
M  V30 5 1 5 6
M  V30 6 1 6 7
M  V30 7 1 7 8
M  V30 8 1 8 9
M  V30 9 1 9 10
M  V30 10 2 10 11
M  V30 11 1 11 12
M  V30 12 1 12 13
M  V30 13 1 13 14
M  V30 14 1 14 15
M  V30 15 1 13 16
M  V30 16 1 16 17
M  V30 17 1 17 18
M  V30 18 2 18 19
M  V30 19 1 18 20
M  V30 20 2 20 21
M  V30 21 1 21 22
M  V30 22 1 22 23
M  V30 23 1 22 24
M  V30 24 2 24 25
M  V30 25 1 25 26
M  V30 26 2 26 27
M  V30 27 1 27 28
M  V30 28 2 28 29
M  V30 29 1 13 30
M  V30 30 1 30 31
M  V30 31 2 31 32
M  V30 32 1 31 11
M  V30 33 1 29 20
M  V30 34 1 29 24
M  V30 35 1 1 33
M  V30 36 1 1 34
M  V30 37 1 1 35
M  V30 38 1 2 36
M  V30 39 1 2 37
M  V30 40 1 3 38
M  V30 41 1 3 39
M  V30 42 1 4 40
M  V30 43 1 4 41
M  V30 44 1 5 42
M  V30 45 1 5 43
M  V30 46 1 6 44
M  V30 47 1 6 45
M  V30 48 1 7 46
M  V30 49 1 7 47
M  V30 50 1 8 48
M  V30 51 1 8 49
M  V30 52 1 9 50
M  V30 53 1 9 51
M  V30 54 1 10 52
M  V30 55 1 12 53
M  V30 56 1 12 54
M  V30 57 1 14 55
M  V30 58 1 14 56
M  V30 59 1 15 57
M  V30 60 1 16 58
M  V30 61 1 16 59
M  V30 62 1 21 60
M  V30 63 1 23 61
M  V30 64 1 23 62
M  V30 65 1 23 63
M  V30 66 1 25 64
M  V30 67 1 26 65
M  V30 68 1 27 66
M  V30 69 1 28 67
M  V30 END BOND
M  V30 END CTAB
M  END
>  <Dataset>  (838) 
ChEMBL_Kinases

>  <Ligand_Instance>  (838) 
nan

>  <PDB_ID>  (838) 
nan

>  <Standardized_SMILES>  (838) 
CCCCCCCCC/C=C1\CC(CO)(COC(=O)c2cn(C)c3ccccc23)OC1=O

>  <Name>  (838) 
nan

>  <Pocket>  (838) 
nan

>  <ATP_Site>  (838) 
nan

>  <Peripheral>  (838) 
nan

>  <Num_H_Atoms_ProtBoundConf>  (838) 
nan

>  <Num_Resolved_Atoms>  (838) 
nan

>  <Num_Not_Resolved_Atoms>  (838) 
nan

$$$$
CHEMBL4099497
     RDKit          3D

  0  0  0  0  0  0  0  0  0  0999 V3000
M  V30 BEGIN CTAB
M  V30 COUNTS 30 32 0 0 0
M  V30 BEGIN ATOM
M  V30 1 C -1.656769 -1.508577 3.004239 0
M  V30 2 C -0.209287 -1.940397 2.956562 0
M  V30 3 N -0.061657 -3.358800 3.277907 0
M  V30 4 C 0.438644 -4.141030 2.180848 0
M  V30 5 O 0.624236 -5.377294 2.284268 0
M  V30 6 C 0.620033 -3.171587 1.107075 0
M  V30 7 C 1.085365 -3.411897 -0.172340 0
M  V30 8 C 1.169590 -2.316222 -1.015152 0
M  V30 9 C 0.820600 -1.029898 -0.648877 0
M  V30 10 N 0.920936 0.075404 -1.539339 0
M  V30 11 C 0.532109 1.357587 -1.065136 0
M  V30 12 C 1.520367 2.092210 -0.465467 0
M  V30 13 C 1.304746 3.358362 0.048332 0
M  V30 14 N 0.053196 3.871627 -0.058380 0
M  V30 15 C -0.942106 3.152707 -0.652841 0
M  V30 16 N -0.706871 1.919083 -1.146759 0
M  V30 17 C 0.367401 -0.887459 0.646359 0
M  V30 18 C 0.255946 -1.914069 1.534241 0
M  V30 19 H -2.074685 -1.464843 1.983191 0
M  V30 20 H -2.283891 -2.149241 3.651541 0
M  V30 21 H -1.662069 -0.457432 3.399516 0
M  V30 22 H 0.450066 -1.385079 3.628734 0
M  V30 23 H -0.315405 -3.688356 4.228438 0
M  V30 24 H 1.370000 -4.404386 -0.500378 0
M  V30 25 H 1.534258 -2.510501 -2.014192 0
M  V30 26 H 1.277781 -0.121652 -2.497982 0
M  V30 27 H 2.553080 1.764626 -0.333609 0
M  V30 28 H 2.075512 3.953813 0.526199 0
M  V30 29 H -1.940022 3.564330 -0.737662 0
M  V30 30 H 0.081769 0.111832 0.973567 0
M  V30 END ATOM
M  V30 BEGIN BOND
M  V30 1 1 1 2
M  V30 2 1 2 3
M  V30 3 1 3 4
M  V30 4 2 4 5
M  V30 5 1 4 6
M  V30 6 2 6 7
M  V30 7 1 7 8
M  V30 8 2 8 9
M  V30 9 1 9 10
M  V30 10 1 10 11
M  V30 11 2 11 12
M  V30 12 1 12 13
M  V30 13 2 13 14
M  V30 14 1 14 15
M  V30 15 2 15 16
M  V30 16 1 9 17
M  V30 17 2 17 18
M  V30 18 1 18 2
M  V30 19 1 18 6
M  V30 20 1 16 11
M  V30 21 1 1 19
M  V30 22 1 1 20
M  V30 23 1 1 21
M  V30 24 1 2 22
M  V30 25 1 3 23
M  V30 26 1 7 24
M  V30 27 1 8 25
M  V30 28 1 10 26
M  V30 29 1 12 27
M  V30 30 1 13 28
M  V30 31 1 15 29
M  V30 32 1 17 30
M  V30 END BOND
M  V30 END CTAB
M  END
>  <Dataset>  (839) 
ChEMBL_Kinases

>  <Ligand_Instance>  (839) 
nan

>  <PDB_ID>  (839) 
nan

>  <Standardized_SMILES>  (839) 
CC1NC(=O)c2ccc(Nc3ccncn3)cc21

>  <Name>  (839) 
nan

>  <Pocket>  (839) 
nan

>  <ATP_Site>  (839) 
nan

>  <Peripheral>  (839) 
nan

>  <Num_H_Atoms_ProtBoundConf>  (839) 
nan

>  <Num_Resolved_Atoms>  (839) 
nan

>  <Num_Not_Resolved_Atoms>  (839) 
nan

$$$$
CHEMBL3797548
     RDKit          3D

  0  0  0  0  0  0  0  0  0  0999 V3000
M  V30 BEGIN CTAB
M  V30 COUNTS 48 51 0 0 0
M  V30 BEGIN ATOM
M  V30 1 C -0.627740 -3.401401 2.675948 0
M  V30 2 C -0.748871 -3.851468 1.256206 0
M  V30 3 C 0.504414 -3.665127 0.474724 0
M  V30 4 N 0.816566 -2.341270 0.055129 0
M  V30 5 C 1.097026 -1.088456 0.637824 0
M  V30 6 O 1.083156 -1.092278 1.892410 0
M  V30 7 C 1.382217 0.124782 -0.111114 0
M  V30 8 C 1.432109 0.280837 -1.480168 0
M  V30 9 C 1.715593 1.494106 -2.066617 0
M  V30 10 C 1.966632 2.626042 -1.318842 0
M  V30 11 N 2.262162 3.905348 -1.610872 0
M  V30 12 N 2.398567 4.553817 -0.468337 0
M  V30 13 C 2.196327 3.717130 0.585667 0
M  V30 14 C 2.272819 4.115281 1.987463 0
M  V30 15 C 3.355312 4.915833 2.360482 0
M  V30 16 C 3.461035 5.312322 3.678426 0
M  V30 17 N 2.545663 4.938712 4.584311 0
M  V30 18 C 1.475796 4.161840 4.273392 0
M  V30 19 C 1.366534 3.763495 2.957291 0
M  V30 20 C 1.918327 2.476929 0.050371 0
M  V30 21 C 1.636491 1.269834 0.613897 0
M  V30 22 O -1.907519 -3.433937 0.590443 0
M  V30 23 C -2.943606 -4.185997 0.127789 0
M  V30 24 C -3.906060 -3.376655 -0.479705 0
M  V30 25 C -5.069488 -3.899015 -1.037185 0
M  V30 26 C -5.302220 -5.263129 -1.000251 0
M  V30 27 C -4.350592 -6.063488 -0.399578 0
M  V30 28 C -3.199736 -5.540777 0.151172 0
M  V30 29 H 0.412105 -3.466323 3.012682 0
M  V30 30 H -1.217278 -4.139627 3.310322 0
M  V30 31 H -1.073967 -2.394741 2.839332 0
M  V30 32 H -0.870000 -4.990013 1.325609 0
M  V30 33 H 1.341167 -3.947783 1.202439 0
M  V30 34 H 0.604902 -4.419812 -0.317457 0
M  V30 35 H 0.847339 -2.268070 -1.010094 0
M  V30 36 H 1.237384 -0.597653 -2.071207 0
M  V30 37 H 1.739659 1.549711 -3.160633 0
M  V30 38 H 2.359977 4.288843 -2.587411 0
M  V30 39 H 4.147619 5.268632 1.694824 0
M  V30 40 H 4.253608 5.936141 4.103219 0
M  V30 41 H 0.722289 3.846262 4.986743 0
M  V30 42 H 0.529515 3.144558 2.669150 0
M  V30 43 H 1.617114 1.234608 1.705253 0
M  V30 44 H -3.879780 -2.301895 -0.592383 0
M  V30 45 H -5.839268 -3.329043 -1.513943 0
M  V30 46 H -6.160706 -5.780628 -1.396046 0
M  V30 47 H -4.444425 -7.156793 -0.320661 0
M  V30 48 H -2.414142 -6.096896 0.634712 0
M  V30 END ATOM
M  V30 BEGIN BOND
M  V30 1 1 1 2
M  V30 2 1 2 3
M  V30 3 1 3 4
M  V30 4 1 4 5
M  V30 5 2 5 6
M  V30 6 1 5 7
M  V30 7 2 7 8
M  V30 8 1 8 9
M  V30 9 2 9 10
M  V30 10 1 10 11
M  V30 11 1 11 12
M  V30 12 2 12 13
M  V30 13 1 13 14
M  V30 14 2 14 15
M  V30 15 1 15 16
M  V30 16 2 16 17
M  V30 17 1 17 18
M  V30 18 2 18 19
M  V30 19 1 13 20
M  V30 20 2 20 21
M  V30 21 1 2 22
M  V30 22 1 22 23
M  V30 23 2 23 24
M  V30 24 1 24 25
M  V30 25 2 25 26
M  V30 26 1 26 27
M  V30 27 2 27 28
M  V30 28 1 21 7
M  V30 29 1 28 23
M  V30 30 1 20 10
M  V30 31 1 19 14
M  V30 32 1 1 29
M  V30 33 1 1 30
M  V30 34 1 1 31
M  V30 35 1 2 32
M  V30 36 1 3 33
M  V30 37 1 3 34
M  V30 38 1 4 35
M  V30 39 1 8 36
M  V30 40 1 9 37
M  V30 41 1 11 38
M  V30 42 1 15 39
M  V30 43 1 16 40
M  V30 44 1 18 41
M  V30 45 1 19 42
M  V30 46 1 21 43
M  V30 47 1 24 44
M  V30 48 1 25 45
M  V30 49 1 26 46
M  V30 50 1 27 47
M  V30 51 1 28 48
M  V30 END BOND
M  V30 END CTAB
M  END
>  <Dataset>  (840) 
ChEMBL_Kinases

>  <Ligand_Instance>  (840) 
nan

>  <PDB_ID>  (840) 
nan

>  <Standardized_SMILES>  (840) 
CC(CNC(=O)c1ccc2[nH]nc(-c3ccncc3)c2c1)Oc1ccccc1

>  <Name>  (840) 
nan

>  <Pocket>  (840) 
nan

>  <ATP_Site>  (840) 
nan

>  <Peripheral>  (840) 
nan

>  <Num_H_Atoms_ProtBoundConf>  (840) 
nan

>  <Num_Resolved_Atoms>  (840) 
nan

>  <Num_Not_Resolved_Atoms>  (840) 
nan

$$$$
CHEMBL3797582
     RDKit          3D

  0  0  0  0  0  0  0  0  0  0999 V3000
M  V30 BEGIN CTAB
M  V30 COUNTS 50 54 0 0 0
M  V30 BEGIN ATOM
M  V30 1 C 4.356862 -2.425469 7.658326 0
M  V30 2 O 4.421795 -3.238484 6.500610 0
M  V30 3 C 3.974565 -2.679089 5.310249 0
M  V30 4 C 3.484007 -1.392047 5.229042 0
M  V30 5 C 3.037762 -0.831793 4.045102 0
M  V30 6 C 3.093249 -1.604001 2.914946 0
M  V30 7 C 2.671063 -1.183437 1.595662 0
M  V30 8 O 2.705094 -1.867987 0.519148 0
M  V30 9 N 2.139982 0.115045 1.334914 0
M  V30 10 C 1.717220 0.540257 0.021204 0
M  V30 11 C 2.752762 1.138438 -0.710735 0
M  V30 12 C 2.477455 1.588251 -1.982762 0
M  V30 13 C 1.173705 1.411261 -2.449047 0
M  V30 14 C 0.128994 0.833489 -1.772546 0
M  V30 15 C 0.473702 0.421323 -0.543686 0
M  V30 16 C -1.021335 0.855983 -2.614308 0
M  V30 17 C -2.171871 0.395631 -2.293100 0
M  V30 18 N -3.282403 0.445711 -3.174065 0
M  V30 19 C -4.451904 -0.124332 -2.601609 0
M  V30 20 C -5.742354 -0.279997 -3.110132 0
M  V30 21 C -6.658884 -0.882509 -2.286255 0
M  V30 22 C -6.341639 -1.317265 -1.021780 0
M  V30 23 C -5.057217 -1.138911 -0.572035 0
M  V30 24 C -4.057888 -0.537373 -1.336880 0
M  V30 25 C -2.662393 -0.233362 -1.113778 0
M  V30 26 N -2.120349 -0.522917 -0.045177 0
M  V30 27 O -2.717596 -1.126798 1.000585 0
M  V30 28 C -0.607539 1.489069 -3.856015 0
M  V30 29 O -1.295841 1.715512 -4.872728 0
M  V30 30 N 0.766085 1.841735 -3.765077 0
M  V30 31 C 3.578261 -2.903709 2.945756 0
M  V30 32 C 4.021142 -3.445226 4.147152 0
M  V30 33 H 5.081253 -1.575250 7.577532 0
M  V30 34 H 3.352588 -1.947539 7.771744 0
M  V30 35 H 4.506075 -3.015513 8.585212 0
M  V30 36 H 3.433241 -0.771708 6.106398 0
M  V30 37 H 2.649873 0.172084 3.955806 0
M  V30 38 H 2.040430 0.816302 2.118424 0
M  V30 39 H 3.749217 1.261868 -0.325830 0
M  V30 40 H 3.262199 2.039909 -2.533466 0
M  V30 41 H -0.123585 -0.043387 0.166795 0
M  V30 42 H -3.292573 0.840871 -4.132923 0
M  V30 43 H -5.990524 0.062983 -4.106244 0
M  V30 44 H -7.644283 -0.983333 -2.718036 0
M  V30 45 H -7.126001 -1.781605 -0.440254 0
M  V30 46 H -4.901915 -1.506415 0.419564 0
M  V30 47 H -2.274754 -1.531703 1.790832 0
M  V30 48 H 1.317019 2.315868 -4.529988 0
M  V30 49 H 3.664587 -3.588345 2.127047 0
M  V30 50 H 4.414182 -4.463524 4.235667 0
M  V30 END ATOM
M  V30 BEGIN BOND
M  V30 1 1 1 2
M  V30 2 1 2 3
M  V30 3 2 3 4
M  V30 4 1 4 5
M  V30 5 2 5 6
M  V30 6 1 6 7
M  V30 7 2 7 8
M  V30 8 1 7 9
M  V30 9 1 9 10
M  V30 10 2 10 11
M  V30 11 1 11 12
M  V30 12 2 12 13
M  V30 13 1 13 14
M  V30 14 2 14 15
M  V30 15 1 14 16
M  V30 16 2 16 17
M  V30 17 1 17 18
M  V30 18 1 18 19
M  V30 19 2 19 20
M  V30 20 1 20 21
M  V30 21 2 21 22
M  V30 22 1 22 23
M  V30 23 2 23 24
M  V30 24 1 24 25
M  V30 25 2 25 26
M  V30 26 1 26 27
M  V30 27 1 16 28
M  V30 28 2 28 29
M  V30 29 1 28 30
M  V30 30 1 6 31
M  V30 31 2 31 32
M  V30 32 1 32 3
M  V30 33 1 15 10
M  V30 34 1 25 17
M  V30 35 1 30 13
M  V30 36 1 24 19
M  V30 37 1 1 33
M  V30 38 1 1 34
M  V30 39 1 1 35
M  V30 40 1 4 36
M  V30 41 1 5 37
M  V30 42 1 9 38
M  V30 43 1 11 39
M  V30 44 1 12 40
M  V30 45 1 15 41
M  V30 46 1 18 42
M  V30 47 1 20 43
M  V30 48 1 21 44
M  V30 49 1 22 45
M  V30 50 1 23 46
M  V30 51 1 27 47
M  V30 52 1 30 48
M  V30 53 1 31 49
M  V30 54 1 32 50
M  V30 END BOND
M  V30 END CTAB
M  END
>  <Dataset>  (841) 
ChEMBL_Kinases

>  <Ligand_Instance>  (841) 
nan

>  <PDB_ID>  (841) 
nan

>  <Standardized_SMILES>  (841) 
COc1ccc(C(=O)Nc2ccc3c(c2)/C(=C2/Nc4ccccc4/C2=N\O)C(=O)N3)cc1

>  <Name>  (841) 
nan

>  <Pocket>  (841) 
nan

>  <ATP_Site>  (841) 
nan

>  <Peripheral>  (841) 
nan

>  <Num_H_Atoms_ProtBoundConf>  (841) 
nan

>  <Num_Resolved_Atoms>  (841) 
nan

>  <Num_Not_Resolved_Atoms>  (841) 
nan

$$$$
CHEMBL4099309
     RDKit          3D

  0  0  0  0  0  0  0  0  0  0999 V3000
M  V30 BEGIN CTAB
M  V30 COUNTS 60 64 0 0 0
M  V30 BEGIN ATOM
M  V30 1 O 2.579956 1.351153 3.700414 0
M  V30 2 C 1.704346 0.987077 2.858739 0
M  V30 3 N 1.867212 -0.263760 2.215859 0
M  V30 4 C 2.935227 -1.220607 2.387331 0
M  V30 5 C 4.113570 -0.713456 1.627839 0
M  V30 6 C 4.184311 -1.107391 0.285870 0
M  V30 7 C 5.202584 -0.737001 -0.562833 0
M  V30 8 C 6.217834 0.060887 -0.098475 0
M  V30 9 C 6.145677 0.446984 1.221648 0
M  V30 10 C 5.135429 0.086940 2.086512 0
M  V30 11 C 0.600601 1.907772 2.634873 0
M  V30 12 C 0.561150 3.062488 3.405381 0
M  V30 13 C -0.482212 3.978864 3.219232 0
M  V30 14 C -1.479125 3.750514 2.275115 0
M  V30 15 C -1.452984 2.605014 1.500275 0
M  V30 16 N -2.455533 2.320781 0.500966 0
M  V30 17 C -2.423624 1.136403 -0.292079 0
M  V30 18 C -2.555761 -0.117955 0.489617 0
M  V30 19 N -2.789833 -0.411893 1.791935 0
M  V30 20 N -2.812927 -1.732669 1.946437 0
M  V30 21 C -2.591205 -2.316999 0.731287 0
M  V30 22 C -2.531176 -3.768097 0.458480 0
M  V30 23 C -3.501797 -4.757712 0.576371 0
M  V30 24 C -3.117856 -6.034421 0.239265 0
M  V30 25 N -1.899148 -6.391331 -0.187466 0
M  V30 26 C -0.959062 -5.413475 -0.298368 0
M  V30 27 C -1.254118 -4.104661 0.017924 0
M  V30 28 C -2.424998 -1.319541 -0.209529 0
M  V30 29 C -2.170975 -1.599836 -1.607061 0
M  V30 30 C -3.227583 -2.292293 -2.204504 0
M  V30 31 C -3.167707 -2.653959 -3.550174 0
M  V30 32 C -2.057635 -2.322084 -4.283754 0
M  V30 33 C -1.007697 -1.640250 -3.711116 0
M  V30 34 C -1.075256 -1.287184 -2.381951 0
M  V30 35 C -0.406724 1.733171 1.719777 0
M  V30 36 H 1.080874 -0.460544 1.543006 0
M  V30 37 H 2.596234 -2.185213 1.956736 0
M  V30 38 H 3.188642 -1.368816 3.463792 0
M  V30 39 H 3.414117 -1.738422 -0.144651 0
M  V30 40 H 5.202413 -1.075077 -1.598521 0
M  V30 41 H 7.036178 0.375858 -0.723454 0
M  V30 42 H 6.953754 1.088292 1.608128 0
M  V30 43 H 5.066596 0.379324 3.121235 0
M  V30 44 H 1.297129 3.309474 4.156047 0
M  V30 45 H -0.492420 4.872960 3.832565 0
M  V30 46 H -2.287761 4.473042 2.140677 0
M  V30 47 H -3.211922 3.056042 0.404951 0
M  V30 48 H -3.229150 1.223098 -1.052968 0
M  V30 49 H -1.440381 1.090323 -0.811505 0
M  V30 50 H -2.916370 0.366201 2.477866 0
M  V30 51 H -4.427093 -4.343187 0.925553 0
M  V30 52 H -3.937588 -6.752205 0.359363 0
M  V30 53 H 0.019751 -5.752750 -0.650493 0
M  V30 54 H -0.403265 -3.450008 -0.122239 0
M  V30 55 H -4.170105 -2.621596 -1.743998 0
M  V30 56 H -3.951353 -3.189832 -4.068120 0
M  V30 57 H -2.004113 -2.601720 -5.335755 0
M  V30 58 H -0.127855 -1.365826 -4.254375 0
M  V30 59 H -0.308379 -0.753299 -1.839650 0
M  V30 60 H -0.394217 0.857448 1.116841 0
M  V30 END ATOM
M  V30 BEGIN BOND
M  V30 1 2 1 2
M  V30 2 1 2 3
M  V30 3 1 3 4
M  V30 4 1 4 5
M  V30 5 2 5 6
M  V30 6 1 6 7
M  V30 7 2 7 8
M  V30 8 1 8 9
M  V30 9 2 9 10
M  V30 10 1 2 11
M  V30 11 2 11 12
M  V30 12 1 12 13
M  V30 13 2 13 14
M  V30 14 1 14 15
M  V30 15 1 15 16
M  V30 16 1 16 17
M  V30 17 1 17 18
M  V30 18 1 18 19
M  V30 19 1 19 20
M  V30 20 2 20 21
M  V30 21 1 21 22
M  V30 22 2 22 23
M  V30 23 1 23 24
M  V30 24 2 24 25
M  V30 25 1 25 26
M  V30 26 2 26 27
M  V30 27 1 21 28
M  V30 28 1 28 29
M  V30 29 2 29 30
M  V30 30 1 30 31
M  V30 31 2 31 32
M  V30 32 1 32 33
M  V30 33 2 33 34
M  V30 34 2 15 35
M  V30 35 1 10 5
M  V30 36 1 35 11
M  V30 37 2 28 18
M  V30 38 1 34 29
M  V30 39 1 27 22
M  V30 40 1 3 36
M  V30 41 1 4 37
M  V30 42 1 4 38
M  V30 43 1 6 39
M  V30 44 1 7 40
M  V30 45 1 8 41
M  V30 46 1 9 42
M  V30 47 1 10 43
M  V30 48 1 12 44
M  V30 49 1 13 45
M  V30 50 1 14 46
M  V30 51 1 16 47
M  V30 52 1 17 48
M  V30 53 1 17 49
M  V30 54 1 19 50
M  V30 55 1 23 51
M  V30 56 1 24 52
M  V30 57 1 26 53
M  V30 58 1 27 54
M  V30 59 1 30 55
M  V30 60 1 31 56
M  V30 61 1 32 57
M  V30 62 1 33 58
M  V30 63 1 34 59
M  V30 64 1 35 60
M  V30 END BOND
M  V30 END CTAB
M  END
>  <Dataset>  (842) 
ChEMBL_Kinases

>  <Ligand_Instance>  (842) 
nan

>  <PDB_ID>  (842) 
nan

>  <Standardized_SMILES>  (842) 
O=C(NCc1ccccc1)c1cccc(NCc2[nH]nc(-c3ccncc3)c2-c2ccccc2)c1

>  <Name>  (842) 
nan

>  <Pocket>  (842) 
nan

>  <ATP_Site>  (842) 
nan

>  <Peripheral>  (842) 
nan

>  <Num_H_Atoms_ProtBoundConf>  (842) 
nan

>  <Num_Resolved_Atoms>  (842) 
nan

>  <Num_Not_Resolved_Atoms>  (842) 
nan

$$$$
CHEMBL3797587
     RDKit          3D

  0  0  0  0  0  0  0  0  0  0999 V3000
M  V30 BEGIN CTAB
M  V30 COUNTS 44 47 0 0 0
M  V30 BEGIN ATOM
M  V30 1 C -2.453998 -3.022418 1.209467 0
M  V30 2 C -1.235542 -3.111371 0.294675 0
M  V30 3 N -0.726905 -1.771413 0.094003 0
M  V30 4 C -0.568531 -1.167374 -1.184005 0
M  V30 5 O -0.889562 -1.837581 -2.199554 0
M  V30 6 C -0.056531 0.182302 -1.391526 0
M  V30 7 C 0.037491 0.623509 -2.694136 0
M  V30 8 C 0.515542 1.901661 -3.004774 0
M  V30 9 C 0.903850 2.741999 -1.962897 0
M  V30 10 N 1.395559 3.989433 -1.842206 0
M  V30 11 N 1.583527 4.278455 -0.567326 0
M  V30 12 C 1.225546 3.236594 0.219280 0
M  V30 13 C 1.331752 3.287402 1.676406 0
M  V30 14 C 2.473795 3.794554 2.292348 0
M  V30 15 C 2.535884 3.825681 3.687272 0
M  V30 16 N 1.531046 3.382895 4.462402 0
M  V30 17 C 0.417219 2.888350 3.891876 0
M  V30 18 C 0.325829 2.844300 2.514785 0
M  V30 19 C 0.792945 2.259792 -0.676349 0
M  V30 20 C 0.324448 1.004056 -0.351475 0
M  V30 21 C -0.245468 -3.964195 1.027761 0
M  V30 22 C 0.712895 -3.502255 1.902986 0
M  V30 23 C 1.580468 -4.363261 2.530749 0
M  V30 24 C 1.535583 -5.723601 2.317553 0
M  V30 25 C 0.590914 -6.238199 1.447212 0
M  V30 26 C -0.265539 -5.337895 0.833971 0
M  V30 27 Cl -1.472235 -5.992019 -0.277396 0
M  V30 28 H -2.126124 -2.450264 2.104728 0
M  V30 29 H -2.861664 -4.008036 1.455988 0
M  V30 30 H -3.219695 -2.405637 0.692294 0
M  V30 31 H -1.488002 -3.616190 -0.646860 0
M  V30 32 H -0.464596 -1.227153 0.945585 0
M  V30 33 H -0.246113 0.028105 -3.575035 0
M  V30 34 H 0.605721 2.287611 -4.010760 0
M  V30 35 H 1.582175 4.595556 -2.664396 0
M  V30 36 H 3.256848 4.139479 1.635562 0
M  V30 37 H 3.434792 4.224792 4.143604 0
M  V30 38 H -0.428316 2.515622 4.487701 0
M  V30 39 H -0.580250 2.442016 2.059211 0
M  V30 40 H 0.251850 0.660626 0.672247 0
M  V30 41 H 0.745060 -2.434837 2.067677 0
M  V30 42 H 2.317782 -3.932476 3.213809 0
M  V30 43 H 2.222613 -6.403055 2.814978 0
M  V30 44 H 0.495822 -7.296379 1.230155 0
M  V30 END ATOM
M  V30 BEGIN BOND
M  V30 1 1 1 2
M  V30 2 1 2 3
M  V30 3 1 3 4
M  V30 4 2 4 5
M  V30 5 1 4 6
M  V30 6 2 6 7
M  V30 7 1 7 8
M  V30 8 2 8 9
M  V30 9 1 9 10
M  V30 10 1 10 11
M  V30 11 2 11 12
M  V30 12 1 12 13
M  V30 13 2 13 14
M  V30 14 1 14 15
M  V30 15 2 15 16
M  V30 16 1 16 17
M  V30 17 2 17 18
M  V30 18 1 12 19
M  V30 19 2 19 20
M  V30 20 1 2 21
M  V30 21 2 21 22
M  V30 22 1 22 23
M  V30 23 2 23 24
M  V30 24 1 24 25
M  V30 25 2 25 26
M  V30 26 1 26 27
M  V30 27 1 20 6
M  V30 28 1 26 21
M  V30 29 1 19 9
M  V30 30 1 18 13
M  V30 31 1 1 28
M  V30 32 1 1 29
M  V30 33 1 1 30
M  V30 34 1 2 31
M  V30 35 1 3 32
M  V30 36 1 7 33
M  V30 37 1 8 34
M  V30 38 1 10 35
M  V30 39 1 14 36
M  V30 40 1 15 37
M  V30 41 1 17 38
M  V30 42 1 18 39
M  V30 43 1 20 40
M  V30 44 1 22 41
M  V30 45 1 23 42
M  V30 46 1 24 43
M  V30 47 1 25 44
M  V30 END BOND
M  V30 END CTAB
M  END
>  <Dataset>  (843) 
ChEMBL_Kinases

>  <Ligand_Instance>  (843) 
nan

>  <PDB_ID>  (843) 
nan

>  <Standardized_SMILES>  (843) 
CC(NC(=O)c1ccc2[nH]nc(-c3ccncc3)c2c1)c1ccccc1Cl

>  <Name>  (843) 
nan

>  <Pocket>  (843) 
nan

>  <ATP_Site>  (843) 
nan

>  <Peripheral>  (843) 
nan

>  <Num_H_Atoms_ProtBoundConf>  (843) 
nan

>  <Num_Resolved_Atoms>  (843) 
nan

>  <Num_Not_Resolved_Atoms>  (843) 
nan

$$$$
CHEMBL3797619
     RDKit          3D

  0  0  0  0  0  0  0  0  0  0999 V3000
M  V30 BEGIN CTAB
M  V30 COUNTS 46 50 0 0 0
M  V30 BEGIN ATOM
M  V30 1 O -4.544999 -2.412467 2.520679 0
M  V30 2 C -3.651593 -1.562958 2.387138 0
M  V30 3 N -3.770745 -0.235477 2.882203 0
M  V30 4 C -2.536195 0.402203 2.520046 0
M  V30 5 C -2.253285 1.736114 2.830510 0
M  V30 6 C -1.041802 2.262557 2.442228 0
M  V30 7 C -0.159568 1.428997 1.756360 0
M  V30 8 N 1.075465 2.072256 1.395833 0
M  V30 9 C 1.463185 2.791135 0.258241 0
M  V30 10 O 0.547396 2.877751 -0.591288 0
M  V30 11 C 2.822659 3.323516 0.209538 0
M  V30 12 C 3.809260 3.213503 1.157924 0
M  V30 13 C 5.036143 3.795197 0.913315 0
M  V30 14 C 5.299615 4.484070 -0.256896 0
M  V30 15 Cl 6.907337 5.130922 -0.348712 0
M  V30 16 C 4.307241 4.586482 -1.194493 0
M  V30 17 C 3.055912 4.008793 -0.975918 0
M  V30 18 C -0.525580 0.131179 1.496447 0
M  V30 19 C -1.689052 -0.438732 1.848033 0
M  V30 20 C -2.358304 -1.694497 1.742898 0
M  V30 21 C -1.894452 -2.759093 1.174844 0
M  V30 22 N -2.554756 -4.004686 1.068959 0
M  V30 23 C -1.798945 -4.991153 0.391185 0
M  V30 24 C -2.107971 -6.303444 0.100066 0
M  V30 25 C -1.134221 -6.998627 -0.582445 0
M  V30 26 C 0.074749 -6.464214 -0.966947 0
M  V30 27 C 0.294640 -5.149480 -0.633619 0
M  V30 28 C -0.607318 -4.337775 0.054142 0
M  V30 29 C -0.641637 -2.968394 0.523644 0
M  V30 30 N 0.353641 -2.268684 0.293126 0
M  V30 31 O 1.518772 -2.541520 -0.338384 0
M  V30 32 H -4.601296 0.144737 3.393899 0
M  V30 33 H -2.925898 2.389397 3.359309 0
M  V30 34 H -0.813224 3.288881 2.676038 0
M  V30 35 H 1.656978 1.864535 2.237927 0
M  V30 36 H 3.524606 2.661026 2.042147 0
M  V30 37 H 5.742045 3.640579 1.742307 0
M  V30 38 H 4.604940 5.143388 -2.077812 0
M  V30 39 H 2.360139 4.157781 -1.786254 0
M  V30 40 H 0.255451 -0.323087 0.983224 0
M  V30 41 H -3.508525 -4.172442 1.456372 0
M  V30 42 H -3.054579 -6.730636 0.398227 0
M  V30 43 H -1.344733 -8.029863 -0.826226 0
M  V30 44 H 0.811490 -7.045045 -1.501496 0
M  V30 45 H 1.248687 -4.751326 -0.944852 0
M  V30 46 H 1.636624 -2.397872 -1.343564 0
M  V30 END ATOM
M  V30 BEGIN BOND
M  V30 1 2 1 2
M  V30 2 1 2 3
M  V30 3 1 3 4
M  V30 4 2 4 5
M  V30 5 1 5 6
M  V30 6 2 6 7
M  V30 7 1 7 8
M  V30 8 1 8 9
M  V30 9 2 9 10
M  V30 10 1 9 11
M  V30 11 2 11 12
M  V30 12 1 12 13
M  V30 13 2 13 14
M  V30 14 1 14 15
M  V30 15 1 14 16
M  V30 16 2 16 17
M  V30 17 1 7 18
M  V30 18 2 18 19
M  V30 19 1 19 20
M  V30 20 2 20 21
M  V30 21 1 21 22
M  V30 22 1 22 23
M  V30 23 2 23 24
M  V30 24 1 24 25
M  V30 25 2 25 26
M  V30 26 1 26 27
M  V30 27 2 27 28
M  V30 28 1 28 29
M  V30 29 2 29 30
M  V30 30 1 30 31
M  V30 31 1 20 2
M  V30 32 1 29 21
M  V30 33 1 19 4
M  V30 34 1 28 23
M  V30 35 1 17 11
M  V30 36 1 3 32
M  V30 37 1 5 33
M  V30 38 1 6 34
M  V30 39 1 8 35
M  V30 40 1 12 36
M  V30 41 1 13 37
M  V30 42 1 16 38
M  V30 43 1 17 39
M  V30 44 1 18 40
M  V30 45 1 22 41
M  V30 46 1 24 42
M  V30 47 1 25 43
M  V30 48 1 26 44
M  V30 49 1 27 45
M  V30 50 1 31 46
M  V30 END BOND
M  V30 END CTAB
M  END
>  <Dataset>  (844) 
ChEMBL_Kinases

>  <Ligand_Instance>  (844) 
nan

>  <PDB_ID>  (844) 
nan

>  <Standardized_SMILES>  (844) 
O=C1Nc2ccc(NC(=O)c3ccc(Cl)cc3)cc2/C1=C1/Nc2ccccc2/C1=N\O

>  <Name>  (844) 
nan

>  <Pocket>  (844) 
nan

>  <ATP_Site>  (844) 
nan

>  <Peripheral>  (844) 
nan

>  <Num_H_Atoms_ProtBoundConf>  (844) 
nan

>  <Num_Resolved_Atoms>  (844) 
nan

>  <Num_Not_Resolved_Atoms>  (844) 
nan

$$$$
CHEMBL3797732
     RDKit          3D

  0  0  0  0  0  0  0  0  0  0999 V3000
M  V30 BEGIN CTAB
M  V30 COUNTS 46 50 0 0 0
M  V30 BEGIN ATOM
M  V30 1 O -0.780907 -5.439433 2.648825 0
M  V30 2 C -0.075889 -4.460094 2.376483 0
M  V30 3 N 1.336313 -4.469588 2.502782 0
M  V30 4 C 1.753307 -3.150735 2.089627 0
M  V30 5 C 3.096083 -2.756420 2.072253 0
M  V30 6 C 3.379446 -1.474120 1.659917 0
M  V30 7 C 2.315808 -0.641911 1.283596 0
M  V30 8 N 2.746953 0.663731 0.876186 0
M  V30 9 C 3.092319 1.066209 -0.426774 0
M  V30 10 O 3.040211 0.258682 -1.363722 0
M  V30 11 C 3.517490 2.433421 -0.707656 0
M  V30 12 C 3.840028 2.747104 -2.018964 0
M  V30 13 C 4.259189 4.014378 -2.418258 0
M  V30 14 C 4.340020 4.957575 -1.434498 0
M  V30 15 C 4.034396 4.715897 -0.107621 0
M  V30 16 C 3.620546 3.428117 0.231113 0
M  V30 17 C 1.036005 -1.135105 1.340156 0
M  V30 18 C 0.686964 -2.369452 1.730425 0
M  V30 19 C -0.495991 -3.154345 1.894847 0
M  V30 20 C -1.698798 -2.753609 1.653451 0
M  V30 21 N -2.850758 -3.559971 1.827892 0
M  V30 22 C -4.047938 -2.871499 1.488902 0
M  V30 23 C -5.369344 -3.307401 1.522308 0
M  V30 24 C -6.313189 -2.388543 1.126870 0
M  V30 25 C -5.990336 -1.116929 0.721598 0
M  V30 26 C -4.665188 -0.752585 0.712909 0
M  V30 27 C -3.632403 -1.613154 1.096231 0
M  V30 28 C -2.194097 -1.495843 1.181597 0
M  V30 29 N -1.644426 -0.435970 0.868263 0
M  V30 30 O -2.242406 0.682260 0.435020 0
M  V30 31 H 1.910121 -5.284939 2.830673 0
M  V30 32 H 3.911589 -3.386780 2.358158 0
M  V30 33 H 4.410109 -1.159028 1.642342 0
M  V30 34 H 2.775298 1.308078 1.697144 0
M  V30 35 H 3.782850 2.007102 -2.825388 0
M  V30 36 H 4.507252 4.241631 -3.448039 0
M  V30 37 H 4.659303 5.964012 -1.676208 0
M  V30 38 H 4.107575 5.487765 0.658468 0
M  V30 39 H 3.376310 3.204398 1.245053 0
M  V30 40 H 0.409391 -0.368835 1.024398 0
M  V30 41 H -2.842302 -4.536289 2.161392 0
M  V30 42 H -5.622941 -4.308246 1.841328 0
M  V30 43 H -7.332824 -2.744120 1.159202 0
M  V30 44 H -6.790569 -0.456651 0.426813 0
M  V30 45 H -4.495553 0.246427 0.387199 0
M  V30 46 H -1.970722 1.118342 -0.458391 0
M  V30 END ATOM
M  V30 BEGIN BOND
M  V30 1 2 1 2
M  V30 2 1 2 3
M  V30 3 1 3 4
M  V30 4 2 4 5
M  V30 5 1 5 6
M  V30 6 2 6 7
M  V30 7 1 7 8
M  V30 8 1 8 9
M  V30 9 2 9 10
M  V30 10 1 9 11
M  V30 11 2 11 12
M  V30 12 1 12 13
M  V30 13 2 13 14
M  V30 14 1 14 15
M  V30 15 2 15 16
M  V30 16 1 7 17
M  V30 17 2 17 18
M  V30 18 1 18 19
M  V30 19 2 19 20
M  V30 20 1 20 21
M  V30 21 1 21 22
M  V30 22 2 22 23
M  V30 23 1 23 24
M  V30 24 2 24 25
M  V30 25 1 25 26
M  V30 26 2 26 27
M  V30 27 1 27 28
M  V30 28 2 28 29
M  V30 29 1 29 30
M  V30 30 1 19 2
M  V30 31 1 28 20
M  V30 32 1 18 4
M  V30 33 1 27 22
M  V30 34 1 16 11
M  V30 35 1 3 31
M  V30 36 1 5 32
M  V30 37 1 6 33
M  V30 38 1 8 34
M  V30 39 1 12 35
M  V30 40 1 13 36
M  V30 41 1 14 37
M  V30 42 1 15 38
M  V30 43 1 16 39
M  V30 44 1 17 40
M  V30 45 1 21 41
M  V30 46 1 23 42
M  V30 47 1 24 43
M  V30 48 1 25 44
M  V30 49 1 26 45
M  V30 50 1 30 46
M  V30 END BOND
M  V30 END CTAB
M  END
>  <Dataset>  (845) 
ChEMBL_Kinases

>  <Ligand_Instance>  (845) 
nan

>  <PDB_ID>  (845) 
nan

>  <Standardized_SMILES>  (845) 
O=C1Nc2ccc(NC(=O)c3ccccc3)cc2/C1=C1/Nc2ccccc2/C1=N\O

>  <Name>  (845) 
nan

>  <Pocket>  (845) 
nan

>  <ATP_Site>  (845) 
nan

>  <Peripheral>  (845) 
nan

>  <Num_H_Atoms_ProtBoundConf>  (845) 
nan

>  <Num_Resolved_Atoms>  (845) 
nan

>  <Num_Not_Resolved_Atoms>  (845) 
nan

$$$$
CHEMBL3797756
     RDKit          3D

  0  0  0  0  0  0  0  0  0  0999 V3000
M  V30 BEGIN CTAB
M  V30 COUNTS 45 48 0 0 0
M  V30 BEGIN ATOM
M  V30 1 O 0.944605 -1.677566 0.034139 0
M  V30 2 C 0.955006 -0.685188 0.807518 0
M  V30 3 N 2.232934 -0.024081 0.780921 0
M  V30 4 C 3.364842 -0.407883 -0.002428 0 CFG=2
M  V30 5 C 4.543379 -0.902371 0.834689 0
M  V30 6 O 4.200009 -2.006186 1.587393 0
M  V30 7 C 3.800224 0.585686 -0.993651 0
M  V30 8 C 3.886519 1.911595 -0.604656 0
M  V30 9 C 4.277971 2.953881 -1.418646 0
M  V30 10 C 4.619170 2.676029 -2.743354 0
M  V30 11 C 4.540463 1.355347 -3.155891 0
M  V30 12 Cl 4.955394 0.920125 -4.817329 0
M  V30 13 C 4.143472 0.330839 -2.313514 0
M  V30 14 C -0.122636 -0.185728 1.658369 0
M  V30 15 C -0.078866 0.908643 2.497366 0
M  V30 16 C -1.189737 1.235475 3.227086 0
M  V30 17 C -2.351742 0.499176 3.145431 0
M  V30 18 N -3.525667 0.666073 3.776683 0
M  V30 19 N -4.334240 -0.293033 3.369736 0
M  V30 20 C -3.683353 -1.076323 2.478395 0
M  V30 21 C -4.230004 -2.242842 1.797242 0
M  V30 22 C -4.117192 -2.566723 0.452593 0
M  V30 23 C -4.705771 -3.724005 -0.021165 0
M  V30 24 N -5.386811 -4.524839 0.846512 0
M  V30 25 C -5.513542 -4.237877 2.154833 0
M  V30 26 C -4.935884 -3.083989 2.667359 0
M  V30 27 C -2.392281 -0.597842 2.302983 0
M  V30 28 C -1.286706 -0.954066 1.552486 0
M  V30 29 H 2.425674 0.822700 1.362462 0
M  V30 30 H 3.055082 -1.322534 -0.587296 0
M  V30 31 H 5.304630 -1.227466 0.072834 0
M  V30 32 H 4.932345 -0.132785 1.509346 0
M  V30 33 H 4.199368 -2.847032 1.056417 0
M  V30 34 H 3.638261 2.206764 0.407450 0
M  V30 35 H 4.335936 3.970388 -1.092067 0
M  V30 36 H 4.924370 3.460997 -3.392342 0
M  V30 37 H 4.080902 -0.708939 -2.636236 0
M  V30 38 H 0.859855 1.441593 2.514845 0
M  V30 39 H -1.102147 2.111109 3.875978 0
M  V30 40 H -3.756218 1.425418 4.470065 0
M  V30 41 H -3.552374 -1.851657 -0.133142 0
M  V30 42 H -4.595256 -3.941016 -1.074654 0
M  V30 43 H -6.066581 -4.903059 2.820336 0
M  V30 44 H -5.072287 -2.907131 3.728283 0
M  V30 45 H -1.392281 -1.822679 0.916770 0
M  V30 END ATOM
M  V30 BEGIN BOND
M  V30 1 2 1 2
M  V30 2 1 2 3
M  V30 3 1 3 4
M  V30 4 1 4 5
M  V30 5 1 5 6
M  V30 6 1 4 7
M  V30 7 2 7 8
M  V30 8 1 8 9
M  V30 9 2 9 10
M  V30 10 1 10 11
M  V30 11 1 11 12
M  V30 12 2 11 13
M  V30 13 1 2 14
M  V30 14 2 14 15
M  V30 15 1 15 16
M  V30 16 2 16 17
M  V30 17 1 17 18
M  V30 18 1 18 19
M  V30 19 2 19 20
M  V30 20 1 20 21
M  V30 21 2 21 22
M  V30 22 1 22 23
M  V30 23 2 23 24
M  V30 24 1 24 25
M  V30 25 2 25 26
M  V30 26 1 20 27
M  V30 27 2 27 28
M  V30 28 1 13 7
M  V30 29 1 28 14
M  V30 30 1 27 17
M  V30 31 1 26 21
M  V30 32 1 3 29
M  V30 33 1 4 30 CFG=3
M  V30 34 1 5 31
M  V30 35 1 5 32
M  V30 36 1 6 33
M  V30 37 1 8 34
M  V30 38 1 9 35
M  V30 39 1 10 36
M  V30 40 1 13 37
M  V30 41 1 15 38
M  V30 42 1 16 39
M  V30 43 1 18 40
M  V30 44 1 22 41
M  V30 45 1 23 42
M  V30 46 1 25 43
M  V30 47 1 26 44
M  V30 48 1 28 45
M  V30 END BOND
M  V30 END CTAB
M  END
>  <Dataset>  (846) 
ChEMBL_Kinases

>  <Ligand_Instance>  (846) 
nan

>  <PDB_ID>  (846) 
nan

>  <Standardized_SMILES>  (846) 
O=C(N[C@H](CO)c1cccc(Cl)c1)c1ccc2[nH]nc(-c3ccncc3)c2c1

>  <Name>  (846) 
nan

>  <Pocket>  (846) 
nan

>  <ATP_Site>  (846) 
nan

>  <Peripheral>  (846) 
nan

>  <Num_H_Atoms_ProtBoundConf>  (846) 
nan

>  <Num_Resolved_Atoms>  (846) 
nan

>  <Num_Not_Resolved_Atoms>  (846) 
nan

$$$$
CHEMBL379732
     RDKit          3D

  0  0  0  0  0  0  0  0  0  0999 V3000
M  V30 BEGIN CTAB
M  V30 COUNTS 38 42 0 0 0
M  V30 BEGIN ATOM
M  V30 1 O 2.541524 2.215608 1.925957 0
M  V30 2 C 2.203616 1.005696 1.988517 0
M  V30 3 N 2.801880 -0.068376 2.739571 0
M  V30 4 C 2.078731 -1.246586 2.495335 0
M  V30 5 O 2.481350 -2.260721 3.078833 0
M  V30 6 C 0.994216 -0.989216 1.586611 0
M  V30 7 C 1.094606 0.350417 1.305378 0
M  V30 8 C 0.185606 0.948941 0.441150 0
M  V30 9 C 0.246921 2.367243 0.108580 0
M  V30 10 C 1.039442 2.628186 -1.009088 0
M  V30 11 O 1.724398 1.678805 -1.768222 0
M  V30 12 C 1.212646 3.929058 -1.472326 0
M  V30 13 C 0.586441 4.985242 -0.811446 0
M  V30 14 C -0.192409 4.703040 0.291479 0
M  V30 15 C -0.361440 3.413804 0.747025 0
M  V30 16 Cl -1.335594 2.969123 2.142650 0
M  V30 17 C -0.815381 0.193674 -0.131545 0
M  V30 18 C -0.893238 -1.148273 0.167755 0
M  V30 19 N -1.755845 -2.093430 -0.246922 0
M  V30 20 C -1.379687 -3.259152 0.356696 0
M  V30 21 C -1.989783 -4.487754 0.213474 0
M  V30 22 C -1.502391 -5.588983 0.885924 0
M  V30 23 C -0.381728 -5.411672 1.706159 0
M  V30 24 O 0.080311 -6.538607 2.365867 0
M  V30 25 C 0.166463 -4.157791 1.794673 0
M  V30 26 C -0.277508 -3.044354 1.152573 0
M  V30 27 C 0.010738 -1.732674 1.024306 0
M  V30 28 H 3.652194 0.150133 3.339438 0
M  V30 29 H 1.906289 0.735191 -1.478624 0
M  V30 30 H 1.812769 4.193599 -2.330446 0
M  V30 31 H 0.702221 6.023047 -1.150723 0
M  V30 32 H -0.703958 5.483046 0.845935 0
M  V30 33 H -1.524812 0.661453 -0.806207 0
M  V30 34 H -2.547398 -1.899956 -0.911669 0
M  V30 35 H -2.853144 -4.617058 -0.420388 0
M  V30 36 H -2.006634 -6.534924 0.748921 0
M  V30 37 H -0.536059 -7.255763 2.729446 0
M  V30 38 H 1.009367 -4.121148 2.437534 0
M  V30 END ATOM
M  V30 BEGIN BOND
M  V30 1 2 1 2
M  V30 2 1 2 3
M  V30 3 1 3 4
M  V30 4 2 4 5
M  V30 5 1 4 6
M  V30 6 2 6 7
M  V30 7 1 7 8
M  V30 8 1 8 9
M  V30 9 2 9 10
M  V30 10 1 10 11
M  V30 11 1 10 12
M  V30 12 2 12 13
M  V30 13 1 13 14
M  V30 14 2 14 15
M  V30 15 1 15 16
M  V30 16 2 8 17
M  V30 17 1 17 18
M  V30 18 1 18 19
M  V30 19 1 19 20
M  V30 20 2 20 21
M  V30 21 1 21 22
M  V30 22 2 22 23
M  V30 23 1 23 24
M  V30 24 1 23 25
M  V30 25 2 25 26
M  V30 26 1 26 27
M  V30 27 1 7 2
M  V30 28 1 15 9
M  V30 29 2 27 18
M  V30 30 1 27 6
M  V30 31 1 26 20
M  V30 32 1 3 28
M  V30 33 1 11 29
M  V30 34 1 12 30
M  V30 35 1 13 31
M  V30 36 1 14 32
M  V30 37 1 17 33
M  V30 38 1 19 34
M  V30 39 1 21 35
M  V30 40 1 22 36
M  V30 41 1 24 37
M  V30 42 1 25 38
M  V30 END BOND
M  V30 END CTAB
M  END
>  <Dataset>  (847) 
ChEMBL_Kinases

>  <Ligand_Instance>  (847) 
nan

>  <PDB_ID>  (847) 
nan

>  <Standardized_SMILES>  (847) 
O=C1NC(=O)c2c1c(-c1c(O)cccc1Cl)cc1[nH]c3ccc(O)cc3c21

>  <Name>  (847) 
nan

>  <Pocket>  (847) 
nan

>  <ATP_Site>  (847) 
nan

>  <Peripheral>  (847) 
nan

>  <Num_H_Atoms_ProtBoundConf>  (847) 
nan

>  <Num_Resolved_Atoms>  (847) 
nan

>  <Num_Not_Resolved_Atoms>  (847) 
nan

$$$$
CHEMBL3408802
     RDKit          3D

  0  0  0  0  0  0  0  0  0  0999 V3000
M  V30 BEGIN CTAB
M  V30 COUNTS 30 33 0 0 0
M  V30 BEGIN ATOM
M  V30 1 N 4.029844 -5.183223 0.477690 0
M  V30 2 C 2.844147 -4.738861 1.078271 0
M  V30 3 N 2.054785 -5.332103 1.964957 0
M  V30 4 C 0.970488 -4.653919 2.365319 0
M  V30 5 N 0.641272 -3.453255 1.942147 0
M  V30 6 C 1.335000 -2.730656 1.052694 0
M  V30 7 C 2.450567 -3.460927 0.658596 0
M  V30 8 S 3.251611 -2.302105 -0.546103 0
M  V30 9 C 1.990560 -0.974424 -0.375601 0
M  V30 10 N 1.902732 0.287433 -1.004092 0
M  V30 11 C 0.867437 1.068054 -0.694709 0
M  V30 12 C -0.021276 0.560097 0.215976 0
M  V30 13 C -1.159326 1.442503 0.542756 0
M  V30 14 C -0.849705 2.779824 0.778802 0
M  V30 15 C -1.795737 3.718447 1.092699 0
M  V30 16 C -3.093003 3.281383 1.167947 0
M  V30 17 Cl -4.346158 4.437018 1.565682 0
M  V30 18 C -3.434997 1.948469 0.936933 0
M  V30 19 C -2.465928 1.003464 0.618787 0
M  V30 20 F -2.730779 -0.296068 0.384822 0
M  V30 21 C 0.004662 -0.643933 0.856847 0
M  V30 22 C 1.033638 -1.497336 0.591822 0
M  V30 23 H 4.911886 -5.362647 1.003841 0
M  V30 24 H 4.210111 -5.393334 -0.531265 0
M  V30 25 H 0.282466 -5.104495 3.101755 0
M  V30 26 H 0.848850 2.011850 -1.198309 0
M  V30 27 H 0.192404 3.112067 0.714468 0
M  V30 28 H -1.490016 4.734387 1.263035 0
M  V30 29 H -4.461725 1.634321 1.003030 0
M  V30 30 H -0.770934 -0.909172 1.554107 0
M  V30 END ATOM
M  V30 BEGIN BOND
M  V30 1 1 1 2
M  V30 2 2 2 3
M  V30 3 1 3 4
M  V30 4 2 4 5
M  V30 5 1 5 6
M  V30 6 2 6 7
M  V30 7 1 7 8
M  V30 8 1 8 9
M  V30 9 2 9 10
M  V30 10 1 10 11
M  V30 11 2 11 12
M  V30 12 1 12 13
M  V30 13 2 13 14
M  V30 14 1 14 15
M  V30 15 2 15 16
M  V30 16 1 16 17
M  V30 17 1 16 18
M  V30 18 2 18 19
M  V30 19 1 19 20
M  V30 20 1 12 21
M  V30 21 2 21 22
M  V30 22 1 7 2
M  V30 23 1 22 9
M  V30 24 1 22 6
M  V30 25 1 19 13
M  V30 26 1 1 23
M  V30 27 1 1 24
M  V30 28 1 4 25
M  V30 29 1 11 26
M  V30 30 1 14 27
M  V30 31 1 15 28
M  V30 32 1 18 29
M  V30 33 1 21 30
M  V30 END BOND
M  V30 END CTAB
M  END
>  <Dataset>  (848) 
ChEMBL_Kinases

>  <Ligand_Instance>  (848) 
nan

>  <PDB_ID>  (848) 
nan

>  <Standardized_SMILES>  (848) 
Nc1ncnc2c1sc1ncc(-c3ccc(Cl)cc3F)cc12

>  <Name>  (848) 
nan

>  <Pocket>  (848) 
nan

>  <ATP_Site>  (848) 
nan

>  <Peripheral>  (848) 
nan

>  <Num_H_Atoms_ProtBoundConf>  (848) 
nan

>  <Num_Resolved_Atoms>  (848) 
nan

>  <Num_Not_Resolved_Atoms>  (848) 
nan

$$$$
CHEMBL3408803
     RDKit          3D

  0  0  0  0  0  0  0  0  0  0999 V3000
M  V30 BEGIN CTAB
M  V30 COUNTS 30 33 0 0 0
M  V30 BEGIN ATOM
M  V30 1 N 3.996121 -4.180034 3.755053 0
M  V30 2 C 2.672108 -3.920564 3.307177 0
M  V30 3 N 1.642847 -4.757391 3.627675 0
M  V30 4 C 0.440587 -4.384815 3.132786 0
M  V30 5 N 0.202812 -3.301921 2.385113 0
M  V30 6 C 1.186180 -2.450050 2.045196 0
M  V30 7 C 2.413312 -2.804210 2.533505 0
M  V30 8 S 3.556683 -1.603002 2.002607 0
M  V30 9 C 2.256350 -0.596871 1.078987 0
M  V30 10 N 2.384692 0.535071 0.377373 0
M  V30 11 C 1.328082 1.116539 -0.221179 0
M  V30 12 C 0.144532 0.439666 -0.036432 0
M  V30 13 C -1.029485 1.050258 -0.675982 0
M  V30 14 C -1.168765 2.431471 -0.491943 0
M  V30 15 C -2.197207 3.174522 -1.007578 0
M  V30 16 C -3.167028 2.547984 -1.756939 0
M  V30 17 F -4.224030 3.183264 -2.312293 0
M  V30 18 C -3.039087 1.192293 -1.943291 0
M  V30 19 C -2.008196 0.435223 -1.428915 0
M  V30 20 Cl -1.816478 -1.277854 -1.648857 0
M  V30 21 C 0.004595 -0.720935 0.681257 0
M  V30 22 C 1.084112 -1.318984 1.295294 0
M  V30 23 H 4.148453 -4.224771 4.798003 0
M  V30 24 H 4.750108 -4.312935 3.020639 0
M  V30 25 H -0.437858 -5.013718 3.351401 0
M  V30 26 H 1.531303 2.020920 -0.760379 0
M  V30 27 H -0.431137 2.990128 0.094301 0
M  V30 28 H -2.267919 4.243707 -0.841203 0
M  V30 29 H -3.769634 0.634268 -2.524844 0
M  V30 30 H -0.983179 -1.144400 0.746373 0
M  V30 END ATOM
M  V30 BEGIN BOND
M  V30 1 1 1 2
M  V30 2 2 2 3
M  V30 3 1 3 4
M  V30 4 2 4 5
M  V30 5 1 5 6
M  V30 6 2 6 7
M  V30 7 1 7 8
M  V30 8 1 8 9
M  V30 9 2 9 10
M  V30 10 1 10 11
M  V30 11 2 11 12
M  V30 12 1 12 13
M  V30 13 2 13 14
M  V30 14 1 14 15
M  V30 15 2 15 16
M  V30 16 1 16 17
M  V30 17 1 16 18
M  V30 18 2 18 19
M  V30 19 1 19 20
M  V30 20 1 12 21
M  V30 21 2 21 22
M  V30 22 1 7 2
M  V30 23 1 22 9
M  V30 24 1 22 6
M  V30 25 1 19 13
M  V30 26 1 1 23
M  V30 27 1 1 24
M  V30 28 1 4 25
M  V30 29 1 11 26
M  V30 30 1 14 27
M  V30 31 1 15 28
M  V30 32 1 18 29
M  V30 33 1 21 30
M  V30 END BOND
M  V30 END CTAB
M  END
>  <Dataset>  (849) 
ChEMBL_Kinases

>  <Ligand_Instance>  (849) 
nan

>  <PDB_ID>  (849) 
nan

>  <Standardized_SMILES>  (849) 
Nc1ncnc2c1sc1ncc(-c3ccc(F)cc3Cl)cc12

>  <Name>  (849) 
nan

>  <Pocket>  (849) 
nan

>  <ATP_Site>  (849) 
nan

>  <Peripheral>  (849) 
nan

>  <Num_H_Atoms_ProtBoundConf>  (849) 
nan

>  <Num_Resolved_Atoms>  (849) 
nan

>  <Num_Not_Resolved_Atoms>  (849) 
nan

$$$$
CHEMBL3408804
     RDKit          3D

  0  0  0  0  0  0  0  0  0  0999 V3000
M  V30 BEGIN CTAB
M  V30 COUNTS 34 37 0 0 0
M  V30 BEGIN ATOM
M  V30 1 C 0.182249 -6.239747 3.788830 0
M  V30 2 O 0.798371 -4.955222 3.878229 0
M  V30 3 C 0.627971 -4.040166 2.869318 0
M  V30 4 C -0.140200 -4.371645 1.773897 0
M  V30 5 C -0.303900 -3.435644 0.760559 0
M  V30 6 C 0.286481 -2.210829 0.850894 0
M  V30 7 C 0.169333 -1.162130 -0.167811 0
M  V30 8 C 0.327064 -1.578201 -1.468656 0
M  V30 9 N 0.208398 -0.569652 -2.355997 0
M  V30 10 C -0.032877 0.668504 -1.980444 0
M  V30 11 S -0.240394 2.237261 -3.009053 0
M  V30 12 C -0.523727 3.313522 -1.554711 0
M  V30 13 C -0.763937 4.680976 -1.542449 0
M  V30 14 N -0.796679 5.336737 -2.799919 0
M  V30 15 N -0.941445 5.245554 -0.337157 0
M  V30 16 C -0.868116 4.430161 0.726617 0
M  V30 17 N -0.637600 3.131167 0.679216 0
M  V30 18 C -0.446159 2.464815 -0.466511 0
M  V30 19 C -0.201425 1.138204 -0.657756 0
M  V30 20 C -0.082139 0.117334 0.253135 0
M  V30 21 C 1.064812 -1.874042 1.960087 0
M  V30 22 F 1.707183 -0.688306 2.172241 0
M  V30 23 C 1.241284 -2.799257 2.987552 0
M  V30 24 H 0.593484 -6.692152 2.865068 0
M  V30 25 H -0.896355 -6.177236 3.657105 0
M  V30 26 H 0.482821 -6.881949 4.638654 0
M  V30 27 H -0.604458 -5.355391 1.718805 0
M  V30 28 H -0.891990 -3.659429 -0.101270 0
M  V30 29 H 0.520840 -2.542060 -1.852105 0
M  V30 30 H -0.189965 6.168028 -2.690694 0
M  V30 31 H -0.295831 6.221031 -3.063565 0
M  V30 32 H -1.005523 4.837120 1.740397 0
M  V30 33 H -0.182456 0.295122 1.313592 0
M  V30 34 H 1.833278 -2.595963 3.872148 0
M  V30 END ATOM
M  V30 BEGIN BOND
M  V30 1 1 1 2
M  V30 2 1 2 3
M  V30 3 2 3 4
M  V30 4 1 4 5
M  V30 5 2 5 6
M  V30 6 1 6 7
M  V30 7 2 7 8
M  V30 8 1 8 9
M  V30 9 2 9 10
M  V30 10 1 10 11
M  V30 11 1 11 12
M  V30 12 2 12 13
M  V30 13 1 13 14
M  V30 14 1 13 15
M  V30 15 2 15 16
M  V30 16 1 16 17
M  V30 17 2 17 18
M  V30 18 1 18 19
M  V30 19 2 19 20
M  V30 20 1 6 21
M  V30 21 1 21 22
M  V30 22 2 21 23
M  V30 23 1 23 3
M  V30 24 1 20 7
M  V30 25 1 19 10
M  V30 26 1 18 12
M  V30 27 1 1 24
M  V30 28 1 1 25
M  V30 29 1 1 26
M  V30 30 1 4 27
M  V30 31 1 5 28
M  V30 32 1 8 29
M  V30 33 1 14 30
M  V30 34 1 14 31
M  V30 35 1 16 32
M  V30 36 1 20 33
M  V30 37 1 23 34
M  V30 END BOND
M  V30 END CTAB
M  END
>  <Dataset>  (850) 
ChEMBL_Kinases

>  <Ligand_Instance>  (850) 
nan

>  <PDB_ID>  (850) 
nan

>  <Standardized_SMILES>  (850) 
COc1ccc(-c2cnc3sc4c(N)ncnc4c3c2)c(F)c1

>  <Name>  (850) 
nan

>  <Pocket>  (850) 
nan

>  <ATP_Site>  (850) 
nan

>  <Peripheral>  (850) 
nan

>  <Num_H_Atoms_ProtBoundConf>  (850) 
nan

>  <Num_Resolved_Atoms>  (850) 
nan

>  <Num_Not_Resolved_Atoms>  (850) 
nan

$$$$
CHEMBL3408805
     RDKit          3D

  0  0  0  0  0  0  0  0  0  0999 V3000
M  V30 BEGIN CTAB
M  V30 COUNTS 30 33 0 0 0
M  V30 BEGIN ATOM
M  V30 1 N 5.654391 -2.319037 2.511749 0
M  V30 2 C 4.318145 -2.670640 2.214818 0
M  V30 3 N 3.883845 -3.958126 2.330750 0
M  V30 4 C 2.578599 -4.138343 2.009464 0
M  V30 5 N 1.761857 -3.171767 1.612490 0
M  V30 6 C 2.132289 -1.887597 1.479989 0
M  V30 7 C 3.456358 -1.704176 1.805753 0
M  V30 8 S 3.781229 0.037741 1.577239 0
M  V30 9 C 2.016139 0.409749 1.030910 0
M  V30 10 N 1.470259 1.569803 0.671573 0
M  V30 11 C 0.179279 1.665909 0.303292 0
M  V30 12 C -0.482937 0.465230 0.341966 0
M  V30 13 C -1.901533 0.484833 -0.050925 0
M  V30 14 C -2.335083 1.389904 -1.009173 0
M  V30 15 C -3.658669 1.405357 -1.377131 0
M  V30 16 C -4.514140 0.502409 -0.765184 0
M  V30 17 Br -6.351339 0.526969 -1.279190 0
M  V30 18 C -4.140208 -0.410472 0.184895 0
M  V30 19 C -2.801707 -0.400122 0.532994 0
M  V30 20 C 0.058802 -0.741693 0.708742 0
M  V30 21 C 1.380231 -0.832083 1.084251 0
M  V30 22 H 6.650457 -2.467876 2.272980 0
M  V30 23 H 5.747491 -1.618693 3.287381 0
M  V30 24 H 2.136107 -5.145110 2.071599 0
M  V30 25 H -0.190653 2.625487 0.027740 0
M  V30 26 H -1.673899 2.094429 -1.488620 0
M  V30 27 H -4.048610 2.094722 -2.123968 0
M  V30 28 H -4.852076 -1.103158 0.639985 0
M  V30 29 H -2.484339 -1.110815 1.280594 0
M  V30 30 H -0.567409 -1.609975 0.695942 0
M  V30 END ATOM
M  V30 BEGIN BOND
M  V30 1 1 1 2
M  V30 2 2 2 3
M  V30 3 1 3 4
M  V30 4 2 4 5
M  V30 5 1 5 6
M  V30 6 2 6 7
M  V30 7 1 7 8
M  V30 8 1 8 9
M  V30 9 2 9 10
M  V30 10 1 10 11
M  V30 11 2 11 12
M  V30 12 1 12 13
M  V30 13 2 13 14
M  V30 14 1 14 15
M  V30 15 2 15 16
M  V30 16 1 16 17
M  V30 17 1 16 18
M  V30 18 2 18 19
M  V30 19 1 12 20
M  V30 20 2 20 21
M  V30 21 1 7 2
M  V30 22 1 21 9
M  V30 23 1 21 6
M  V30 24 1 19 13
M  V30 25 1 1 22
M  V30 26 1 1 23
M  V30 27 1 4 24
M  V30 28 1 11 25
M  V30 29 1 14 26
M  V30 30 1 15 27
M  V30 31 1 18 28
M  V30 32 1 19 29
M  V30 33 1 20 30
M  V30 END BOND
M  V30 END CTAB
M  END
>  <Dataset>  (851) 
ChEMBL_Kinases

>  <Ligand_Instance>  (851) 
nan

>  <PDB_ID>  (851) 
nan

>  <Standardized_SMILES>  (851) 
Nc1ncnc2c1sc1ncc(-c3ccc(Br)cc3)cc12

>  <Name>  (851) 
nan

>  <Pocket>  (851) 
nan

>  <ATP_Site>  (851) 
nan

>  <Peripheral>  (851) 
nan

>  <Num_H_Atoms_ProtBoundConf>  (851) 
nan

>  <Num_Resolved_Atoms>  (851) 
nan

>  <Num_Not_Resolved_Atoms>  (851) 
nan

$$$$
CHEMBL3408806
     RDKit          3D

  0  0  0  0  0  0  0  0  0  0999 V3000
M  V30 BEGIN CTAB
M  V30 COUNTS 32 35 0 0 0
M  V30 BEGIN ATOM
M  V30 1 N 4.552202 -5.096589 1.631276 0
M  V30 2 C 3.219641 -4.749873 1.280605 0
M  V30 3 N 2.291362 -5.700447 0.967038 0
M  V30 4 C 1.066080 -5.210954 0.655268 0
M  V30 5 N 0.748572 -3.933658 0.641553 0
M  V30 6 C 1.611059 -2.949029 0.938744 0
M  V30 7 C 2.849968 -3.439065 1.254432 0
M  V30 8 S 3.855452 -2.023102 1.615882 0
M  V30 9 C 2.469286 -0.786281 1.302742 0
M  V30 10 N 2.468445 0.533052 1.379090 0
M  V30 11 C 1.372054 1.268961 1.117584 0
M  V30 12 C 0.286452 0.500386 0.771560 0
M  V30 13 C -0.960478 1.236731 0.468340 0
M  V30 14 C -1.208947 2.423237 1.134302 0
M  V30 15 C -2.362688 3.098789 0.850639 0
M  V30 16 C -3.298273 2.663386 -0.066060 0
M  V30 17 N -4.498254 3.386186 -0.346419 0 CHG=1 VAL=4
M  V30 18 O -4.683221 4.451287 0.275717 0
M  V30 19 O -5.363871 2.883966 -1.262753 0 CHG=-1 VAL=1
M  V30 20 C -3.038449 1.470439 -0.729133 0
M  V30 21 C -1.880169 0.764796 -0.463572 0
M  V30 22 C 0.252458 -0.867650 0.682642 0
M  V30 23 C 1.379365 -1.609936 0.952296 0
M  V30 24 H 5.372961 -4.498677 1.388683 0
M  V30 25 H 4.622618 -6.002272 2.151370 0
M  V30 26 H 0.263224 -5.919578 0.391015 0
M  V30 27 H 1.445629 2.331640 1.199504 0
M  V30 28 H -0.470583 2.777648 1.865001 0
M  V30 29 H -2.575627 4.028717 1.360996 0
M  V30 30 H -3.760203 1.125913 -1.442058 0
M  V30 31 H -1.657932 -0.151219 -0.957502 0
M  V30 32 H -0.670248 -1.351101 0.398595 0
M  V30 END ATOM
M  V30 BEGIN BOND
M  V30 1 1 1 2
M  V30 2 2 2 3
M  V30 3 1 3 4
M  V30 4 2 4 5
M  V30 5 1 5 6
M  V30 6 2 6 7
M  V30 7 1 7 8
M  V30 8 1 8 9
M  V30 9 2 9 10
M  V30 10 1 10 11
M  V30 11 2 11 12
M  V30 12 1 12 13
M  V30 13 2 13 14
M  V30 14 1 14 15
M  V30 15 2 15 16
M  V30 16 1 16 17
M  V30 17 2 17 18
M  V30 18 1 17 19
M  V30 19 1 16 20
M  V30 20 2 20 21
M  V30 21 1 12 22
M  V30 22 2 22 23
M  V30 23 1 7 2
M  V30 24 1 23 9
M  V30 25 1 23 6
M  V30 26 1 21 13
M  V30 27 1 1 24
M  V30 28 1 1 25
M  V30 29 1 4 26
M  V30 30 1 11 27
M  V30 31 1 14 28
M  V30 32 1 15 29
M  V30 33 1 20 30
M  V30 34 1 21 31
M  V30 35 1 22 32
M  V30 END BOND
M  V30 END CTAB
M  END
>  <Dataset>  (852) 
ChEMBL_Kinases

>  <Ligand_Instance>  (852) 
nan

>  <PDB_ID>  (852) 
nan

>  <Standardized_SMILES>  (852) 
Nc1ncnc2c1sc1ncc(-c3ccc([N+](=O)[O-])cc3)cc12

>  <Name>  (852) 
nan

>  <Pocket>  (852) 
nan

>  <ATP_Site>  (852) 
nan

>  <Peripheral>  (852) 
nan

>  <Num_H_Atoms_ProtBoundConf>  (852) 
nan

>  <Num_Resolved_Atoms>  (852) 
nan

>  <Num_Not_Resolved_Atoms>  (852) 
nan

$$$$
CHEMBL3408807
     RDKit          3D

  0  0  0  0  0  0  0  0  0  0999 V3000
M  V30 BEGIN CTAB
M  V30 COUNTS 33 37 0 0 0
M  V30 BEGIN ATOM
M  V30 1 N 3.740359 -5.736553 1.858372 0
M  V30 2 C 2.487366 -5.166266 1.514652 0
M  V30 3 N 1.374708 -5.939620 1.334538 0
M  V30 4 C 0.260313 -5.257046 1.011924 0
M  V30 5 N 0.173407 -3.949062 0.864848 0
M  V30 6 C 1.228947 -3.131343 1.027406 0
M  V30 7 C 2.370948 -3.822559 1.357092 0
M  V30 8 S 3.685308 -2.595204 1.540965 0
M  V30 9 C 2.521244 -1.168499 1.135889 0
M  V30 10 N 2.785587 0.137966 1.072874 0
M  V30 11 C 1.838837 1.044746 0.769151 0
M  V30 12 C 0.602755 0.484638 0.537561 0
M  V30 13 C -0.480048 1.412487 0.199098 0
M  V30 14 C -0.456431 2.684973 0.753826 0
M  V30 15 C -1.470894 3.561950 0.435216 0
M  V30 16 C -2.470448 3.144330 -0.421568 0
M  V30 17 C -2.489269 1.878242 -0.971226 0
M  V30 18 C -1.466654 0.977231 -0.657138 0
M  V30 19 O -3.641683 1.847255 -1.769703 0
M  V30 20 C -4.444745 2.974919 -1.480175 0
M  V30 21 O -3.566764 3.884133 -0.853359 0
M  V30 22 C 0.317454 -0.857153 0.599558 0
M  V30 23 C 1.291613 -1.779095 0.911374 0
M  V30 24 H 3.853160 -6.143481 2.820131 0
M  V30 25 H 3.795098 -6.127312 2.830856 0
M  V30 26 H -0.679972 -5.812279 0.849384 0
M  V30 27 H 2.122031 2.066512 0.738323 0
M  V30 28 H 0.359817 2.941266 1.417707 0
M  V30 29 H -1.390613 4.538766 0.900826 0
M  V30 30 H -1.502391 -0.008709 -1.099157 0
M  V30 31 H -5.265423 2.747777 -0.749491 0
M  V30 32 H -4.847753 3.353331 -2.442306 0
M  V30 33 H -0.694885 -1.168412 0.397661 0
M  V30 END ATOM
M  V30 BEGIN BOND
M  V30 1 1 1 2
M  V30 2 2 2 3
M  V30 3 1 3 4
M  V30 4 2 4 5
M  V30 5 1 5 6
M  V30 6 2 6 7
M  V30 7 1 7 8
M  V30 8 1 8 9
M  V30 9 2 9 10
M  V30 10 1 10 11
M  V30 11 2 11 12
M  V30 12 1 12 13
M  V30 13 2 13 14
M  V30 14 1 14 15
M  V30 15 2 15 16
M  V30 16 1 16 17
M  V30 17 2 17 18
M  V30 18 1 17 19
M  V30 19 1 19 20
M  V30 20 1 20 21
M  V30 21 1 12 22
M  V30 22 2 22 23
M  V30 23 1 7 2
M  V30 24 1 23 9
M  V30 25 1 23 6
M  V30 26 1 18 13
M  V30 27 1 21 16
M  V30 28 1 1 24
M  V30 29 1 1 25
M  V30 30 1 4 26
M  V30 31 1 11 27
M  V30 32 1 14 28
M  V30 33 1 15 29
M  V30 34 1 18 30
M  V30 35 1 20 31
M  V30 36 1 20 32
M  V30 37 1 22 33
M  V30 END BOND
M  V30 END CTAB
M  END
>  <Dataset>  (853) 
ChEMBL_Kinases

>  <Ligand_Instance>  (853) 
nan

>  <PDB_ID>  (853) 
nan

>  <Standardized_SMILES>  (853) 
Nc1ncnc2c1sc1ncc(-c3ccc4c(c3)OCO4)cc12

>  <Name>  (853) 
nan

>  <Pocket>  (853) 
nan

>  <ATP_Site>  (853) 
nan

>  <Peripheral>  (853) 
nan

>  <Num_H_Atoms_ProtBoundConf>  (853) 
nan

>  <Num_Resolved_Atoms>  (853) 
nan

>  <Num_Not_Resolved_Atoms>  (853) 
nan

$$$$
CHEMBL3408808
     RDKit          3D

  0  0  0  0  0  0  0  0  0  0999 V3000
M  V30 BEGIN CTAB
M  V30 COUNTS 27 30 0 0 0
M  V30 BEGIN ATOM
M  V30 1 N 0.951854 -5.496791 2.836409 0
M  V30 2 C 1.045583 -4.082111 2.927092 0
M  V30 3 N 1.543077 -3.482180 4.044753 0
M  V30 4 C 1.574035 -2.129412 3.993112 0
M  V30 5 N 1.165938 -1.389286 2.962764 0
M  V30 6 C 0.667192 -1.924518 1.836197 0
M  V30 7 C 0.640632 -3.305643 1.900819 0
M  V30 8 S -0.042601 -3.849894 0.340129 0
M  V30 9 C -0.251832 -2.093447 -0.314986 0
M  V30 10 N -0.741927 -1.693711 -1.507282 0
M  V30 11 C -0.812275 -0.362663 -1.795764 0
M  V30 12 C -0.358877 0.449988 -0.801685 0
M  V30 13 C -0.425659 1.898494 -1.092578 0
M  V30 14 C -0.061098 2.912700 -0.326657 0
M  V30 15 C -0.184867 4.211784 -0.738165 0
M  V30 16 C -0.740452 4.349924 -2.060616 0
M  V30 17 S -1.027534 2.547444 -2.571238 0
M  V30 18 C 0.138492 0.039174 0.408787 0
M  V30 19 C 0.216148 -1.300729 0.715318 0
M  V30 20 H 1.531661 -5.923049 2.070720 0
M  V30 21 H 0.298901 -5.857643 3.577137 0
M  V30 22 H 1.961352 -1.552612 4.853144 0
M  V30 23 H -1.211528 -0.127145 -2.758747 0
M  V30 24 H 0.355547 2.751578 0.670360 0
M  V30 25 H 0.068633 5.125662 -0.224797 0
M  V30 26 H -0.920188 5.349979 -2.576504 0
M  V30 27 H 0.465453 0.789747 1.110509 0
M  V30 END ATOM
M  V30 BEGIN BOND
M  V30 1 1 1 2
M  V30 2 2 2 3
M  V30 3 1 3 4
M  V30 4 2 4 5
M  V30 5 1 5 6
M  V30 6 2 6 7
M  V30 7 1 7 8
M  V30 8 1 8 9
M  V30 9 2 9 10
M  V30 10 1 10 11
M  V30 11 2 11 12
M  V30 12 1 12 13
M  V30 13 2 13 14
M  V30 14 1 14 15
M  V30 15 2 15 16
M  V30 16 1 16 17
M  V30 17 1 12 18
M  V30 18 2 18 19
M  V30 19 1 7 2
M  V30 20 1 19 9
M  V30 21 1 19 6
M  V30 22 1 17 13
M  V30 23 1 1 20
M  V30 24 1 1 21
M  V30 25 1 4 22
M  V30 26 1 11 23
M  V30 27 1 14 24
M  V30 28 1 15 25
M  V30 29 1 16 26
M  V30 30 1 18 27
M  V30 END BOND
M  V30 END CTAB
M  END
>  <Dataset>  (854) 
ChEMBL_Kinases

>  <Ligand_Instance>  (854) 
nan

>  <PDB_ID>  (854) 
nan

>  <Standardized_SMILES>  (854) 
Nc1ncnc2c1sc1ncc(-c3cccs3)cc12

>  <Name>  (854) 
nan

>  <Pocket>  (854) 
nan

>  <ATP_Site>  (854) 
nan

>  <Peripheral>  (854) 
nan

>  <Num_H_Atoms_ProtBoundConf>  (854) 
nan

>  <Num_Resolved_Atoms>  (854) 
nan

>  <Num_Not_Resolved_Atoms>  (854) 
nan

$$$$
CHEMBL3408809
     RDKit          3D

  0  0  0  0  0  0  0  0  0  0999 V3000
M  V30 BEGIN CTAB
M  V30 COUNTS 28 31 0 0 0
M  V30 BEGIN ATOM
M  V30 1 N 4.301692 -1.549918 4.528263 0
M  V30 2 C 3.152546 -2.025087 3.836895 0
M  V30 3 N 2.604593 -3.256664 4.073983 0
M  V30 4 C 1.504683 -3.564171 3.328713 0
M  V30 5 N 0.967443 -2.758215 2.425532 0
M  V30 6 C 1.455712 -1.536690 2.144915 0
M  V30 7 C 2.538465 -1.226911 2.874201 0
M  V30 8 S 3.060617 0.404003 2.388163 0
M  V30 9 C 1.661679 0.557730 1.132724 0
M  V30 10 N 1.380981 1.586014 0.317884 0
M  V30 11 C 0.334499 1.541486 -0.529069 0
M  V30 12 C -0.376183 0.366180 -0.457096 0
M  V30 13 C -1.537613 0.264629 -1.363218 0
M  V30 14 C -2.278115 1.384844 -1.719882 0
M  V30 15 N -3.328161 1.231540 -2.550016 0
M  V30 16 C -3.660757 0.007102 -3.031955 0
M  V30 17 N -2.933541 -1.072571 -2.677849 0
M  V30 18 C -1.871075 -0.983526 -1.850325 0
M  V30 19 C -0.093430 -0.688011 0.373798 0
M  V30 20 C 0.982010 -0.634495 1.239335 0
M  V30 21 H 3.888616 -0.978533 5.302524 0
M  V30 22 H 3.796358 -0.996645 5.274232 0
M  V30 23 H 1.011308 -4.539883 3.466804 0
M  V30 24 H 0.168553 2.396383 -1.151178 0
M  V30 25 H -1.927971 2.300413 -1.281718 0
M  V30 26 H -4.514722 -0.034945 -3.692619 0
M  V30 27 H -1.350316 -1.902800 -1.625161 0
M  V30 28 H -0.732265 -1.544246 0.324730 0
M  V30 END ATOM
M  V30 BEGIN BOND
M  V30 1 1 1 2
M  V30 2 2 2 3
M  V30 3 1 3 4
M  V30 4 2 4 5
M  V30 5 1 5 6
M  V30 6 2 6 7
M  V30 7 1 7 8
M  V30 8 1 8 9
M  V30 9 2 9 10
M  V30 10 1 10 11
M  V30 11 2 11 12
M  V30 12 1 12 13
M  V30 13 2 13 14
M  V30 14 1 14 15
M  V30 15 2 15 16
M  V30 16 1 16 17
M  V30 17 2 17 18
M  V30 18 1 12 19
M  V30 19 2 19 20
M  V30 20 1 7 2
M  V30 21 1 20 9
M  V30 22 1 20 6
M  V30 23 1 18 13
M  V30 24 1 1 21
M  V30 25 1 1 22
M  V30 26 1 4 23
M  V30 27 1 11 24
M  V30 28 1 14 25
M  V30 29 1 16 26
M  V30 30 1 18 27
M  V30 31 1 19 28
M  V30 END BOND
M  V30 END CTAB
M  END
>  <Dataset>  (855) 
ChEMBL_Kinases

>  <Ligand_Instance>  (855) 
nan

>  <PDB_ID>  (855) 
nan

>  <Standardized_SMILES>  (855) 
Nc1ncnc2c1sc1ncc(-c3cncnc3)cc12

>  <Name>  (855) 
nan

>  <Pocket>  (855) 
nan

>  <ATP_Site>  (855) 
nan

>  <Peripheral>  (855) 
nan

>  <Num_H_Atoms_ProtBoundConf>  (855) 
nan

>  <Num_Resolved_Atoms>  (855) 
nan

>  <Num_Not_Resolved_Atoms>  (855) 
nan

$$$$
CHEMBL3408810
     RDKit          3D

  0  0  0  0  0  0  0  0  0  0999 V3000
M  V30 BEGIN CTAB
M  V30 COUNTS 30 33 0 0 0
M  V30 BEGIN ATOM
M  V30 1 N 1.638397 -6.090473 1.869195 0
M  V30 2 C 0.496857 -5.385747 2.308069 0
M  V30 3 N -0.529226 -5.753176 3.065365 0
M  V30 4 C -1.483581 -4.858977 3.321703 0
M  V30 5 N -1.512524 -3.612324 2.887405 0
M  V30 6 C -0.563255 -3.073104 2.114558 0
M  V30 7 C 0.435390 -4.049223 1.860977 0
M  V30 8 S 1.677408 -3.121150 0.769131 0
M  V30 9 C 0.690380 -1.519628 0.788946 0
M  V30 10 N 0.951658 -0.351655 0.206660 0
M  V30 11 C 0.126110 0.699835 0.327643 0
M  V30 12 C 0.457436 1.944936 -0.325208 0
M  V30 13 C -0.333706 3.049544 -0.244422 0
M  V30 14 C -0.010756 4.235482 -0.870732 0
M  V30 15 C 1.153231 4.312909 -1.606762 0
M  V30 16 Cl 1.529757 5.840898 -2.389650 0
M  V30 17 C 1.967178 3.208358 -1.701439 0
M  V30 18 C 1.611224 2.055807 -1.067156 0
M  V30 19 Cl 2.725615 0.695016 -1.251671 0
M  V30 20 C -0.968387 0.411727 1.097785 0
M  V30 21 C -1.282870 -0.767259 1.716422 0
M  V30 22 C -0.432968 -1.833442 1.585953 0
M  V30 23 H 2.616746 -5.839350 2.184863 0
M  V30 24 H 1.498935 -6.887464 1.208373 0
M  V30 25 H -2.350019 -5.133504 3.948216 0
M  V30 26 H -1.243566 2.989895 0.330592 0
M  V30 27 H -0.643970 5.096120 -0.797565 0
M  V30 28 H 2.864224 3.308718 -2.283425 0
M  V30 29 H -1.688240 1.236827 1.236548 0
M  V30 30 H -2.194604 -0.826737 2.292531 0
M  V30 END ATOM
M  V30 BEGIN BOND
M  V30 1 1 1 2
M  V30 2 2 2 3
M  V30 3 1 3 4
M  V30 4 2 4 5
M  V30 5 1 5 6
M  V30 6 2 6 7
M  V30 7 1 7 8
M  V30 8 1 8 9
M  V30 9 2 9 10
M  V30 10 1 10 11
M  V30 11 1 11 12
M  V30 12 2 12 13
M  V30 13 1 13 14
M  V30 14 2 14 15
M  V30 15 1 15 16
M  V30 16 1 15 17
M  V30 17 2 17 18
M  V30 18 1 18 19
M  V30 19 2 11 20
M  V30 20 1 20 21
M  V30 21 2 21 22
M  V30 22 1 7 2
M  V30 23 1 22 9
M  V30 24 1 22 6
M  V30 25 1 18 12
M  V30 26 1 1 23
M  V30 27 1 1 24
M  V30 28 1 4 25
M  V30 29 1 13 26
M  V30 30 1 14 27
M  V30 31 1 17 28
M  V30 32 1 20 29
M  V30 33 1 21 30
M  V30 END BOND
M  V30 END CTAB
M  END
>  <Dataset>  (856) 
ChEMBL_Kinases

>  <Ligand_Instance>  (856) 
nan

>  <PDB_ID>  (856) 
nan

>  <Standardized_SMILES>  (856) 
Nc1ncnc2c1sc1nc(-c3ccc(Cl)cc3Cl)ccc12

>  <Name>  (856) 
nan

>  <Pocket>  (856) 
nan

>  <ATP_Site>  (856) 
nan

>  <Peripheral>  (856) 
nan

>  <Num_H_Atoms_ProtBoundConf>  (856) 
nan

>  <Num_Resolved_Atoms>  (856) 
nan

>  <Num_Not_Resolved_Atoms>  (856) 
nan

$$$$
CHEMBL3407859
     RDKit          3D

  0  0  0  0  0  0  0  0  0  0999 V3000
M  V30 BEGIN CTAB
M  V30 COUNTS 65 70 0 0 0
M  V30 BEGIN ATOM
M  V30 1 C -0.208235 -0.595190 5.602420 0
M  V30 2 C -0.304559 -0.689712 4.123695 0
M  V30 3 C -0.937971 -1.776146 3.567539 0
M  V30 4 C -1.000786 -1.819281 2.196110 0
M  V30 5 C -0.500026 -0.896967 1.313014 0
M  V30 6 C -0.563143 -0.890724 -0.121455 0
M  V30 7 O -0.146279 0.208700 -0.630951 0
M  V30 8 C -0.977117 -1.805851 -1.144659 0
M  V30 9 C -1.310055 -1.383525 -2.416010 0
M  V30 10 C -1.416114 -0.046775 -3.043380 0
M  V30 11 C -2.111333 0.979001 -2.438691 0
M  V30 12 C -2.261518 2.258455 -2.925194 0
M  V30 13 C -1.650845 2.522948 -4.137292 0
M  V30 14 C -0.936282 1.540614 -4.801781 0
M  V30 15 C -0.818771 0.276049 -4.266928 0
M  V30 16 N -1.609907 -2.494865 -3.155608 0
M  V30 17 C -2.017071 -2.515261 -4.562965 0
M  V30 18 N -1.491415 -3.601649 -2.441580 0
M  V30 19 C -1.727190 -4.925541 -2.902887 0
M  V30 20 C -2.896902 -5.642374 -2.766040 0
M  V30 21 C -2.981642 -6.942238 -3.271198 0
M  V30 22 C -1.893698 -7.519892 -3.912272 0
M  V30 23 C -0.734667 -6.815698 -4.050048 0
M  V30 24 C -0.639888 -5.521653 -3.550806 0
M  V30 25 C -1.109173 -3.169587 -1.232803 0
M  V30 26 O -0.914167 -4.021210 -0.331657 0
M  V30 27 C 0.127359 0.177797 1.908671 0
M  V30 28 N 0.739805 1.284988 1.258007 0
M  V30 29 C 0.222338 0.277333 3.303181 0
M  V30 30 C 0.870729 1.389734 3.981389 0
M  V30 31 C 0.270704 2.577584 4.389784 0
M  V30 32 C 0.911632 3.595444 5.020935 0
M  V30 33 C 2.260559 3.498589 5.304313 0
M  V30 34 N 3.047978 4.375416 5.903641 0
M  V30 35 C 4.202531 4.262765 6.130629 0
M  V30 36 C 5.381091 4.941787 6.728031 0
M  V30 37 F 6.059503 5.693400 5.773650 0
M  V30 38 S 4.613713 2.543551 5.429448 0
M  V30 39 C 2.851244 2.265851 4.872892 0
M  V30 40 C 2.215251 1.229678 4.234273 0
M  V30 41 H 0.026116 -1.588283 6.075696 0
M  V30 42 H -1.171691 -0.231359 6.050231 0
M  V30 43 H 0.657819 0.061864 5.880302 0
M  V30 44 H -1.357448 -2.543541 4.189318 0
M  V30 45 H -1.519664 -2.674665 1.804748 0
M  V30 46 H -2.630367 0.831746 -1.476774 0
M  V30 47 H -2.817467 3.028577 -2.410215 0
M  V30 48 H -1.760459 3.539619 -4.541976 0
M  V30 49 H -0.479831 1.791624 -5.738782 0
M  V30 50 H -0.262132 -0.500017 -4.776851 0
M  V30 51 H -2.783967 -3.316570 -4.658047 0
M  V30 52 H -2.428382 -1.521817 -4.868051 0
M  V30 53 H -1.130364 -2.693921 -5.190662 0
M  V30 54 H -3.677877 -5.103129 -2.255135 0
M  V30 55 H -3.970371 -7.348146 -3.073146 0
M  V30 56 H -2.091871 -8.534378 -4.257600 0
M  V30 57 H 0.063233 -7.333304 -4.558750 0
M  V30 58 H 0.320689 -5.053944 -3.712940 0
M  V30 59 H 1.784510 1.206931 1.365461 0
M  V30 60 H 0.454026 2.118009 0.727058 0
M  V30 61 H -0.804234 2.648205 4.160912 0
M  V30 62 H 0.309953 4.456561 5.275320 0
M  V30 63 H 5.020917 5.677960 7.487809 0
M  V30 64 H 6.114743 4.254841 7.173859 0
M  V30 65 H 2.837375 0.393783 3.995592 0
M  V30 END ATOM
M  V30 BEGIN BOND
M  V30 1 1 1 2
M  V30 2 2 2 3
M  V30 3 1 3 4
M  V30 4 2 4 5
M  V30 5 1 5 6
M  V30 6 2 6 7
M  V30 7 1 6 8
M  V30 8 2 8 9
M  V30 9 1 9 10
M  V30 10 2 10 11
M  V30 11 1 11 12
M  V30 12 2 12 13
M  V30 13 1 13 14
M  V30 14 2 14 15
M  V30 15 1 9 16
M  V30 16 1 16 17
M  V30 17 1 16 18
M  V30 18 1 18 19
M  V30 19 2 19 20
M  V30 20 1 20 21
M  V30 21 2 21 22
M  V30 22 1 22 23
M  V30 23 2 23 24
M  V30 24 1 18 25
M  V30 25 2 25 26
M  V30 26 1 5 27
M  V30 27 1 27 28
M  V30 28 2 27 29
M  V30 29 1 29 30
M  V30 30 2 30 31
M  V30 31 1 31 32
M  V30 32 2 32 33
M  V30 33 1 33 34
M  V30 34 2 34 35
M  V30 35 1 35 36
M  V30 36 1 36 37
M  V30 37 1 35 38
M  V30 38 1 38 39
M  V30 39 2 39 40
M  V30 40 1 29 2
M  V30 41 1 40 30
M  V30 42 1 25 8
M  V30 43 1 39 33
M  V30 44 1 15 10
M  V30 45 1 24 19
M  V30 46 1 1 41
M  V30 47 1 1 42
M  V30 48 1 1 43
M  V30 49 1 3 44
M  V30 50 1 4 45
M  V30 51 1 11 46
M  V30 52 1 12 47
M  V30 53 1 13 48
M  V30 54 1 14 49
M  V30 55 1 15 50
M  V30 56 1 17 51
M  V30 57 1 17 52
M  V30 58 1 17 53
M  V30 59 1 20 54
M  V30 60 1 21 55
M  V30 61 1 22 56
M  V30 62 1 23 57
M  V30 63 1 24 58
M  V30 64 1 28 59
M  V30 65 1 28 60
M  V30 66 1 31 61
M  V30 67 1 32 62
M  V30 68 1 36 63
M  V30 69 1 36 64
M  V30 70 1 40 65
M  V30 END BOND
M  V30 END CTAB
M  END
>  <Dataset>  (857) 
ChEMBL_Kinases

>  <Ligand_Instance>  (857) 
nan

>  <PDB_ID>  (857) 
nan

>  <Standardized_SMILES>  (857) 
Cc1ccc(C(=O)c2c(-c3ccccc3)n(C)n(-c3ccccc3)c2=O)c(N)c1-c1ccc2nc(CF)sc2c1

>  <Name>  (857) 
nan

>  <Pocket>  (857) 
nan

>  <ATP_Site>  (857) 
nan

>  <Peripheral>  (857) 
nan

>  <Num_H_Atoms_ProtBoundConf>  (857) 
nan

>  <Num_Resolved_Atoms>  (857) 
nan

>  <Num_Not_Resolved_Atoms>  (857) 
nan

$$$$
CHEMBL3798736
     RDKit          3D

  0  0  0  0  0  0  0  0  0  0999 V3000
M  V30 BEGIN CTAB
M  V30 COUNTS 50 54 0 0 0
M  V30 BEGIN ATOM
M  V30 1 O 1.175633 1.587105 1.857890 0
M  V30 2 C 2.003385 1.149722 1.002159 0
M  V30 3 C 2.694547 0.840646 2.309578 0
M  V30 4 C 3.078849 0.698509 3.443782 0
M  V30 5 C 4.239484 0.065190 4.034750 0
M  V30 6 C 4.380534 0.153326 5.409739 0
M  V30 7 C 5.487839 -0.463000 5.952827 0
M  V30 8 C 6.418205 -1.133986 5.204018 0
M  V30 9 C 6.301380 -1.238854 3.816465 0
M  V30 10 C 5.183523 -0.606352 3.349934 0
M  V30 11 N 2.198449 1.004735 -0.351697 0
M  V30 12 C 0.957647 1.490693 -0.971795 0
M  V30 13 C 0.917121 2.761621 -1.476096 0
M  V30 14 C -0.308273 3.175322 -1.933966 0
M  V30 15 C -1.420218 2.320553 -1.869768 0
M  V30 16 C -1.349138 1.032387 -1.355418 0
M  V30 17 C -0.129941 0.652818 -0.912009 0
M  V30 18 C -2.659931 0.471450 -1.367871 0
M  V30 19 C -3.037220 -0.731375 -1.111179 0
M  V30 20 N -4.323607 -1.316577 -1.087001 0
M  V30 21 C -4.372472 -2.712198 -0.874395 0
M  V30 22 C -5.477568 -3.526599 -0.781659 0
M  V30 23 C -5.189290 -4.844632 -0.546463 0
M  V30 24 C -3.903798 -5.272464 -0.421434 0
M  V30 25 C -2.839660 -4.428454 -0.520058 0
M  V30 26 C -3.013754 -3.036088 -0.760482 0
M  V30 27 C -2.161017 -1.871652 -0.898539 0
M  V30 28 N -0.943676 -2.057590 -0.869831 0
M  V30 29 O -0.301616 -3.216845 -0.653294 0
M  V30 30 C -3.605070 1.479861 -1.919624 0
M  V30 31 O -4.822979 1.429888 -2.108298 0
M  V30 32 N -2.746781 2.581544 -2.200925 0
M  V30 33 H 3.510847 0.304391 1.766780 0
M  V30 34 H 2.249337 1.222711 3.858608 0
M  V30 35 H 3.608834 0.702151 5.927578 0
M  V30 36 H 5.518232 -0.340596 7.049233 0
M  V30 37 H 7.243365 -1.577687 5.757491 0
M  V30 38 H 7.032354 -1.765203 3.236012 0
M  V30 39 H 5.136863 -0.714899 2.252388 0
M  V30 40 H 3.142594 0.609957 -0.499296 0
M  V30 41 H 1.751773 3.430115 -1.531611 0
M  V30 42 H -0.412075 4.174038 -2.346859 0
M  V30 43 H 0.095929 -0.250828 -0.450649 0
M  V30 44 H -5.169013 -0.686460 -1.216771 0
M  V30 45 H -6.487565 -3.174407 -0.880407 0
M  V30 46 H -6.039822 -5.501934 -0.462569 0
M  V30 47 H -3.759460 -6.344364 -0.228144 0
M  V30 48 H -1.880122 -4.849574 -0.414168 0
M  V30 49 H 0.034390 -3.811297 -1.420309 0
M  V30 50 H -3.105526 3.493746 -2.617384 0
M  V30 END ATOM
M  V30 BEGIN BOND
M  V30 1 2 1 2
M  V30 2 1 2 3
M  V30 3 2 3 4
M  V30 4 1 4 5
M  V30 5 2 5 6
M  V30 6 1 6 7
M  V30 7 2 7 8
M  V30 8 1 8 9
M  V30 9 2 9 10
M  V30 10 1 2 11
M  V30 11 1 11 12
M  V30 12 2 12 13
M  V30 13 1 13 14
M  V30 14 2 14 15
M  V30 15 1 15 16
M  V30 16 2 16 17
M  V30 17 1 16 18
M  V30 18 2 18 19
M  V30 19 1 19 20
M  V30 20 1 20 21
M  V30 21 2 21 22
M  V30 22 1 22 23
M  V30 23 2 23 24
M  V30 24 1 24 25
M  V30 25 2 25 26
M  V30 26 1 26 27
M  V30 27 2 27 28
M  V30 28 1 28 29
M  V30 29 1 18 30
M  V30 30 2 30 31
M  V30 31 1 30 32
M  V30 32 1 10 5
M  V30 33 1 17 12
M  V30 34 1 27 19
M  V30 35 1 32 15
M  V30 36 1 26 21
M  V30 37 1 3 33
M  V30 38 1 4 34
M  V30 39 1 6 35
M  V30 40 1 7 36
M  V30 41 1 8 37
M  V30 42 1 9 38
M  V30 43 1 10 39
M  V30 44 1 11 40
M  V30 45 1 13 41
M  V30 46 1 14 42
M  V30 47 1 17 43
M  V30 48 1 20 44
M  V30 49 1 22 45
M  V30 50 1 23 46
M  V30 51 1 24 47
M  V30 52 1 25 48
M  V30 53 1 29 49
M  V30 54 1 32 50
M  V30 END BOND
M  V30 END CTAB
M  END
>  <Dataset>  (858) 
ChEMBL_Kinases

>  <Ligand_Instance>  (858) 
nan

>  <PDB_ID>  (858) 
nan

>  <Standardized_SMILES>  (858) 
O=C(/C=C/c1ccccc1)Nc1ccc2c(c1)/C(=C1/Nc3ccccc3/C1=N\O)C(=O)N2

>  <Name>  (858) 
nan

>  <Pocket>  (858) 
nan

>  <ATP_Site>  (858) 
nan

>  <Peripheral>  (858) 
nan

>  <Num_H_Atoms_ProtBoundConf>  (858) 
nan

>  <Num_Resolved_Atoms>  (858) 
nan

>  <Num_Not_Resolved_Atoms>  (858) 
nan

$$$$
CHEMBL4097299
     RDKit          3D

  0  0  0  0  0  0  0  0  0  0999 V3000
M  V30 BEGIN CTAB
M  V30 COUNTS 45 47 0 0 0
M  V30 BEGIN ATOM
M  V30 1 C -2.480378 -4.676254 -1.622966 0
M  V30 2 N -1.105315 -5.043895 -1.372513 0
M  V30 3 C 0.115663 -4.970059 -2.086061 0
M  V30 4 C 0.819466 -3.804429 -1.885438 0
M  V30 5 C 2.022983 -3.608852 -2.521887 0
M  V30 6 O 2.910384 -2.550519 -2.492961 0
M  V30 7 C 2.708865 -1.397436 -1.749376 0
M  V30 8 C 3.610254 -1.057410 -0.781477 0
M  V30 9 C 3.505016 0.061501 0.010084 0
M  V30 10 C 2.426675 0.918712 -0.160971 0
M  V30 11 N 2.132823 2.121863 0.549845 0
M  V30 12 C 1.327492 1.886344 1.708552 0
M  V30 13 O 1.072327 0.641243 1.814024 0
M  V30 14 N 0.903118 2.898529 2.573175 0
M  V30 15 C 0.101642 2.705491 3.735265 0
M  V30 16 C 0.529519 2.456059 5.027509 0
M  V30 17 C -0.419879 2.298324 6.019500 0
M  V30 18 C -1.776625 2.381950 5.760167 0
M  V30 19 Cl -2.912095 2.168229 7.082603 0
M  V30 20 C -2.189786 2.631228 4.466720 0
M  V30 21 C -3.642456 2.718754 4.199450 0
M  V30 22 F -4.185079 3.737665 4.947235 0
M  V30 23 F -3.902405 2.946649 2.870181 0
M  V30 24 F -4.203033 1.549070 4.667002 0
M  V30 25 C -1.252323 2.795141 3.442815 0
M  V30 26 C 1.483812 0.605378 -1.140434 0
M  V30 27 C 1.647222 -0.542297 -1.909216 0
M  V30 28 F 0.718254 -0.818431 -2.853597 0
M  V30 29 N 2.499919 -4.582663 -3.346745 0
M  V30 30 C 1.799412 -5.737156 -3.543296 0
M  V30 31 N 0.611029 -5.903756 -2.900519 0
M  V30 32 H -2.586817 -3.978691 -2.503130 0
M  V30 33 H -3.093731 -5.557380 -1.805691 0
M  V30 34 H -2.907288 -4.124119 -0.763566 0
M  V30 35 H -1.010970 -5.467065 -0.424642 0
M  V30 36 H 0.546451 -2.982869 -1.267283 0
M  V30 37 H 4.495410 -1.658335 -0.560843 0
M  V30 38 H 4.188108 0.375172 0.787339 0
M  V30 39 H 2.432163 3.116911 0.322116 0
M  V30 40 H 1.212843 3.874631 2.325898 0
M  V30 41 H 1.596179 2.406389 5.144129 0
M  V30 42 H 0.000452 2.103409 7.017500 0
M  V30 43 H -1.681002 2.984971 2.473923 0
M  V30 44 H 0.602797 1.232534 -1.337213 0
M  V30 45 H 2.157735 -6.527531 -4.195060 0
M  V30 END ATOM
M  V30 BEGIN BOND
M  V30 1 1 1 2
M  V30 2 1 2 3
M  V30 3 2 3 4
M  V30 4 1 4 5
M  V30 5 1 5 6
M  V30 6 1 6 7
M  V30 7 2 7 8
M  V30 8 1 8 9
M  V30 9 2 9 10
M  V30 10 1 10 11
M  V30 11 1 11 12
M  V30 12 2 12 13
M  V30 13 1 12 14
M  V30 14 1 14 15
M  V30 15 2 15 16
M  V30 16 1 16 17
M  V30 17 2 17 18
M  V30 18 1 18 19
M  V30 19 1 18 20
M  V30 20 1 20 21
M  V30 21 1 21 22
M  V30 22 1 21 23
M  V30 23 1 21 24
M  V30 24 2 20 25
M  V30 25 1 10 26
M  V30 26 2 26 27
M  V30 27 1 27 28
M  V30 28 2 5 29
M  V30 29 1 29 30
M  V30 30 2 30 31
M  V30 31 1 31 3
M  V30 32 1 27 7
M  V30 33 1 25 15
M  V30 34 1 1 32
M  V30 35 1 1 33
M  V30 36 1 1 34
M  V30 37 1 2 35
M  V30 38 1 4 36
M  V30 39 1 8 37
M  V30 40 1 9 38
M  V30 41 1 11 39
M  V30 42 1 14 40
M  V30 43 1 16 41
M  V30 44 1 17 42
M  V30 45 1 25 43
M  V30 46 1 26 44
M  V30 47 1 30 45
M  V30 END BOND
M  V30 END CTAB
M  END
>  <Dataset>  (859) 
ChEMBL_Kinases

>  <Ligand_Instance>  (859) 
nan

>  <PDB_ID>  (859) 
nan

>  <Standardized_SMILES>  (859) 
CNc1cc(Oc2ccc(NC(=O)Nc3ccc(Cl)c(C(F)(F)F)c3)cc2F)ncn1

>  <Name>  (859) 
nan

>  <Pocket>  (859) 
nan

>  <ATP_Site>  (859) 
nan

>  <Peripheral>  (859) 
nan

>  <Num_H_Atoms_ProtBoundConf>  (859) 
nan

>  <Num_Resolved_Atoms>  (859) 
nan

>  <Num_Not_Resolved_Atoms>  (859) 
nan

$$$$
CHEMBL3798747
     RDKit          3D

  0  0  0  0  0  0  0  0  0  0999 V3000
M  V30 BEGIN CTAB
M  V30 COUNTS 46 50 0 0 0
M  V30 BEGIN ATOM
M  V30 1 O -4.813505 -2.309097 -0.061538 0
M  V30 2 C -3.936211 -1.436536 0.085704 0
M  V30 3 N -4.193408 -0.054887 -0.123980 0
M  V30 4 C -2.931607 0.588857 0.149949 0
M  V30 5 C -2.759834 1.974333 0.055375 0
M  V30 6 C -1.514860 2.490219 0.337968 0
M  V30 7 C -0.492214 1.603426 0.703290 0
M  V30 8 N 0.749872 2.262468 0.970377 0
M  V30 9 C 1.722877 2.502908 -0.008543 0
M  V30 10 O 1.549669 2.141122 -1.208221 0
M  V30 11 C 2.985418 3.175348 0.273659 0
M  V30 12 C 3.895052 3.377262 -0.742631 0
M  V30 13 C 5.111072 4.020593 -0.489649 0
M  V30 14 C 5.413067 4.464495 0.799426 0
M  V30 15 F 6.583953 5.089837 1.068722 0
M  V30 16 C 4.509953 4.273742 1.850358 0
M  V30 17 C 3.346011 3.637886 1.521548 0
M  V30 18 C -0.773947 0.260555 0.763903 0
M  V30 19 C -1.959278 -0.309705 0.502876 0
M  V30 20 C -2.547845 -1.611875 0.476950 0
M  V30 21 C -1.942265 -2.711145 0.751410 0
M  V30 22 N -2.551070 -3.990307 0.717568 0
M  V30 23 C -1.655861 -5.038969 1.064030 0
M  V30 24 C -1.871966 -6.403329 1.144195 0
M  V30 25 C -0.784127 -7.159328 1.512694 0
M  V30 26 C 0.442906 -6.614435 1.786820 0
M  V30 27 C 0.583335 -5.250248 1.686361 0
M  V30 28 C -0.456238 -4.394277 1.320695 0
M  V30 29 C -0.588049 -2.965403 1.140611 0
M  V30 30 N 0.391564 -2.238228 1.329739 0
M  V30 31 O 1.620948 -2.611632 1.697503 0
M  V30 32 H -5.110199 0.353135 -0.412055 0
M  V30 33 H -3.536389 2.660173 -0.223251 0
M  V30 34 H -1.373467 3.556146 0.267695 0
M  V30 35 H 0.891378 2.560285 1.960456 0
M  V30 36 H 3.691536 3.045097 -1.753734 0
M  V30 37 H 5.826398 4.177729 -1.295934 0
M  V30 38 H 4.725413 4.610262 2.855541 0
M  V30 39 H 2.657025 3.499637 2.355135 0
M  V30 40 H 0.105862 -0.213940 1.049089 0
M  V30 41 H -3.548221 -4.158387 0.467017 0
M  V30 42 H -2.838378 -6.835562 0.928595 0
M  V30 43 H -0.947829 -8.223725 1.576524 0
M  V30 44 H 1.252646 -7.272258 2.070756 0
M  V30 45 H 1.564552 -4.896644 1.913850 0
M  V30 46 H 2.394558 -2.672068 1.051047 0
M  V30 END ATOM
M  V30 BEGIN BOND
M  V30 1 2 1 2
M  V30 2 1 2 3
M  V30 3 1 3 4
M  V30 4 2 4 5
M  V30 5 1 5 6
M  V30 6 2 6 7
M  V30 7 1 7 8
M  V30 8 1 8 9
M  V30 9 2 9 10
M  V30 10 1 9 11
M  V30 11 2 11 12
M  V30 12 1 12 13
M  V30 13 2 13 14
M  V30 14 1 14 15
M  V30 15 1 14 16
M  V30 16 2 16 17
M  V30 17 1 7 18
M  V30 18 2 18 19
M  V30 19 1 19 20
M  V30 20 2 20 21
M  V30 21 1 21 22
M  V30 22 1 22 23
M  V30 23 2 23 24
M  V30 24 1 24 25
M  V30 25 2 25 26
M  V30 26 1 26 27
M  V30 27 2 27 28
M  V30 28 1 28 29
M  V30 29 2 29 30
M  V30 30 1 30 31
M  V30 31 1 20 2
M  V30 32 1 29 21
M  V30 33 1 19 4
M  V30 34 1 28 23
M  V30 35 1 17 11
M  V30 36 1 3 32
M  V30 37 1 5 33
M  V30 38 1 6 34
M  V30 39 1 8 35
M  V30 40 1 12 36
M  V30 41 1 13 37
M  V30 42 1 16 38
M  V30 43 1 17 39
M  V30 44 1 18 40
M  V30 45 1 22 41
M  V30 46 1 24 42
M  V30 47 1 25 43
M  V30 48 1 26 44
M  V30 49 1 27 45
M  V30 50 1 31 46
M  V30 END BOND
M  V30 END CTAB
M  END
>  <Dataset>  (860) 
ChEMBL_Kinases

>  <Ligand_Instance>  (860) 
nan

>  <PDB_ID>  (860) 
nan

>  <Standardized_SMILES>  (860) 
O=C1Nc2ccc(NC(=O)c3ccc(F)cc3)cc2/C1=C1/Nc2ccccc2/C1=N\O

>  <Name>  (860) 
nan

>  <Pocket>  (860) 
nan

>  <ATP_Site>  (860) 
nan

>  <Peripheral>  (860) 
nan

>  <Num_H_Atoms_ProtBoundConf>  (860) 
nan

>  <Num_Resolved_Atoms>  (860) 
nan

>  <Num_Not_Resolved_Atoms>  (860) 
nan

$$$$
CHEMBL3798926
     RDKit          3D

  0  0  0  0  0  0  0  0  0  0999 V3000
M  V30 BEGIN CTAB
M  V30 COUNTS 47 50 0 0 0
M  V30 BEGIN ATOM
M  V30 1 O 2.024490 -1.966379 3.159886 0
M  V30 2 C 1.029097 -1.626628 2.443240 0
M  V30 3 N 1.038064 -1.967811 1.081717 0
M  V30 4 C 2.164369 -2.679300 0.569487 0
M  V30 5 C 2.023746 -2.969905 -0.901930 0
M  V30 6 C 1.895578 -1.681970 -1.709696 0
M  V30 7 C 3.110274 -0.838151 -1.508899 0
M  V30 8 C 4.209374 -0.985571 -2.361186 0
M  V30 9 C 5.392478 -0.290508 -2.309665 0
M  V30 10 C 5.501819 0.652288 -1.307795 0
M  V30 11 C 4.447129 0.838376 -0.439301 0
M  V30 12 C 3.278042 0.117678 -0.528658 0
M  V30 13 C -0.052725 -0.900590 3.107889 0
M  V30 14 C 0.087192 -0.640012 4.455832 0
M  V30 15 C -0.918811 0.050022 5.134414 0
M  V30 16 C -2.022686 0.443188 4.406547 0
M  V30 17 N -3.148962 1.116978 4.767019 0
M  V30 18 N -3.971917 1.290697 3.741531 0
M  V30 19 C -3.383443 0.718693 2.663399 0
M  V30 20 C -3.961417 0.689899 1.333238 0
M  V30 21 C -5.315341 0.346423 1.299445 0
M  V30 22 C -5.968576 0.290023 0.062728 0
M  V30 23 N -5.278193 0.567358 -1.060863 0
M  V30 24 C -3.974947 0.900649 -1.058178 0
M  V30 25 C -3.298207 0.966171 0.143841 0
M  V30 26 C -2.168407 0.185073 3.056368 0
M  V30 27 C -1.167957 -0.495554 2.404173 0
M  V30 28 H 0.241322 -1.701252 0.486217 0
M  V30 29 H 2.388773 -3.620755 1.087338 0
M  V30 30 H 3.087868 -2.053085 0.685897 0
M  V30 31 H 1.103991 -3.557306 -1.119172 0
M  V30 32 H 2.863098 -3.549765 -1.304678 0
M  V30 33 H 1.870704 -1.902806 -2.795835 0
M  V30 34 H 0.980191 -1.124784 -1.470057 0
M  V30 35 H 4.103113 -1.742471 -3.153982 0
M  V30 36 H 6.160975 -0.510838 -3.038667 0
M  V30 37 H 6.431688 1.206279 -1.258558 0
M  V30 38 H 4.553275 1.595017 0.353288 0
M  V30 39 H 2.451579 0.261504 0.149551 0
M  V30 40 H 0.944938 -0.941681 5.036943 0
M  V30 41 H -0.885902 0.295072 6.194820 0
M  V30 42 H -3.375592 1.473910 5.735001 0
M  V30 43 H -5.899747 0.117893 2.180975 0
M  V30 44 H -7.019240 0.021403 0.059562 0
M  V30 45 H -3.425694 1.123232 -1.973719 0
M  V30 46 H -2.260453 1.221601 0.257217 0
M  V30 47 H -1.294862 -0.686576 1.364871 0
M  V30 END ATOM
M  V30 BEGIN BOND
M  V30 1 2 1 2
M  V30 2 1 2 3
M  V30 3 1 3 4
M  V30 4 1 4 5
M  V30 5 1 5 6
M  V30 6 1 6 7
M  V30 7 2 7 8
M  V30 8 1 8 9
M  V30 9 2 9 10
M  V30 10 1 10 11
M  V30 11 2 11 12
M  V30 12 1 2 13
M  V30 13 2 13 14
M  V30 14 1 14 15
M  V30 15 2 15 16
M  V30 16 1 16 17
M  V30 17 1 17 18
M  V30 18 2 18 19
M  V30 19 1 19 20
M  V30 20 2 20 21
M  V30 21 1 21 22
M  V30 22 2 22 23
M  V30 23 1 23 24
M  V30 24 2 24 25
M  V30 25 1 19 26
M  V30 26 2 26 27
M  V30 27 1 12 7
M  V30 28 1 27 13
M  V30 29 1 26 16
M  V30 30 1 25 20
M  V30 31 1 3 28
M  V30 32 1 4 29
M  V30 33 1 4 30
M  V30 34 1 5 31
M  V30 35 1 5 32
M  V30 36 1 6 33
M  V30 37 1 6 34
M  V30 38 1 8 35
M  V30 39 1 9 36
M  V30 40 1 10 37
M  V30 41 1 11 38
M  V30 42 1 12 39
M  V30 43 1 14 40
M  V30 44 1 15 41
M  V30 45 1 17 42
M  V30 46 1 21 43
M  V30 47 1 22 44
M  V30 48 1 24 45
M  V30 49 1 25 46
M  V30 50 1 27 47
M  V30 END BOND
M  V30 END CTAB
M  END
>  <Dataset>  (861) 
ChEMBL_Kinases

>  <Ligand_Instance>  (861) 
nan

>  <PDB_ID>  (861) 
nan

>  <Standardized_SMILES>  (861) 
O=C(NCCCc1ccccc1)c1ccc2[nH]nc(-c3ccncc3)c2c1

>  <Name>  (861) 
nan

>  <Pocket>  (861) 
nan

>  <ATP_Site>  (861) 
nan

>  <Peripheral>  (861) 
nan

>  <Num_H_Atoms_ProtBoundConf>  (861) 
nan

>  <Num_Resolved_Atoms>  (861) 
nan

>  <Num_Not_Resolved_Atoms>  (861) 
nan

$$$$
CHEMBL4097154
     RDKit          3D

  0  0  0  0  0  0  0  0  0  0999 V3000
M  V30 BEGIN CTAB
M  V30 COUNTS 65 69 0 0 0
M  V30 BEGIN ATOM
M  V30 1 C 10.192380 0.745928 5.597451 0
M  V30 2 C 8.904531 1.098856 4.970167 0
M  V30 3 C 8.361068 0.258214 3.993309 0
M  V30 4 C 7.157099 0.658480 3.457606 0
M  V30 5 C 6.472742 1.822802 3.827408 0
M  V30 6 C 5.229701 2.085183 3.165685 0
M  V30 7 C 4.173842 2.287537 2.613530 0
M  V30 8 C 2.906347 2.505011 1.948836 0
M  V30 9 C 2.082216 1.394744 1.899198 0
M  V30 10 C 0.860465 1.534074 1.277038 0
M  V30 11 C 0.546516 2.767257 0.748405 0
M  V30 12 C -0.729581 2.967879 0.046353 0
M  V30 13 C -1.496311 2.340191 -0.840694 0
M  V30 14 C -2.679661 2.181004 -1.704581 0
M  V30 15 C -3.072406 0.699490 -1.449683 0
M  V30 16 C -3.764808 0.668960 -0.140191 0
M  V30 17 O -5.047966 1.216098 -0.151820 0
M  V30 18 C -3.841386 0.172637 -2.591597 0
M  V30 19 O -4.031990 -1.186920 -2.577961 0
M  V30 20 C -4.724484 -2.055223 -1.839790 0
M  V30 21 O -5.453246 -1.739790 -0.882878 0
M  V30 22 C -4.665709 -3.487858 -2.122386 0
M  V30 23 C -3.948950 -4.143637 -3.103430 0
M  V30 24 N -4.165953 -5.475572 -3.024028 0
M  V30 25 C -3.530408 -6.405753 -3.941740 0
M  V30 26 C -5.025925 -5.724650 -1.994485 0
M  V30 27 C -5.537599 -6.929308 -1.532608 0
M  V30 28 C -6.415273 -6.914435 -0.444422 0
M  V30 29 C -6.711407 -5.672761 0.098948 0
M  V30 30 C -6.192228 -4.491777 -0.375394 0
M  V30 31 C -5.322300 -4.503020 -1.453703 0
M  V30 32 O -1.780661 0.080144 -1.446105 0
M  V30 33 C -0.802451 1.079355 -1.233313 0
M  V30 34 O 0.344845 0.545275 -1.455131 0
M  V30 35 C 1.335042 3.898259 0.775560 0
M  V30 36 C 2.546525 3.716419 1.406444 0
M  V30 37 C 7.034237 2.630829 4.793086 0
M  V30 38 C 8.258604 2.253391 5.359145 0
M  V30 39 H 10.414749 -0.319453 5.377780 0
M  V30 40 H 10.179612 0.906866 6.691693 0
M  V30 41 H 10.970774 1.373918 5.121859 0
M  V30 42 H 8.863972 -0.637526 3.692203 0
M  V30 43 H 6.739926 0.010810 2.705939 0
M  V30 44 H 2.344913 0.435377 2.318541 0
M  V30 45 H 0.209449 0.675552 1.242177 0
M  V30 46 H -1.413445 3.800014 0.120419 0
M  V30 47 H -2.413694 2.236355 -2.770074 0
M  V30 48 H -3.526357 2.832458 -1.408051 0
M  V30 49 H -3.681861 -0.316659 0.325086 0
M  V30 50 H -3.204671 1.428016 0.543842 0
M  V30 51 H -5.584798 0.721459 0.492004 0
M  V30 52 H -3.252618 0.405101 -3.530928 0
M  V30 53 H -4.802630 0.744593 -2.766627 0
M  V30 54 H -3.324530 -3.562288 -3.794122 0
M  V30 55 H -2.461370 -6.561390 -3.617548 0
M  V30 56 H -4.040391 -7.390280 -3.781303 0
M  V30 57 H -3.626093 -6.067454 -4.986072 0
M  V30 58 H -5.262165 -7.878713 -2.008917 0
M  V30 59 H -6.805177 -7.853936 -0.095301 0
M  V30 60 H -7.403377 -5.739964 0.945172 0
M  V30 61 H -6.490105 -3.566743 0.125169 0
M  V30 62 H 1.054454 4.836673 0.354894 0
M  V30 63 H 3.248814 4.561404 1.479953 0
M  V30 64 H 6.472104 3.517011 5.046886 0
M  V30 65 H 8.647994 2.923681 6.107886 0
M  V30 END ATOM
M  V30 BEGIN BOND
M  V30 1 1 1 2
M  V30 2 2 2 3
M  V30 3 1 3 4
M  V30 4 2 4 5
M  V30 5 1 5 6
M  V30 6 3 6 7
M  V30 7 1 7 8
M  V30 8 2 8 9
M  V30 9 1 9 10
M  V30 10 2 10 11
M  V30 11 1 11 12
M  V30 12 2 12 13 CFG=2
M  V30 13 1 13 14
M  V30 14 1 14 15
M  V30 15 1 15 16
M  V30 16 1 16 17
M  V30 17 1 15 18
M  V30 18 1 18 19
M  V30 19 1 19 20
M  V30 20 2 20 21
M  V30 21 1 20 22
M  V30 22 2 22 23
M  V30 23 1 23 24
M  V30 24 1 24 25
M  V30 25 1 24 26
M  V30 26 2 26 27
M  V30 27 1 27 28
M  V30 28 2 28 29
M  V30 29 1 29 30
M  V30 30 2 30 31
M  V30 31 1 15 32
M  V30 32 1 32 33
M  V30 33 2 33 34
M  V30 34 1 11 35
M  V30 35 2 35 36
M  V30 36 1 5 37
M  V30 37 2 37 38
M  V30 38 1 38 2
M  V30 39 1 36 8
M  V30 40 1 33 13
M  V30 41 1 31 22
M  V30 42 1 31 26
M  V30 43 1 1 39
M  V30 44 1 1 40
M  V30 45 1 1 41
M  V30 46 1 3 42
M  V30 47 1 4 43
M  V30 48 1 9 44
M  V30 49 1 10 45
M  V30 50 1 12 46
M  V30 51 1 14 47
M  V30 52 1 14 48
M  V30 53 1 16 49
M  V30 54 1 16 50
M  V30 55 1 17 51
M  V30 56 1 18 52
M  V30 57 1 18 53
M  V30 58 1 23 54
M  V30 59 1 25 55
M  V30 60 1 25 56
M  V30 61 1 25 57
M  V30 62 1 27 58
M  V30 63 1 28 59
M  V30 64 1 29 60
M  V30 65 1 30 61
M  V30 66 1 35 62
M  V30 67 1 36 63
M  V30 68 1 37 64
M  V30 69 1 38 65
M  V30 END BOND
M  V30 END CTAB
M  END
>  <Dataset>  (862) 
ChEMBL_Kinases

>  <Ligand_Instance>  (862) 
nan

>  <PDB_ID>  (862) 
nan

>  <Standardized_SMILES>  (862) 
Cc1ccc(C#Cc2ccc(C=C3CC(CO)(COC(=O)c4cn(C)c5ccccc45)OC3=O)cc2)cc1

>  <Name>  (862) 
nan

>  <Pocket>  (862) 
nan

>  <ATP_Site>  (862) 
nan

>  <Peripheral>  (862) 
nan

>  <Num_H_Atoms_ProtBoundConf>  (862) 
nan

>  <Num_Resolved_Atoms>  (862) 
nan

>  <Num_Not_Resolved_Atoms>  (862) 
nan

$$$$
CHEMBL409698
     RDKit          3D

  0  0  0  0  0  0  0  0  0  0999 V3000
M  V30 BEGIN CTAB
M  V30 COUNTS 56 60 0 0 0
M  V30 BEGIN ATOM
M  V30 1 C 4.957292 -0.494311 2.580739 0
M  V30 2 C 4.281228 -0.132368 1.250309 0
M  V30 3 C 3.527418 -1.335209 0.798686 0
M  V30 4 C 5.427706 0.128192 0.287764 0
M  V30 5 C 3.463265 1.085681 1.509540 0
M  V30 6 N 2.740478 1.594332 0.377790 0
M  V30 7 C 3.271186 2.505931 -0.466943 0
M  V30 8 N 2.424269 2.845209 -1.458106 0
M  V30 9 C 1.303840 2.134483 -1.257334 0
M  V30 10 C 0.091872 2.043346 -1.923279 0
M  V30 11 C -0.907752 1.202949 -1.474813 0
M  V30 12 C -0.609731 0.479339 -0.338123 0
M  V30 13 C -1.634896 -0.427269 0.181031 0
M  V30 14 N -2.223685 -0.346772 1.382011 0
M  V30 15 C -3.123931 -1.310045 1.594294 0
M  V30 16 C -4.014196 -1.675050 2.679620 0
M  V30 17 C -4.847091 -2.773625 2.586458 0
M  V30 18 F -4.832986 -3.528108 1.458189 0
M  V30 19 C -5.704992 -3.154047 3.587398 0
M  V30 20 C -5.778618 -2.446297 4.754868 0
M  V30 21 C -4.971144 -1.341175 4.903398 0
M  V30 22 C -4.127168 -1.000468 3.869655 0
M  V30 23 Cl -3.165487 0.414747 4.192562 0
M  V30 24 N -3.084026 -2.019583 0.460135 0
M  V30 25 C -2.207041 -1.528572 -0.415730 0
M  V30 26 C -1.879422 -2.013518 -1.751484 0
M  V30 27 C -0.670861 -2.470083 -2.237227 0
M  V30 28 C -0.587035 -2.886743 -3.551458 0
M  V30 29 C -1.706497 -2.844777 -4.368325 0
M  V30 30 C -2.939214 -2.388786 -3.905256 0
M  V30 31 C -2.982181 -1.979218 -2.579963 0
M  V30 32 N 0.569546 0.535121 0.352636 0
M  V30 33 C 1.509201 1.358486 -0.112607 0
M  V30 34 H 4.245980 -0.398816 3.435147 0
M  V30 35 H 5.789854 0.201581 2.760444 0
M  V30 36 H 5.353557 -1.515871 2.453870 0
M  V30 37 H 3.533244 -1.491294 -0.310682 0
M  V30 38 H 2.481934 -1.372792 1.110533 0
M  V30 39 H 3.990933 -2.277252 1.213047 0
M  V30 40 H 5.777755 1.170423 0.406339 0
M  V30 41 H 6.282127 -0.531221 0.546147 0
M  V30 42 H 5.087152 -0.130983 -0.720268 0
M  V30 43 H 2.799098 0.874730 2.381714 0
M  V30 44 H 4.174415 1.866029 1.894836 0
M  V30 45 H 4.247560 2.967402 -0.436288 0
M  V30 46 H -0.104512 2.630084 -2.815488 0
M  V30 47 H -1.878473 1.072986 -1.934104 0
M  V30 48 H -1.994249 0.389933 2.062147 0
M  V30 49 H -6.330652 -4.023691 3.451183 0
M  V30 50 H -6.467700 -2.779923 5.516937 0
M  V30 51 H -5.049527 -0.804812 5.827678 0
M  V30 52 H 0.120189 -2.451654 -1.500547 0
M  V30 53 H 0.383878 -3.236003 -3.882293 0
M  V30 54 H -1.616292 -3.180261 -5.407804 0
M  V30 55 H -3.780725 -2.377130 -4.584873 0
M  V30 56 H -3.991388 -1.639120 -2.311267 0
M  V30 END ATOM
M  V30 BEGIN BOND
M  V30 1 1 1 2
M  V30 2 1 2 3
M  V30 3 1 2 4
M  V30 4 1 2 5
M  V30 5 1 5 6
M  V30 6 1 6 7
M  V30 7 2 7 8
M  V30 8 1 8 9
M  V30 9 2 9 10
M  V30 10 1 10 11
M  V30 11 2 11 12
M  V30 12 1 12 13
M  V30 13 1 13 14
M  V30 14 1 14 15
M  V30 15 1 15 16
M  V30 16 2 16 17
M  V30 17 1 17 18
M  V30 18 1 17 19
M  V30 19 2 19 20
M  V30 20 1 20 21
M  V30 21 2 21 22
M  V30 22 1 22 23
M  V30 23 2 15 24
M  V30 24 1 24 25
M  V30 25 1 25 26
M  V30 26 2 26 27
M  V30 27 1 27 28
M  V30 28 2 28 29
M  V30 29 1 29 30
M  V30 30 2 30 31
M  V30 31 1 12 32
M  V30 32 2 32 33
M  V30 33 1 33 6
M  V30 34 1 33 9
M  V30 35 2 25 13
M  V30 36 1 31 26
M  V30 37 1 22 16
M  V30 38 1 1 34
M  V30 39 1 1 35
M  V30 40 1 1 36
M  V30 41 1 3 37
M  V30 42 1 3 38
M  V30 43 1 3 39
M  V30 44 1 4 40
M  V30 45 1 4 41
M  V30 46 1 4 42
M  V30 47 1 5 43
M  V30 48 1 5 44
M  V30 49 1 7 45
M  V30 50 1 10 46
M  V30 51 1 11 47
M  V30 52 1 14 48
M  V30 53 1 19 49
M  V30 54 1 20 50
M  V30 55 1 21 51
M  V30 56 1 27 52
M  V30 57 1 28 53
M  V30 58 1 29 54
M  V30 59 1 30 55
M  V30 60 1 31 56
M  V30 END BOND
M  V30 END CTAB
M  END
>  <Dataset>  (863) 
ChEMBL_Kinases

>  <Ligand_Instance>  (863) 
nan

>  <PDB_ID>  (863) 
nan

>  <Standardized_SMILES>  (863) 
CC(C)(C)Cn1cnc2ccc(-c3[nH]c(-c4c(F)cccc4Cl)nc3-c3ccccc3)nc21

>  <Name>  (863) 
nan

>  <Pocket>  (863) 
nan

>  <ATP_Site>  (863) 
nan

>  <Peripheral>  (863) 
nan

>  <Num_H_Atoms_ProtBoundConf>  (863) 
nan

>  <Num_Resolved_Atoms>  (863) 
nan

>  <Num_Not_Resolved_Atoms>  (863) 
nan

$$$$
CHEMBL4096791
     RDKit          3D

  0  0  0  0  0  0  0  0  0  0999 V3000
M  V30 BEGIN CTAB
M  V30 COUNTS 48 51 0 0 0
M  V30 BEGIN ATOM
M  V30 1 O 0.063619 1.431659 -2.057807 0
M  V30 2 C 0.188001 0.924560 -0.920992 0
M  V30 3 N 0.352254 -0.478503 -0.791366 0
M  V30 4 C 0.398132 -1.439146 -1.869223 0
M  V30 5 C 1.747278 -1.360872 -2.504253 0
M  V30 6 C 2.130693 -0.587135 -3.563281 0
M  V30 7 C 3.426963 -0.635315 -4.020569 0
M  V30 8 C 4.404741 -1.436902 -3.468688 0
M  V30 9 C 4.057572 -2.246099 -2.382455 0
M  V30 10 C 2.747237 -2.167651 -1.954865 0
M  V30 11 C 0.152535 1.845502 0.209597 0
M  V30 12 C -0.037010 3.190507 -0.041869 0
M  V30 13 C -0.075714 4.097220 1.000990 0
M  V30 14 C 0.072706 3.667251 2.278261 0
M  V30 15 C 0.267998 2.324660 2.610884 0
M  V30 16 N 0.426658 1.910854 3.955399 0
M  V30 17 C 0.619132 0.575327 4.483110 0
M  V30 18 C -0.531452 -0.327426 4.251948 0
M  V30 19 N -1.530098 -0.346675 5.182119 0
M  V30 20 N -2.459692 -1.205722 4.805591 0
M  V30 21 C -2.077500 -1.734669 3.657017 0
M  V30 22 C -2.754366 -2.731340 2.835508 0
M  V30 23 C -2.181839 -3.166810 1.647311 0
M  V30 24 C -2.826600 -4.103411 0.884693 0
M  V30 25 N -4.016452 -4.589348 1.305946 0
M  V30 26 C -4.575281 -4.174451 2.450413 0
M  V30 27 C -3.966567 -3.229871 3.259696 0
M  V30 28 O -0.926720 -1.186663 3.361722 0
M  V30 29 C 0.296019 1.481743 1.527798 0
M  V30 30 H 0.454796 -0.895764 0.168781 0
M  V30 31 H -0.404857 -1.233107 -2.617841 0
M  V30 32 H 0.257633 -2.470319 -1.538582 0
M  V30 33 H 1.375371 0.033954 -3.996646 0
M  V30 34 H 3.715858 -0.006438 -4.873515 0
M  V30 35 H 5.425022 -1.505092 -3.793697 0
M  V30 36 H 4.759767 -2.896734 -1.898309 0
M  V30 37 H 2.499127 -2.812935 -1.099923 0
M  V30 38 H -0.162520 3.604784 -1.037661 0
M  V30 39 H -0.222368 5.153128 0.831783 0
M  V30 40 H 0.040608 4.393548 3.098429 0
M  V30 41 H 0.399924 2.692318 4.672828 0
M  V30 42 H 0.861695 0.612994 5.561632 0
M  V30 43 H 1.474951 0.083035 3.917268 0
M  V30 44 H -1.233697 -2.780138 1.309412 0
M  V30 45 H -2.381455 -4.447796 -0.047537 0
M  V30 46 H -5.538629 -4.539741 2.833921 0
M  V30 47 H -4.416492 -2.894031 4.183604 0
M  V30 48 H 0.447046 0.439847 1.688141 0
M  V30 END ATOM
M  V30 BEGIN BOND
M  V30 1 2 1 2
M  V30 2 1 2 3
M  V30 3 1 3 4
M  V30 4 1 4 5
M  V30 5 2 5 6
M  V30 6 1 6 7
M  V30 7 2 7 8
M  V30 8 1 8 9
M  V30 9 2 9 10
M  V30 10 1 2 11
M  V30 11 2 11 12
M  V30 12 1 12 13
M  V30 13 2 13 14
M  V30 14 1 14 15
M  V30 15 1 15 16
M  V30 16 1 16 17
M  V30 17 1 17 18
M  V30 18 2 18 19
M  V30 19 1 19 20
M  V30 20 2 20 21
M  V30 21 1 21 22
M  V30 22 2 22 23
M  V30 23 1 23 24
M  V30 24 2 24 25
M  V30 25 1 25 26
M  V30 26 2 26 27
M  V30 27 1 21 28
M  V30 28 2 15 29
M  V30 29 1 10 5
M  V30 30 1 29 11
M  V30 31 1 28 18
M  V30 32 1 27 22
M  V30 33 1 3 30
M  V30 34 1 4 31
M  V30 35 1 4 32
M  V30 36 1 6 33
M  V30 37 1 7 34
M  V30 38 1 8 35
M  V30 39 1 9 36
M  V30 40 1 10 37
M  V30 41 1 12 38
M  V30 42 1 13 39
M  V30 43 1 14 40
M  V30 44 1 16 41
M  V30 45 1 17 42
M  V30 46 1 17 43
M  V30 47 1 23 44
M  V30 48 1 24 45
M  V30 49 1 26 46
M  V30 50 1 27 47
M  V30 51 1 29 48
M  V30 END BOND
M  V30 END CTAB
M  END
>  <Dataset>  (864) 
ChEMBL_Kinases

>  <Ligand_Instance>  (864) 
nan

>  <PDB_ID>  (864) 
nan

>  <Standardized_SMILES>  (864) 
O=C(NCc1ccccc1)c1cccc(NCc2nnc(-c3ccncc3)o2)c1

>  <Name>  (864) 
nan

>  <Pocket>  (864) 
nan

>  <ATP_Site>  (864) 
nan

>  <Peripheral>  (864) 
nan

>  <Num_H_Atoms_ProtBoundConf>  (864) 
nan

>  <Num_Resolved_Atoms>  (864) 
nan

>  <Num_Not_Resolved_Atoms>  (864) 
nan

$$$$
CHEMBL3798927
     RDKit          3D

  0  0  0  0  0  0  0  0  0  0999 V3000
M  V30 BEGIN CTAB
M  V30 COUNTS 49 53 0 0 0
M  V30 BEGIN ATOM
M  V30 1 C 3.891283 -4.248329 -5.219198 0
M  V30 2 C 3.520529 -3.549870 -3.963797 0
M  V30 3 C 3.298483 -4.253831 -2.796007 0
M  V30 4 C 2.957426 -3.636054 -1.631978 0
M  V30 5 C 2.831053 -2.260906 -1.625462 0
M  V30 6 C 2.472925 -1.393782 -0.484072 0
M  V30 7 O 2.361078 -0.123660 -0.498174 0
M  V30 8 N 2.210723 -1.931936 0.786579 0
M  V30 9 C 1.886035 -0.879940 1.722841 0
M  V30 10 C 3.000386 -0.367786 2.381632 0
M  V30 11 C 2.812194 0.636575 3.294945 0
M  V30 12 C 1.504581 1.080732 3.503528 0
M  V30 13 C 0.379233 0.607159 2.879222 0
M  V30 14 C 0.640057 -0.372294 2.000887 0
M  V30 15 C -0.742480 1.333972 3.382949 0
M  V30 16 C -1.963311 1.152567 3.017876 0
M  V30 17 N -3.044327 1.900250 3.547687 0
M  V30 18 C -4.293172 1.511294 2.983272 0
M  V30 19 C -5.587156 1.976234 3.213593 0
M  V30 20 C -6.590443 1.381146 2.494750 0
M  V30 21 C -6.363684 0.373390 1.584480 0
M  V30 22 C -5.065882 -0.041489 1.401780 0
M  V30 23 C -3.976999 0.497496 2.081586 0
M  V30 24 C -2.552820 0.249478 2.075748 0
M  V30 25 N -2.079895 -0.611707 1.342397 0
M  V30 26 O -2.758705 -1.405116 0.489033 0
M  V30 27 C -0.230337 2.282656 4.355682 0
M  V30 28 O -0.859847 3.104850 5.027503 0
M  V30 29 N 1.179551 2.125175 4.432664 0
M  V30 30 C 3.050396 -1.540092 -2.788455 0
M  V30 31 C 3.397391 -2.171530 -3.971679 0
M  V30 32 H 4.970919 -4.198014 -5.446805 0
M  V30 33 H 3.251548 -3.791832 -6.022511 0
M  V30 34 H 3.586360 -5.304438 -5.169358 0
M  V30 35 H 3.385335 -5.329315 -2.752167 0
M  V30 36 H 2.761462 -4.088387 -0.663974 0
M  V30 37 H 2.259944 -2.964639 0.968474 0
M  V30 38 H 4.001188 -0.727772 2.203169 0
M  V30 39 H 3.666935 1.025022 3.796134 0
M  V30 40 H -0.037576 -0.890839 1.405736 0
M  V30 41 H -2.980715 2.641940 4.254381 0
M  V30 42 H -5.767707 2.767580 3.927992 0
M  V30 43 H -7.576370 1.771113 2.703775 0
M  V30 44 H -7.206778 -0.047069 1.055184 0
M  V30 45 H -4.971833 -0.832377 0.674016 0
M  V30 46 H -2.388629 -2.190382 -0.015147 0
M  V30 47 H 1.810818 2.693159 5.066832 0
M  V30 48 H 2.972381 -0.453212 -2.872632 0
M  V30 49 H 3.571351 -1.612643 -4.889314 0
M  V30 END ATOM
M  V30 BEGIN BOND
M  V30 1 1 1 2
M  V30 2 2 2 3
M  V30 3 1 3 4
M  V30 4 2 4 5
M  V30 5 1 5 6
M  V30 6 2 6 7
M  V30 7 1 6 8
M  V30 8 1 8 9
M  V30 9 2 9 10
M  V30 10 1 10 11
M  V30 11 2 11 12
M  V30 12 1 12 13
M  V30 13 2 13 14
M  V30 14 1 13 15
M  V30 15 2 15 16
M  V30 16 1 16 17
M  V30 17 1 17 18
M  V30 18 2 18 19
M  V30 19 1 19 20
M  V30 20 2 20 21
M  V30 21 1 21 22
M  V30 22 2 22 23
M  V30 23 1 23 24
M  V30 24 2 24 25
M  V30 25 1 25 26
M  V30 26 1 15 27
M  V30 27 2 27 28
M  V30 28 1 27 29
M  V30 29 1 5 30
M  V30 30 2 30 31
M  V30 31 1 31 2
M  V30 32 1 14 9
M  V30 33 1 24 16
M  V30 34 1 29 12
M  V30 35 1 23 18
M  V30 36 1 1 32
M  V30 37 1 1 33
M  V30 38 1 1 34
M  V30 39 1 3 35
M  V30 40 1 4 36
M  V30 41 1 8 37
M  V30 42 1 10 38
M  V30 43 1 11 39
M  V30 44 1 14 40
M  V30 45 1 17 41
M  V30 46 1 19 42
M  V30 47 1 20 43
M  V30 48 1 21 44
M  V30 49 1 22 45
M  V30 50 1 26 46
M  V30 51 1 29 47
M  V30 52 1 30 48
M  V30 53 1 31 49
M  V30 END BOND
M  V30 END CTAB
M  END
>  <Dataset>  (865) 
ChEMBL_Kinases

>  <Ligand_Instance>  (865) 
nan

>  <PDB_ID>  (865) 
nan

>  <Standardized_SMILES>  (865) 
Cc1ccc(C(=O)Nc2ccc3c(c2)/C(=C2/Nc4ccccc4/C2=N\O)C(=O)N3)cc1

>  <Name>  (865) 
nan

>  <Pocket>  (865) 
nan

>  <ATP_Site>  (865) 
nan

>  <Peripheral>  (865) 
nan

>  <Num_H_Atoms_ProtBoundConf>  (865) 
nan

>  <Num_Resolved_Atoms>  (865) 
nan

>  <Num_Not_Resolved_Atoms>  (865) 
nan

$$$$
CHEMBL3799113
     RDKit          3D

  0  0  0  0  0  0  0  0  0  0999 V3000
M  V30 BEGIN CTAB
M  V30 COUNTS 41 44 0 0 0
M  V30 BEGIN ATOM
M  V30 1 O -0.102677 0.186762 -0.536038 0
M  V30 2 C 0.823318 -0.660825 -0.517041 0
M  V30 3 N 1.777792 -0.424865 -1.528143 0
M  V30 4 C 2.152523 0.408043 -2.613215 0
M  V30 5 C 2.391786 1.838733 -2.298875 0
M  V30 6 C 3.713202 2.196936 -1.985751 0
M  V30 7 C 4.180010 3.442081 -1.617983 0
M  V30 8 C 3.252561 4.454148 -1.547465 0
M  V30 9 Cl 3.756522 6.043330 -1.092808 0
M  V30 10 C 1.937190 4.169857 -1.843549 0
M  V30 11 F 0.980470 5.138466 -1.788136 0
M  V30 12 C 1.529405 2.907228 -2.205818 0
M  V30 13 Cl -0.129472 2.613887 -2.629197 0
M  V30 14 C 0.826393 -1.729213 0.472223 0
M  V30 15 C 1.777881 -2.719902 0.599506 0
M  V30 16 C 1.699937 -3.699484 1.571251 0
M  V30 17 C 0.644901 -3.707999 2.455173 0
M  V30 18 N 0.270002 -4.470580 3.472372 0
M  V30 19 N -0.859152 -4.027642 4.000044 0
M  V30 20 C -1.222436 -2.949299 3.303119 0
M  V30 21 C -2.441632 -2.228446 3.647017 0
M  V30 22 C -2.578654 -0.839767 3.752737 0
M  V30 23 C -3.785928 -0.310076 4.082319 0
M  V30 24 N -4.894254 -1.061479 4.321223 0
M  V30 25 C -4.818304 -2.403480 4.233236 0
M  V30 26 C -3.592947 -2.950083 3.898232 0
M  V30 27 C -0.287492 -2.721525 2.316011 0
M  V30 28 C -0.228234 -1.737265 1.355527 0
M  V30 29 H 2.498301 -1.216868 -1.390088 0
M  V30 30 H 3.086015 0.031622 -3.067222 0
M  V30 31 H 1.410811 0.342655 -3.468772 0
M  V30 32 H 4.491218 1.416659 -2.029605 0
M  V30 33 H 5.225253 3.598958 -1.400086 0
M  V30 34 H 2.596987 -2.728022 -0.072841 0
M  V30 35 H 2.472045 -4.441551 1.617093 0
M  V30 36 H 0.831732 -5.315456 3.787534 0
M  V30 37 H -1.678902 -0.269757 3.556899 0
M  V30 38 H -3.896761 0.764891 4.165645 0
M  V30 39 H -5.677641 -3.025390 4.416290 0
M  V30 40 H -3.546299 -4.019843 3.831355 0
M  V30 41 H -1.032635 -0.991491 1.332906 0
M  V30 END ATOM
M  V30 BEGIN BOND
M  V30 1 2 1 2
M  V30 2 1 2 3
M  V30 3 1 3 4
M  V30 4 1 4 5
M  V30 5 2 5 6
M  V30 6 1 6 7
M  V30 7 2 7 8
M  V30 8 1 8 9
M  V30 9 1 8 10
M  V30 10 1 10 11
M  V30 11 2 10 12
M  V30 12 1 12 13
M  V30 13 1 2 14
M  V30 14 2 14 15
M  V30 15 1 15 16
M  V30 16 2 16 17
M  V30 17 1 17 18
M  V30 18 1 18 19
M  V30 19 2 19 20
M  V30 20 1 20 21
M  V30 21 2 21 22
M  V30 22 1 22 23
M  V30 23 2 23 24
M  V30 24 1 24 25
M  V30 25 2 25 26
M  V30 26 1 20 27
M  V30 27 2 27 28
M  V30 28 1 12 5
M  V30 29 1 28 14
M  V30 30 1 27 17
M  V30 31 1 26 21
M  V30 32 1 3 29
M  V30 33 1 4 30
M  V30 34 1 4 31
M  V30 35 1 6 32
M  V30 36 1 7 33
M  V30 37 1 15 34
M  V30 38 1 16 35
M  V30 39 1 18 36
M  V30 40 1 22 37
M  V30 41 1 23 38
M  V30 42 1 25 39
M  V30 43 1 26 40
M  V30 44 1 28 41
M  V30 END BOND
M  V30 END CTAB
M  END
>  <Dataset>  (866) 
ChEMBL_Kinases

>  <Ligand_Instance>  (866) 
nan

>  <PDB_ID>  (866) 
nan

>  <Standardized_SMILES>  (866) 
O=C(NCc1ccc(Cl)c(F)c1Cl)c1ccc2[nH]nc(-c3ccncc3)c2c1

>  <Name>  (866) 
nan

>  <Pocket>  (866) 
nan

>  <ATP_Site>  (866) 
nan

>  <Peripheral>  (866) 
nan

>  <Num_H_Atoms_ProtBoundConf>  (866) 
nan

>  <Num_Resolved_Atoms>  (866) 
nan

>  <Num_Not_Resolved_Atoms>  (866) 
nan

$$$$
CHEMBL3798692
     RDKit          3D

  0  0  0  0  0  0  0  0  0  0999 V3000
M  V30 BEGIN CTAB
M  V30 COUNTS 46 49 0 0 0
M  V30 BEGIN ATOM
M  V30 1 C -1.491229 -1.771288 4.279515 0
M  V30 2 C -0.829050 -2.615983 3.244251 0
M  V30 3 N 0.123873 -1.920188 2.412827 0
M  V30 4 C 1.475474 -2.253129 2.209096 0
M  V30 5 O 2.002692 -3.248716 2.769511 0
M  V30 6 C 2.355141 -1.474234 1.340622 0
M  V30 7 C 3.668563 -1.864673 1.191902 0
M  V30 8 C 4.579324 -1.178999 0.381958 0
M  V30 9 C 4.125476 -0.063766 -0.291138 0
M  V30 10 N 4.689780 0.827506 -1.137701 0
M  V30 11 N 3.801501 1.747140 -1.521621 0
M  V30 12 C 2.610710 1.489241 -0.934574 0
M  V30 13 C 1.402504 2.287342 -1.122188 0
M  V30 14 C 1.648972 3.653296 -1.045131 0
M  V30 15 C 0.642005 4.593609 -1.194492 0
M  V30 16 F 0.832929 5.924695 -1.127862 0
M  V30 17 C -0.660151 4.134997 -1.430131 0
M  V30 18 O -1.752703 5.008627 -1.595910 0
M  V30 19 C -0.880548 2.770707 -1.502661 0
M  V30 20 F -2.121726 2.308451 -1.727886 0
M  V30 21 C 0.128974 1.834094 -1.352764 0
M  V30 22 C 2.817809 0.358058 -0.167526 0
M  V30 23 C 1.964103 -0.351404 0.641005 0
M  V30 24 C -1.898125 -3.152554 2.350290 0
M  V30 25 C -2.370934 -4.431627 2.477742 0
M  V30 26 C -3.343955 -5.041426 1.725029 0
M  V30 27 C -3.888881 -4.240209 0.730000 0
M  V30 28 C -3.461088 -2.944250 0.545094 0
M  V30 29 Cl -4.161487 -1.940618 -0.720700 0
M  V30 30 C -2.477462 -2.406106 1.345302 0
M  V30 31 H -1.752909 -0.777197 3.862423 0
M  V30 32 H -2.430447 -2.271024 4.596513 0
M  V30 33 H -0.903194 -1.664767 5.232677 0
M  V30 34 H -0.360175 -3.490291 3.734427 0
M  V30 35 H -0.296974 -1.094918 1.942903 0
M  V30 36 H 4.091253 -2.729525 1.690329 0
M  V30 37 H 5.605916 -1.497384 0.275483 0
M  V30 38 H 5.709848 0.725817 -1.402151 0
M  V30 39 H 2.633961 4.106510 -0.864199 0
M  V30 40 H -1.493937 5.987654 -1.716873 0
M  V30 41 H 0.018434 0.774194 -1.398674 0
M  V30 42 H 0.945322 -0.018900 0.734443 0
M  V30 43 H -1.921409 -5.039950 3.272147 0
M  V30 44 H -3.656435 -6.061536 1.896974 0
M  V30 45 H -4.669069 -4.638544 0.080988 0
M  V30 46 H -2.164381 -1.395203 1.178632 0
M  V30 END ATOM
M  V30 BEGIN BOND
M  V30 1 1 1 2
M  V30 2 1 2 3
M  V30 3 1 3 4
M  V30 4 2 4 5
M  V30 5 1 4 6
M  V30 6 2 6 7
M  V30 7 1 7 8
M  V30 8 2 8 9
M  V30 9 1 9 10
M  V30 10 1 10 11
M  V30 11 2 11 12
M  V30 12 1 12 13
M  V30 13 2 13 14
M  V30 14 1 14 15
M  V30 15 1 15 16
M  V30 16 2 15 17
M  V30 17 1 17 18
M  V30 18 1 17 19
M  V30 19 1 19 20
M  V30 20 2 19 21
M  V30 21 1 12 22
M  V30 22 2 22 23
M  V30 23 1 2 24
M  V30 24 2 24 25
M  V30 25 1 25 26
M  V30 26 2 26 27
M  V30 27 1 27 28
M  V30 28 1 28 29
M  V30 29 2 28 30
M  V30 30 1 23 6
M  V30 31 1 30 24
M  V30 32 1 22 9
M  V30 33 1 21 13
M  V30 34 1 1 31
M  V30 35 1 1 32
M  V30 36 1 1 33
M  V30 37 1 2 34
M  V30 38 1 3 35
M  V30 39 1 7 36
M  V30 40 1 8 37
M  V30 41 1 10 38
M  V30 42 1 14 39
M  V30 43 1 18 40
M  V30 44 1 21 41
M  V30 45 1 23 42
M  V30 46 1 25 43
M  V30 47 1 26 44
M  V30 48 1 27 45
M  V30 49 1 30 46
M  V30 END BOND
M  V30 END CTAB
M  END
>  <Dataset>  (867) 
ChEMBL_Kinases

>  <Ligand_Instance>  (867) 
nan

>  <PDB_ID>  (867) 
nan

>  <Standardized_SMILES>  (867) 
CC(NC(=O)c1ccc2[nH]nc(-c3cc(F)c(O)c(F)c3)c2c1)c1cccc(Cl)c1

>  <Name>  (867) 
nan

>  <Pocket>  (867) 
nan

>  <ATP_Site>  (867) 
nan

>  <Peripheral>  (867) 
nan

>  <Num_H_Atoms_ProtBoundConf>  (867) 
nan

>  <Num_Resolved_Atoms>  (867) 
nan

>  <Num_Not_Resolved_Atoms>  (867) 
nan

$$$$
CHEMBL3798163
     RDKit          3D

  0  0  0  0  0  0  0  0  0  0999 V3000
M  V30 BEGIN CTAB
M  V30 COUNTS 44 47 0 0 0
M  V30 BEGIN ATOM
M  V30 1 O 0.953239 0.191299 4.359605 0
M  V30 2 C 0.623602 -0.174568 3.184574 0
M  V30 3 N 1.617381 -0.810005 2.389060 0
M  V30 4 C 2.844116 -0.893140 3.156951 0
M  V30 5 C 3.880908 -1.569480 2.293117 0
M  V30 6 C 4.174721 -0.855506 1.037055 0
M  V30 7 C 3.578543 -1.010551 -0.194921 0
M  V30 8 C 3.994406 -0.240841 -1.256197 0
M  V30 9 C 4.991033 0.702631 -1.183706 0
M  V30 10 C 5.593444 0.860697 0.056670 0
M  V30 11 C 5.190372 0.100496 1.126613 0
M  V30 12 C -0.750980 0.100377 2.777795 0
M  V30 13 C -1.571691 0.727609 3.690484 0
M  V30 14 C -2.896833 1.006796 3.333647 0
M  V30 15 C -3.378808 0.662145 2.090445 0
M  V30 16 N -4.583310 0.793633 1.460998 0
M  V30 17 N -4.549235 0.295836 0.245934 0
M  V30 18 C -3.311744 -0.188948 0.020026 0
M  V30 19 C -2.833421 -0.830257 -1.199863 0
M  V30 20 C -3.721844 -1.762137 -1.707525 0
M  V30 21 C -3.376365 -2.446547 -2.877616 0
M  V30 22 N -2.230571 -2.227539 -3.506839 0
M  V30 23 C -1.379707 -1.320003 -3.000975 0
M  V30 24 C -1.625023 -0.595785 -1.858900 0
M  V30 25 C -2.564107 0.031073 1.163396 0
M  V30 26 C -1.259942 -0.232460 1.542621 0
M  V30 27 H 1.255207 -1.069844 1.452979 0
M  V30 28 H 3.180486 0.100129 3.513088 0
M  V30 29 H 2.635519 -1.538169 4.028669 0
M  V30 30 H 3.513098 -2.615737 2.076861 0
M  V30 31 H 4.801728 -1.745137 2.901915 0
M  V30 32 H 2.800690 -1.756390 -0.232327 0
M  V30 33 H 3.475291 -0.424661 -2.186857 0
M  V30 34 H 5.288811 1.283913 -2.031120 0
M  V30 35 H 6.384392 1.593978 0.158960 0
M  V30 36 H 5.723141 0.293613 2.068781 0
M  V30 37 H -1.279010 1.030066 4.677918 0
M  V30 38 H -3.551291 1.500422 4.045119 0
M  V30 39 H -5.433953 1.231365 1.877015 0
M  V30 40 H -4.691667 -2.003757 -1.248435 0
M  V30 41 H -4.035857 -3.184165 -3.314381 0
M  V30 42 H -0.422700 -1.102964 -3.481950 0
M  V30 43 H -1.006188 0.136479 -1.396668 0
M  V30 44 H -0.647996 -0.714784 0.825571 0
M  V30 END ATOM
M  V30 BEGIN BOND
M  V30 1 2 1 2
M  V30 2 1 2 3
M  V30 3 1 3 4
M  V30 4 1 4 5
M  V30 5 1 5 6
M  V30 6 2 6 7
M  V30 7 1 7 8
M  V30 8 2 8 9
M  V30 9 1 9 10
M  V30 10 2 10 11
M  V30 11 1 2 12
M  V30 12 2 12 13
M  V30 13 1 13 14
M  V30 14 2 14 15
M  V30 15 1 15 16
M  V30 16 1 16 17
M  V30 17 2 17 18
M  V30 18 1 18 19
M  V30 19 2 19 20
M  V30 20 1 20 21
M  V30 21 2 21 22
M  V30 22 1 22 23
M  V30 23 2 23 24
M  V30 24 1 18 25
M  V30 25 2 25 26
M  V30 26 1 11 6
M  V30 27 1 26 12
M  V30 28 1 25 15
M  V30 29 1 24 19
M  V30 30 1 3 27
M  V30 31 1 4 28
M  V30 32 1 4 29
M  V30 33 1 5 30
M  V30 34 1 5 31
M  V30 35 1 7 32
M  V30 36 1 8 33
M  V30 37 1 9 34
M  V30 38 1 10 35
M  V30 39 1 11 36
M  V30 40 1 13 37
M  V30 41 1 14 38
M  V30 42 1 16 39
M  V30 43 1 20 40
M  V30 44 1 21 41
M  V30 45 1 23 42
M  V30 46 1 24 43
M  V30 47 1 26 44
M  V30 END BOND
M  V30 END CTAB
M  END
>  <Dataset>  (868) 
ChEMBL_Kinases

>  <Ligand_Instance>  (868) 
nan

>  <PDB_ID>  (868) 
nan

>  <Standardized_SMILES>  (868) 
O=C(NCCc1ccccc1)c1ccc2[nH]nc(-c3ccncc3)c2c1

>  <Name>  (868) 
nan

>  <Pocket>  (868) 
nan

>  <ATP_Site>  (868) 
nan

>  <Peripheral>  (868) 
nan

>  <Num_H_Atoms_ProtBoundConf>  (868) 
nan

>  <Num_Resolved_Atoms>  (868) 
nan

>  <Num_Not_Resolved_Atoms>  (868) 
nan

$$$$
CHEMBL3407860
     RDKit          3D

  0  0  0  0  0  0  0  0  0  0999 V3000
M  V30 BEGIN CTAB
M  V30 COUNTS 65 70 0 0 0
M  V30 BEGIN ATOM
M  V30 1 C 1.302660 0.391344 5.346775 0
M  V30 2 C 0.978548 0.013824 3.951438 0
M  V30 3 C 1.207784 -1.275574 3.523698 0
M  V30 4 C 0.886971 -1.565348 2.232492 0
M  V30 5 C 0.359008 -0.722938 1.296623 0
M  V30 6 C -0.016009 -1.016904 -0.063290 0
M  V30 7 O -0.698169 -0.059559 -0.533947 0
M  V30 8 C 0.181500 -2.090144 -0.995325 0
M  V30 9 C -0.587943 -2.166363 -2.147688 0
M  V30 10 C -1.610963 -1.415972 -2.829204 0
M  V30 11 C -2.783103 -2.090360 -3.148745 0
M  V30 12 C -3.883983 -1.592377 -3.818308 0
M  V30 13 C -3.782363 -0.273725 -4.202640 0
M  V30 14 C -2.659482 0.481674 -3.933263 0
M  V30 15 C -1.615407 -0.108273 -3.260077 0
M  V30 16 N -0.155809 -3.294741 -2.804593 0
M  V30 17 C -0.629924 -3.858420 -4.081563 0
M  V30 18 N 0.818850 -3.921015 -2.154456 0
M  V30 19 C 1.497982 -5.120724 -2.553378 0
M  V30 20 C 2.758359 -5.117295 -3.114507 0
M  V30 21 C 3.353658 -6.310525 -3.479218 0
M  V30 22 C 2.645370 -7.463691 -3.259905 0
M  V30 23 C 1.372290 -7.546796 -2.699863 0
M  V30 24 C 0.834403 -6.313013 -2.357245 0
M  V30 25 C 1.018731 -3.179781 -1.053742 0
M  V30 26 O 1.890497 -3.528949 -0.244885 0
M  V30 27 C 0.139795 0.562857 1.755481 0
M  V30 28 N -0.396900 1.657917 1.010062 0
M  V30 29 C 0.447636 0.927609 3.072115 0
M  V30 30 C 0.243806 2.269031 3.592186 0
M  V30 31 C 1.209941 3.256113 3.518578 0
M  V30 32 C 1.060411 4.554523 4.004887 0
M  V30 33 C -0.132336 4.892173 4.605693 0
M  V30 34 N -0.450418 6.062577 5.118663 0
M  V30 35 C -1.444010 6.386554 5.632302 0
M  V30 36 C -2.213155 7.486065 6.310342 0
M  V30 37 F -2.614341 7.167977 7.570306 0
M  V30 38 F -3.278671 7.793067 5.481492 0
M  V30 39 S -2.439509 4.772547 5.513689 0
M  V30 40 C -1.090050 3.902754 4.675445 0
M  V30 41 C -0.954790 2.587751 4.189264 0
M  V30 42 H 2.383094 0.263553 5.565294 0
M  V30 43 H 0.790933 -0.334598 6.037753 0
M  V30 44 H 1.084458 1.442345 5.570380 0
M  V30 45 H 1.625310 -1.980317 4.227370 0
M  V30 46 H 1.077636 -2.595176 1.989600 0
M  V30 47 H -2.886809 -3.136792 -2.856011 0
M  V30 48 H -4.749829 -2.191546 -4.020954 0
M  V30 49 H -4.606798 0.179311 -4.729707 0
M  V30 50 H -2.572495 1.520354 -4.233004 0
M  V30 51 H -0.740338 0.493745 -3.082544 0
M  V30 52 H -1.347392 -4.700355 -3.904457 0
M  V30 53 H -1.177387 -3.111275 -4.686829 0
M  V30 54 H 0.258615 -4.193004 -4.659368 0
M  V30 55 H 3.249497 -4.164598 -3.253479 0
M  V30 56 H 4.337164 -6.326114 -3.919186 0
M  V30 57 H 3.123215 -8.388190 -3.551824 0
M  V30 58 H 0.901783 -8.504326 -2.570793 0
M  V30 59 H -0.154498 -6.308467 -1.917469 0
M  V30 60 H -1.427391 1.478365 1.187563 0
M  V30 61 H -1.426443 1.473051 1.191274 0
M  V30 62 H 2.137445 2.919650 3.026509 0
M  V30 63 H 1.940334 5.162354 3.841814 0
M  V30 64 H -1.491573 8.324851 6.372607 0
M  V30 65 H -1.780461 1.935509 4.314564 0
M  V30 END ATOM
M  V30 BEGIN BOND
M  V30 1 1 1 2
M  V30 2 2 2 3
M  V30 3 1 3 4
M  V30 4 2 4 5
M  V30 5 1 5 6
M  V30 6 2 6 7
M  V30 7 1 6 8
M  V30 8 2 8 9
M  V30 9 1 9 10
M  V30 10 2 10 11
M  V30 11 1 11 12
M  V30 12 2 12 13
M  V30 13 1 13 14
M  V30 14 2 14 15
M  V30 15 1 9 16
M  V30 16 1 16 17
M  V30 17 1 16 18
M  V30 18 1 18 19
M  V30 19 2 19 20
M  V30 20 1 20 21
M  V30 21 2 21 22
M  V30 22 1 22 23
M  V30 23 2 23 24
M  V30 24 1 18 25
M  V30 25 2 25 26
M  V30 26 1 5 27
M  V30 27 1 27 28
M  V30 28 2 27 29
M  V30 29 1 29 30
M  V30 30 2 30 31
M  V30 31 1 31 32
M  V30 32 2 32 33
M  V30 33 1 33 34
M  V30 34 2 34 35
M  V30 35 1 35 36
M  V30 36 1 36 37
M  V30 37 1 36 38
M  V30 38 1 35 39
M  V30 39 1 39 40
M  V30 40 2 40 41
M  V30 41 1 29 2
M  V30 42 1 41 30
M  V30 43 1 25 8
M  V30 44 1 40 33
M  V30 45 1 15 10
M  V30 46 1 24 19
M  V30 47 1 1 42
M  V30 48 1 1 43
M  V30 49 1 1 44
M  V30 50 1 3 45
M  V30 51 1 4 46
M  V30 52 1 11 47
M  V30 53 1 12 48
M  V30 54 1 13 49
M  V30 55 1 14 50
M  V30 56 1 15 51
M  V30 57 1 17 52
M  V30 58 1 17 53
M  V30 59 1 17 54
M  V30 60 1 20 55
M  V30 61 1 21 56
M  V30 62 1 22 57
M  V30 63 1 23 58
M  V30 64 1 24 59
M  V30 65 1 28 60
M  V30 66 1 28 61
M  V30 67 1 31 62
M  V30 68 1 32 63
M  V30 69 1 36 64
M  V30 70 1 41 65
M  V30 END BOND
M  V30 END CTAB
M  END
>  <Dataset>  (869) 
ChEMBL_Kinases

>  <Ligand_Instance>  (869) 
nan

>  <PDB_ID>  (869) 
nan

>  <Standardized_SMILES>  (869) 
Cc1ccc(C(=O)c2c(-c3ccccc3)n(C)n(-c3ccccc3)c2=O)c(N)c1-c1ccc2nc(C(F)F)sc2c1

>  <Name>  (869) 
nan

>  <Pocket>  (869) 
nan

>  <ATP_Site>  (869) 
nan

>  <Peripheral>  (869) 
nan

>  <Num_H_Atoms_ProtBoundConf>  (869) 
nan

>  <Num_Resolved_Atoms>  (869) 
nan

>  <Num_Not_Resolved_Atoms>  (869) 
nan

$$$$
CHEMBL379825
     RDKit          3D

  0  0  0  0  0  0  0  0  0  0999 V3000
M  V30 BEGIN CTAB
M  V30 COUNTS 43 47 0 0 0
M  V30 BEGIN ATOM
M  V30 1 C 3.468243 0.883656 2.645707 0
M  V30 2 C 3.068535 1.269644 1.240281 0
M  V30 3 N 2.427158 0.109302 0.638082 0
M  V30 4 C 3.011506 -0.890969 -0.069089 0
M  V30 5 C 4.369798 -1.011830 -0.367479 0
M  V30 6 C 4.829762 -2.104246 -1.110324 0
M  V30 7 C 3.881178 -3.036145 -1.522257 0
M  V30 8 O 4.349328 -4.115741 -2.258627 0
M  V30 9 C 2.561655 -2.846344 -1.188196 0
M  V30 10 C 2.067752 -1.802882 -0.469623 0
M  V30 11 C 0.889795 -1.334439 0.011103 0
M  V30 12 C -0.368246 -1.840528 -0.089746 0
M  V30 13 C -1.421686 -1.184763 0.484731 0
M  V30 14 C -1.213366 0.006700 1.177514 0
M  V30 15 C -2.309474 0.734605 1.803100 0
M  V30 16 C -2.526830 0.332045 3.123322 0
M  V30 17 C -3.555695 0.960652 3.830152 0
M  V30 18 C -4.311117 1.933291 3.231285 0
M  V30 19 C -4.098777 2.340942 1.910077 0
M  V30 20 C -3.079768 1.712676 1.222447 0
M  V30 21 Cl -2.702020 2.121647 -0.436333 0
M  V30 22 C 0.062206 0.517160 1.278131 0
M  V30 23 C 1.110021 -0.160044 0.691499 0
M  V30 24 C -2.700399 -1.858675 0.284862 0
M  V30 25 O -3.837924 -1.504576 0.689109 0
M  V30 26 N -2.343621 -3.015658 -0.480330 0
M  V30 27 C -0.951226 -3.003244 -0.703023 0
M  V30 28 O -0.495583 -3.949733 -1.356084 0
M  V30 29 H 4.123841 1.649609 3.110373 0
M  V30 30 H 4.037566 -0.072745 2.549862 0
M  V30 31 H 2.560759 0.659909 3.209861 0
M  V30 32 H 2.401694 2.148701 1.199038 0
M  V30 33 H 3.975129 1.515557 0.619745 0
M  V30 34 H 5.072184 -0.286620 -0.040979 0
M  V30 35 H 5.873327 -2.156704 -1.314914 0
M  V30 36 H 4.268587 -5.059258 -1.856490 0
M  V30 37 H 1.929782 -3.611522 -1.550733 0
M  V30 38 H -1.957328 -0.431988 3.642099 0
M  V30 39 H -3.781439 0.699206 4.858708 0
M  V30 40 H -5.113204 2.431357 3.764778 0
M  V30 41 H -4.688767 3.108377 1.425307 0
M  V30 42 H 0.202484 1.455711 1.827799 0
M  V30 43 H -3.110855 -3.691475 -0.765953 0
M  V30 END ATOM
M  V30 BEGIN BOND
M  V30 1 1 1 2
M  V30 2 1 2 3
M  V30 3 1 3 4
M  V30 4 2 4 5
M  V30 5 1 5 6
M  V30 6 2 6 7
M  V30 7 1 7 8
M  V30 8 1 7 9
M  V30 9 2 9 10
M  V30 10 1 10 11
M  V30 11 2 11 12
M  V30 12 1 12 13
M  V30 13 2 13 14
M  V30 14 1 14 15
M  V30 15 2 15 16
M  V30 16 1 16 17
M  V30 17 2 17 18
M  V30 18 1 18 19
M  V30 19 2 19 20
M  V30 20 1 20 21
M  V30 21 1 14 22
M  V30 22 2 22 23
M  V30 23 1 13 24
M  V30 24 2 24 25
M  V30 25 1 24 26
M  V30 26 1 26 27
M  V30 27 2 27 28
M  V30 28 1 23 3
M  V30 29 1 10 4
M  V30 30 1 23 11
M  V30 31 1 27 12
M  V30 32 1 20 15
M  V30 33 1 1 29
M  V30 34 1 1 30
M  V30 35 1 1 31
M  V30 36 1 2 32
M  V30 37 1 2 33
M  V30 38 1 5 34
M  V30 39 1 6 35
M  V30 40 1 8 36
M  V30 41 1 9 37
M  V30 42 1 16 38
M  V30 43 1 17 39
M  V30 44 1 18 40
M  V30 45 1 19 41
M  V30 46 1 22 42
M  V30 47 1 26 43
M  V30 END BOND
M  V30 END CTAB
M  END
>  <Dataset>  (870) 
ChEMBL_Kinases

>  <Ligand_Instance>  (870) 
nan

>  <PDB_ID>  (870) 
nan

>  <Standardized_SMILES>  (870) 
CCn1c2ccc(O)cc2c2c3c(c(-c4ccccc4Cl)cc21)C(=O)NC3=O

>  <Name>  (870) 
nan

>  <Pocket>  (870) 
nan

>  <ATP_Site>  (870) 
nan

>  <Peripheral>  (870) 
nan

>  <Num_H_Atoms_ProtBoundConf>  (870) 
nan

>  <Num_Resolved_Atoms>  (870) 
nan

>  <Num_Not_Resolved_Atoms>  (870) 
nan

$$$$
CHEMBL3798257
     RDKit          3D

  0  0  0  0  0  0  0  0  0  0999 V3000
M  V30 BEGIN CTAB
M  V30 COUNTS 46 49 0 0 0
M  V30 BEGIN ATOM
M  V30 1 C -2.530629 -4.054374 0.743511 0
M  V30 2 C -1.369693 -4.343074 -0.142379 0
M  V30 3 C -0.786775 -3.290596 -0.829217 0
M  V30 4 C 0.294518 -3.461288 -1.674171 0
M  V30 5 C 0.932258 -2.376742 -2.411771 0
M  V30 6 N 1.298359 -2.402795 -3.705689 0
M  V30 7 N 1.851225 -1.265531 -4.080195 0
M  V30 8 C 1.867638 -0.436574 -3.023820 0
M  V30 9 C 2.297715 0.846196 -2.780530 0
M  V30 10 C 2.173864 1.461431 -1.528499 0
M  V30 11 C 1.602104 0.779671 -0.477499 0
M  V30 12 C 1.488370 1.448679 0.812081 0
M  V30 13 O 1.946363 2.639475 0.836092 0
M  V30 14 N 0.925774 0.891000 1.998078 0
M  V30 15 C 0.876824 1.659303 3.198450 0
M  V30 16 C 1.702824 1.062905 4.322481 0
M  V30 17 C -0.457160 2.015522 3.687731 0
M  V30 18 C -1.560147 1.193214 3.774927 0
M  V30 19 Cl -1.391365 -0.471870 3.268429 0
M  V30 20 C -2.804402 1.563994 4.237158 0
M  V30 21 N -2.987073 2.832399 4.645465 0
M  V30 22 C -1.981926 3.743827 4.611674 0
M  V30 23 C -0.762369 3.307664 4.138107 0
M  V30 24 Cl 0.552469 4.494868 4.092577 0
M  V30 25 C 1.179311 -0.503656 -0.746576 0
M  V30 26 C 1.294850 -1.120802 -1.972633 0
M  V30 27 C 0.836297 -4.726202 -1.859161 0
M  V30 28 C 0.216291 -5.745869 -1.148788 0
M  V30 29 N -0.849637 -5.584867 -0.314369 0
M  V30 30 H -2.456602 -4.648308 1.677335 0
M  V30 31 H -3.488716 -4.279265 0.200423 0
M  V30 32 H -2.469315 -2.988929 1.071647 0
M  V30 33 H -1.191295 -2.311143 -0.698307 0
M  V30 34 H 2.242430 -0.939489 -4.987803 0
M  V30 35 H 2.746884 1.380656 -3.607702 0
M  V30 36 H 2.549032 2.468224 -1.466949 0
M  V30 37 H 0.607960 -0.080397 1.799469 0
M  V30 38 H 1.373799 2.649938 2.954957 0
M  V30 39 H 1.191078 0.235525 4.850452 0
M  V30 40 H 1.997444 1.827599 5.064653 0
M  V30 41 H 2.653631 0.695620 3.841320 0
M  V30 42 H -3.625877 0.867287 4.278319 0
M  V30 43 H -2.095845 4.768510 4.931911 0
M  V30 44 H 0.726962 -1.074875 0.042511 0
M  V30 45 H 1.676970 -4.999073 -2.487765 0
M  V30 46 H 0.593880 -6.774261 -1.248035 0
M  V30 END ATOM
M  V30 BEGIN BOND
M  V30 1 1 1 2
M  V30 2 2 2 3
M  V30 3 1 3 4
M  V30 4 1 4 5
M  V30 5 2 5 6
M  V30 6 1 6 7
M  V30 7 1 7 8
M  V30 8 2 8 9
M  V30 9 1 9 10
M  V30 10 2 10 11
M  V30 11 1 11 12
M  V30 12 2 12 13
M  V30 13 1 12 14
M  V30 14 1 14 15
M  V30 15 1 15 16
M  V30 16 1 15 17
M  V30 17 2 17 18
M  V30 18 1 18 19
M  V30 19 1 18 20
M  V30 20 2 20 21
M  V30 21 1 21 22
M  V30 22 2 22 23
M  V30 23 1 23 24
M  V30 24 1 11 25
M  V30 25 2 25 26
M  V30 26 2 4 27
M  V30 27 1 27 28
M  V30 28 2 28 29
M  V30 29 1 29 2
M  V30 30 1 26 5
M  V30 31 1 26 8
M  V30 32 1 23 17
M  V30 33 1 1 30
M  V30 34 1 1 31
M  V30 35 1 1 32
M  V30 36 1 3 33
M  V30 37 1 7 34
M  V30 38 1 9 35
M  V30 39 1 10 36
M  V30 40 1 14 37
M  V30 41 1 15 38
M  V30 42 1 16 39
M  V30 43 1 16 40
M  V30 44 1 16 41
M  V30 45 1 20 42
M  V30 46 1 22 43
M  V30 47 1 25 44
M  V30 48 1 27 45
M  V30 49 1 28 46
M  V30 END BOND
M  V30 END CTAB
M  END
>  <Dataset>  (871) 
ChEMBL_Kinases

>  <Ligand_Instance>  (871) 
nan

>  <PDB_ID>  (871) 
nan

>  <Standardized_SMILES>  (871) 
Cc1cc(-c2n[nH]c3ccc(C(=O)NC(C)c4c(Cl)cncc4Cl)cc23)ccn1

>  <Name>  (871) 
nan

>  <Pocket>  (871) 
nan

>  <ATP_Site>  (871) 
nan

>  <Peripheral>  (871) 
nan

>  <Num_H_Atoms_ProtBoundConf>  (871) 
nan

>  <Num_Resolved_Atoms>  (871) 
nan

>  <Num_Not_Resolved_Atoms>  (871) 
nan

$$$$
CHEMBL3407862
     RDKit          3D

  0  0  0  0  0  0  0  0  0  0999 V3000
M  V30 BEGIN CTAB
M  V30 COUNTS 68 73 0 0 0
M  V30 BEGIN ATOM
M  V30 1 C 8.209453 0.469404 5.399499 0
M  V30 2 C 6.882472 0.061556 4.872550 0
M  V30 3 C 5.722251 0.442156 5.525455 0
M  V30 4 C 4.556095 0.006387 4.943019 0
M  V30 5 C 4.483434 -0.744372 3.811512 0
M  V30 6 C 3.271382 -1.167433 3.253965 0
M  V30 7 C 3.254375 -1.938963 2.090125 0
M  V30 8 C 1.881482 -2.250303 1.717587 0
M  V30 9 C 1.346607 -3.403724 2.241664 0
M  V30 10 C 2.165369 -4.273225 3.140546 0
M  V30 11 C 0.054863 -3.771172 1.943746 0
M  V30 12 C -0.635913 -2.930683 1.113231 0
M  V30 13 C -0.187739 -1.765498 0.545915 0
M  V30 14 C -0.889321 -0.889336 -0.344579 0
M  V30 15 O -0.084663 -0.033443 -0.801466 0
M  V30 16 C -2.220414 -0.730926 -0.839894 0
M  V30 17 C -2.439400 0.204169 -1.856796 0
M  V30 18 C -1.699111 1.210816 -2.604068 0
M  V30 19 C -1.681110 1.169279 -3.995160 0
M  V30 20 C -1.066902 2.045301 -4.837927 0
M  V30 21 C -0.394228 3.081160 -4.209269 0
M  V30 22 C -0.342042 3.227048 -2.838156 0
M  V30 23 C -1.000778 2.280729 -2.093119 0
M  V30 24 N -3.769629 0.161000 -2.168607 0
M  V30 25 C -4.585647 0.889010 -3.132523 0
M  V30 26 N -4.416992 -0.720250 -1.435286 0
M  V30 27 C -5.804828 -1.105089 -1.407842 0
M  V30 28 C -6.278447 -2.310743 -1.904650 0
M  V30 29 C -7.631447 -2.620473 -1.844843 0
M  V30 30 C -8.494895 -1.702949 -1.281024 0
M  V30 31 C -8.031364 -0.482758 -0.776370 0
M  V30 32 C -6.683377 -0.178836 -0.837218 0
M  V30 33 C -3.475152 -1.249572 -0.639520 0
M  V30 34 O -3.740660 -2.136414 0.205152 0
M  V30 35 C 1.110791 -1.448811 0.879766 0
M  V30 36 N 1.829959 -0.295093 0.436361 0
M  V30 37 C 4.430623 -2.283930 1.489722 0
M  V30 38 C 5.609833 -1.863454 2.045965 0
M  V30 39 C 5.692129 -1.097327 3.197355 0
M  V30 40 N 6.844414 -0.689483 3.739063 0
M  V30 41 H 8.918999 -0.379927 5.426124 0
M  V30 42 H 8.681816 1.250031 4.761222 0
M  V30 43 H 8.108345 0.875096 6.426676 0
M  V30 44 H 5.745572 1.047025 6.438012 0
M  V30 45 H 3.629269 0.292310 5.437566 0
M  V30 46 H 2.399007 -0.822633 3.833457 0
M  V30 47 H 1.676801 -4.368078 4.124221 0
M  V30 48 H 2.204429 -5.268963 2.641450 0
M  V30 49 H 3.206346 -3.939460 3.205850 0
M  V30 50 H -0.330573 -4.681593 2.373949 0
M  V30 51 H -1.617761 -3.299971 0.927210 0
M  V30 52 H -2.217276 0.340216 -4.477101 0
M  V30 53 H -1.109252 1.929101 -5.906384 0
M  V30 54 H 0.122618 3.823172 -4.804693 0
M  V30 55 H 0.189224 4.042251 -2.410671 0
M  V30 56 H -0.964459 2.428994 -1.022802 0
M  V30 57 H -5.008838 0.211738 -3.899468 0
M  V30 58 H -5.422533 1.430734 -2.604924 0
M  V30 59 H -4.026116 1.679853 -3.661319 0
M  V30 60 H -5.532643 -2.972106 -2.329810 0
M  V30 61 H -7.868694 -3.569521 -2.254081 0
M  V30 62 H -9.529756 -1.965063 -1.246573 0
M  V30 63 H -8.749369 0.224964 -0.333768 0
M  V30 64 H -6.349583 0.770298 -0.441532 0
M  V30 65 H 2.448868 -0.076906 -0.395528 0
M  V30 66 H 1.949844 0.668382 0.808328 0
M  V30 67 H 4.305979 -2.869720 0.611942 0
M  V30 68 H 6.531043 -2.144844 1.563530 0
M  V30 END ATOM
M  V30 BEGIN BOND
M  V30 1 1 1 2
M  V30 2 2 2 3
M  V30 3 1 3 4
M  V30 4 2 4 5
M  V30 5 1 5 6
M  V30 6 2 6 7
M  V30 7 1 7 8
M  V30 8 2 8 9
M  V30 9 1 9 10
M  V30 10 1 9 11
M  V30 11 2 11 12
M  V30 12 1 12 13
M  V30 13 1 13 14
M  V30 14 2 14 15
M  V30 15 1 14 16
M  V30 16 2 16 17
M  V30 17 1 17 18
M  V30 18 2 18 19
M  V30 19 1 19 20
M  V30 20 2 20 21
M  V30 21 1 21 22
M  V30 22 2 22 23
M  V30 23 1 17 24
M  V30 24 1 24 25
M  V30 25 1 24 26
M  V30 26 1 26 27
M  V30 27 2 27 28
M  V30 28 1 28 29
M  V30 29 2 29 30
M  V30 30 1 30 31
M  V30 31 2 31 32
M  V30 32 1 26 33
M  V30 33 2 33 34
M  V30 34 2 13 35
M  V30 35 1 35 36
M  V30 36 1 7 37
M  V30 37 2 37 38
M  V30 38 1 38 39
M  V30 39 2 39 40
M  V30 40 1 40 2
M  V30 41 1 39 5
M  V30 42 1 35 8
M  V30 43 1 33 16
M  V30 44 1 23 18
M  V30 45 1 32 27
M  V30 46 1 1 41
M  V30 47 1 1 42
M  V30 48 1 1 43
M  V30 49 1 3 44
M  V30 50 1 4 45
M  V30 51 1 6 46
M  V30 52 1 10 47
M  V30 53 1 10 48
M  V30 54 1 10 49
M  V30 55 1 11 50
M  V30 56 1 12 51
M  V30 57 1 19 52
M  V30 58 1 20 53
M  V30 59 1 21 54
M  V30 60 1 22 55
M  V30 61 1 23 56
M  V30 62 1 25 57
M  V30 63 1 25 58
M  V30 64 1 25 59
M  V30 65 1 28 60
M  V30 66 1 29 61
M  V30 67 1 30 62
M  V30 68 1 31 63
M  V30 69 1 32 64
M  V30 70 1 36 65
M  V30 71 1 36 66
M  V30 72 1 37 67
M  V30 73 1 38 68
M  V30 END BOND
M  V30 END CTAB
M  END
>  <Dataset>  (872) 
ChEMBL_Kinases

>  <Ligand_Instance>  (872) 
nan

>  <PDB_ID>  (872) 
nan

>  <Standardized_SMILES>  (872) 
Cc1ccc2cc(-c3c(C)ccc(C(=O)c4c(-c5ccccc5)n(C)n(-c5ccccc5)c4=O)c3N)ccc2n1

>  <Name>  (872) 
nan

>  <Pocket>  (872) 
nan

>  <ATP_Site>  (872) 
nan

>  <Peripheral>  (872) 
nan

>  <Num_H_Atoms_ProtBoundConf>  (872) 
nan

>  <Num_Resolved_Atoms>  (872) 
nan

>  <Num_Not_Resolved_Atoms>  (872) 
nan

$$$$
CHEMBL4098364
     RDKit          3D

  0  0  0  0  0  0  0  0  0  0999 V3000
M  V30 BEGIN CTAB
M  V30 COUNTS 31 33 0 0 0
M  V30 BEGIN ATOM
M  V30 1 C -4.245480 -3.384962 2.691767 0
M  V30 2 O -3.539965 -2.972372 1.558732 0
M  V30 3 C -2.346422 -2.270669 1.553391 0
M  V30 4 C -1.932775 -2.030029 0.238214 0
M  V30 5 C -0.744806 -1.332069 -0.008477 0
M  V30 6 C 0.013756 -0.884030 1.051693 0
M  V30 7 C 1.196716 -0.188213 1.212654 0
M  V30 8 C 2.030952 0.300157 0.113453 0
M  V30 9 C 3.412531 0.116412 0.166767 0
M  V30 10 C 4.295999 0.537871 -0.816558 0
M  V30 11 N 3.761584 1.165370 -1.887572 0
M  V30 12 C 2.431121 1.374848 -2.000328 0
M  V30 13 N 1.879616 2.038173 -3.135354 0
M  V30 14 C 1.571560 0.951989 -1.019437 0
M  V30 15 C 1.452522 -0.035199 2.561559 0
M  V30 16 N 0.456138 -0.619658 3.257079 0
M  V30 17 C -0.409259 -1.130216 2.349291 0
M  V30 18 C -1.579012 -1.817446 2.606767 0
M  V30 19 H -3.869218 -2.878618 3.603762 0
M  V30 20 H -5.348441 -3.157842 2.611515 0
M  V30 21 H -4.231485 -4.507339 2.817864 0
M  V30 22 H -2.438987 -2.329416 -0.671223 0
M  V30 23 H -0.388975 -1.124816 -1.012650 0
M  V30 24 H 3.838162 -0.389772 1.031878 0
M  V30 25 H 5.362950 0.351405 -0.691259 0
M  V30 26 H 1.903785 3.078482 -3.037980 0
M  V30 27 H 1.453281 1.772047 -4.047442 0
M  V30 28 H 0.496057 1.107388 -1.084242 0
M  V30 29 H 2.292306 0.459475 3.039485 0
M  V30 30 H 0.380278 -0.662247 4.297404 0
M  V30 31 H -1.999851 -2.063018 3.564707 0
M  V30 END ATOM
M  V30 BEGIN BOND
M  V30 1 1 1 2
M  V30 2 1 2 3
M  V30 3 2 3 4
M  V30 4 1 4 5
M  V30 5 2 5 6
M  V30 6 1 6 7
M  V30 7 1 7 8
M  V30 8 2 8 9
M  V30 9 1 9 10
M  V30 10 2 10 11
M  V30 11 1 11 12
M  V30 12 1 12 13
M  V30 13 2 12 14
M  V30 14 2 7 15
M  V30 15 1 15 16
M  V30 16 1 16 17
M  V30 17 2 17 18
M  V30 18 1 18 3
M  V30 19 1 17 6
M  V30 20 1 14 8
M  V30 21 1 1 19
M  V30 22 1 1 20
M  V30 23 1 1 21
M  V30 24 1 4 22
M  V30 25 1 5 23
M  V30 26 1 9 24
M  V30 27 1 10 25
M  V30 28 1 13 26
M  V30 29 1 13 27
M  V30 30 1 14 28
M  V30 31 1 15 29
M  V30 32 1 16 30
M  V30 33 1 18 31
M  V30 END BOND
M  V30 END CTAB
M  END
>  <Dataset>  (873) 
ChEMBL_Kinases

>  <Ligand_Instance>  (873) 
nan

>  <PDB_ID>  (873) 
nan

>  <Standardized_SMILES>  (873) 
COc1ccc2c(-c3ccnc(N)c3)c[nH]c2c1

>  <Name>  (873) 
nan

>  <Pocket>  (873) 
nan

>  <ATP_Site>  (873) 
nan

>  <Peripheral>  (873) 
nan

>  <Num_H_Atoms_ProtBoundConf>  (873) 
nan

>  <Num_Resolved_Atoms>  (873) 
nan

>  <Num_Not_Resolved_Atoms>  (873) 
nan

$$$$
CHEMBL379849
     RDKit          3D

  0  0  0  0  0  0  0  0  0  0999 V3000
M  V30 BEGIN CTAB
M  V30 COUNTS 38 40 0 0 0
M  V30 BEGIN ATOM
M  V30 1 O 0.923435 -0.909808 3.080105 0
M  V30 2 C 0.574634 -0.672244 1.896457 0
M  V30 3 C 1.339606 -1.306173 0.824023 0
M  V30 4 C 2.340770 -2.141321 0.967015 0
M  V30 5 C 3.099792 -2.773201 -0.102377 0
M  V30 6 C 2.552831 -3.326361 -1.238402 0
M  V30 7 C 3.412875 -3.870146 -2.157484 0
M  V30 8 C 4.789081 -3.863612 -1.949101 0
M  V30 9 C 5.362884 -3.304501 -0.797101 0
M  V30 10 C 4.446827 -2.759307 0.115443 0
M  V30 11 F 5.065145 -2.233040 1.202925 0
M  V30 12 C 0.889249 -0.892628 -0.538462 0
M  V30 13 N 0.516781 0.500548 -0.576238 0
M  V30 14 C -0.564144 0.878693 0.300622 0
M  V30 15 C -0.551092 0.201593 1.587244 0
M  V30 16 C -1.487317 0.392708 2.457657 0
M  V30 17 C -2.683519 1.209580 2.352970 0
M  V30 18 C -3.653371 1.202632 1.379786 0
M  V30 19 C -4.726509 2.064440 1.380738 0
M  V30 20 C -4.768248 2.944886 2.433790 0
M  V30 21 C -3.858244 3.041203 3.460847 0
M  V30 22 C -2.788947 2.136538 3.400927 0
M  V30 23 F -1.913672 2.280785 4.450985 0
M  V30 24 H 2.535755 -2.306221 2.035970 0
M  V30 25 H 1.486834 -3.332499 -1.381469 0
M  V30 26 H 3.075174 -4.327760 -3.078250 0
M  V30 27 H 5.501916 -4.293112 -2.671151 0
M  V30 28 H 6.432345 -3.313323 -0.662965 0
M  V30 29 H 0.051007 -1.510059 -0.854482 0
M  V30 30 H 1.735161 -0.983767 -1.257462 0
M  V30 31 H 0.285811 0.717912 -1.576651 0
M  V30 32 H -0.325338 1.967137 0.545654 0
M  V30 33 H -1.526986 0.957903 -0.224116 0
M  V30 34 H -1.392193 -0.127212 3.426497 0
M  V30 35 H -3.582268 0.474185 0.589550 0
M  V30 36 H -5.470814 2.034948 0.599500 0
M  V30 37 H -5.630313 3.633309 2.432173 0
M  V30 38 H -4.020222 3.786165 4.227016 0
M  V30 END ATOM
M  V30 BEGIN BOND
M  V30 1 2 1 2
M  V30 2 1 2 3
M  V30 3 2 3 4
M  V30 4 1 4 5
M  V30 5 2 5 6
M  V30 6 1 6 7
M  V30 7 2 7 8
M  V30 8 1 8 9
M  V30 9 2 9 10
M  V30 10 1 10 11
M  V30 11 1 3 12
M  V30 12 1 12 13
M  V30 13 1 13 14
M  V30 14 1 14 15
M  V30 15 2 15 16
M  V30 16 1 16 17
M  V30 17 2 17 18
M  V30 18 1 18 19
M  V30 19 2 19 20
M  V30 20 1 20 21
M  V30 21 2 21 22
M  V30 22 1 22 23
M  V30 23 1 15 2
M  V30 24 1 22 17
M  V30 25 1 10 5
M  V30 26 1 4 24
M  V30 27 1 6 25
M  V30 28 1 7 26
M  V30 29 1 8 27
M  V30 30 1 9 28
M  V30 31 1 12 29
M  V30 32 1 12 30
M  V30 33 1 13 31
M  V30 34 1 14 32
M  V30 35 1 14 33
M  V30 36 1 16 34
M  V30 37 1 18 35
M  V30 38 1 19 36
M  V30 39 1 20 37
M  V30 40 1 21 38
M  V30 END BOND
M  V30 END CTAB
M  END
>  <Dataset>  (874) 
ChEMBL_Kinases

>  <Ligand_Instance>  (874) 
nan

>  <PDB_ID>  (874) 
nan

>  <Standardized_SMILES>  (874) 
O=C1/C(=C/c2ccccc2F)CNC/C1=C\c1ccccc1F

>  <Name>  (874) 
nan

>  <Pocket>  (874) 
nan

>  <ATP_Site>  (874) 
nan

>  <Peripheral>  (874) 
nan

>  <Num_H_Atoms_ProtBoundConf>  (874) 
nan

>  <Num_Resolved_Atoms>  (874) 
nan

>  <Num_Not_Resolved_Atoms>  (874) 
nan

$$$$
CHEMBL4098243
     RDKit          3D

  0  0  0  0  0  0  0  0  0  0999 V3000
M  V30 BEGIN CTAB
M  V30 COUNTS 31 33 0 0 0
M  V30 BEGIN ATOM
M  V30 1 Cl -1.905512 -1.493596 4.729617 0
M  V30 2 C -0.836381 -2.195020 3.539385 0
M  V30 3 C 0.380017 -2.726652 3.897153 0
M  V30 4 C 1.227708 -3.281610 2.961867 0
M  V30 5 C 0.839066 -3.302014 1.625785 0
M  V30 6 C 1.675633 -3.878902 0.513865 0
M  V30 7 S 2.756185 -2.600345 -0.188712 0
M  V30 8 C 1.694957 -1.376736 -0.990778 0
M  V30 9 N 1.230833 -0.313894 -0.296038 0
M  V30 10 C 0.460691 0.450147 -1.122440 0
M  V30 11 C -0.159018 1.665077 -0.598828 0
M  V30 12 C -1.478412 2.020605 -0.882126 0
M  V30 13 C -1.974543 3.192868 -0.337797 0
M  V30 14 N -1.254955 4.009913 0.450243 0
M  V30 15 C 0.019795 3.683927 0.734934 0
M  V30 16 C 0.572793 2.523254 0.219688 0
M  V30 17 N 0.471914 -0.169118 -2.314654 0
M  V30 18 N 1.210223 -1.264047 -2.240002 0
M  V30 19 C -0.394887 -2.756617 1.302047 0
M  V30 20 C -1.251114 -2.199351 2.225653 0
M  V30 21 H 0.705397 -2.722749 4.931207 0
M  V30 22 H 2.198732 -3.714882 3.190477 0
M  V30 23 H 0.984430 -4.232856 -0.273150 0
M  V30 24 H 2.231530 -4.741457 0.892377 0
M  V30 25 H -2.075035 1.376070 -1.514832 0
M  V30 26 H -2.989949 3.507979 -0.529792 0
M  V30 27 H 0.651670 4.309594 1.369409 0
M  V30 28 H 1.596542 2.261838 0.448558 0
M  V30 29 H 1.437647 -1.972977 -2.952998 0
M  V30 30 H -0.692259 -2.776415 0.253404 0
M  V30 31 H -2.179063 -1.806345 1.871942 0
M  V30 END ATOM
M  V30 BEGIN BOND
M  V30 1 1 1 2
M  V30 2 2 2 3
M  V30 3 1 3 4
M  V30 4 2 4 5
M  V30 5 1 5 6
M  V30 6 1 6 7
M  V30 7 1 7 8
M  V30 8 2 8 9
M  V30 9 1 9 10
M  V30 10 1 10 11
M  V30 11 2 11 12
M  V30 12 1 12 13
M  V30 13 2 13 14
M  V30 14 1 14 15
M  V30 15 2 15 16
M  V30 16 2 10 17
M  V30 17 1 17 18
M  V30 18 1 5 19
M  V30 19 2 19 20
M  V30 20 1 20 2
M  V30 21 1 18 8
M  V30 22 1 16 11
M  V30 23 1 3 21
M  V30 24 1 4 22
M  V30 25 1 6 23
M  V30 26 1 6 24
M  V30 27 1 12 25
M  V30 28 1 13 26
M  V30 29 1 15 27
M  V30 30 1 16 28
M  V30 31 1 18 29
M  V30 32 1 19 30
M  V30 33 1 20 31
M  V30 END BOND
M  V30 END CTAB
M  END
>  <Dataset>  (875) 
ChEMBL_Kinases

>  <Ligand_Instance>  (875) 
nan

>  <PDB_ID>  (875) 
nan

>  <Standardized_SMILES>  (875) 
Clc1ccc(CSc2nc(-c3ccncc3)n[nH]2)cc1

>  <Name>  (875) 
nan

>  <Pocket>  (875) 
nan

>  <ATP_Site>  (875) 
nan

>  <Peripheral>  (875) 
nan

>  <Num_H_Atoms_ProtBoundConf>  (875) 
nan

>  <Num_Resolved_Atoms>  (875) 
nan

>  <Num_Not_Resolved_Atoms>  (875) 
nan

$$$$
CHEMBL3798563
     RDKit          3D

  0  0  0  0  0  0  0  0  0  0999 V3000
M  V30 BEGIN CTAB
M  V30 COUNTS 50 54 0 0 0
M  V30 BEGIN ATOM
M  V30 1 O 0.848425 -6.340205 1.855857 0
M  V30 2 C 0.954736 -5.117460 1.993224 0
M  V30 3 N 1.813026 -4.524331 2.959068 0
M  V30 4 C 1.636919 -3.103971 2.784699 0
M  V30 5 C 2.317908 -2.158797 3.558259 0
M  V30 6 C 2.075932 -0.826855 3.309014 0
M  V30 7 C 1.166023 -0.495873 2.299910 0
M  V30 8 N 1.002507 0.918174 2.139088 0
M  V30 9 C 1.763064 1.743329 1.278562 0
M  V30 10 O 2.684649 1.290840 0.551432 0
M  V30 11 C 1.521197 3.179038 1.183255 0
M  V30 12 C 2.294053 3.937954 0.326115 0
M  V30 13 C 2.081102 5.307822 0.219348 0
M  V30 14 N 2.900272 6.071977 -0.680455 0 CHG=1 VAL=4
M  V30 15 O 3.789254 5.499543 -1.352558 0
M  V30 16 O 2.657266 7.430843 -0.757845 0 CHG=-1 VAL=1
M  V30 17 C 1.115298 5.967646 0.941156 0
M  V30 18 C 0.344653 5.203681 1.797399 0
M  V30 19 N -0.670500 5.833212 2.569912 0 CHG=1 VAL=4
M  V30 20 O -1.373602 5.150639 3.347895 0
M  V30 21 O -0.903545 7.177022 2.486809 0 CHG=-1 VAL=1
M  V30 22 C 0.558665 3.862100 1.897095 0
M  V30 23 C 0.552059 -1.505390 1.600068 0
M  V30 24 C 0.739299 -2.820698 1.788564 0
M  V30 25 C 0.276694 -4.065996 1.253681 0
M  V30 26 C -0.582295 -4.191915 0.294019 0
M  V30 27 N -1.010848 -5.441899 -0.203331 0
M  V30 28 C -1.959055 -5.310094 -1.258465 0
M  V30 29 C -2.617390 -6.271107 -2.007565 0
M  V30 30 C -3.475353 -5.817068 -2.957106 0
M  V30 31 C -3.695146 -4.484036 -3.181313 0
M  V30 32 C -3.014009 -3.578291 -2.407660 0
M  V30 33 C -2.112930 -3.939504 -1.408589 0
M  V30 34 C -1.282247 -3.217016 -0.471132 0
M  V30 35 N -1.293380 -1.989412 -0.464247 0
M  V30 36 O -2.019896 -1.183133 -1.261686 0
M  V30 37 H 2.424370 -5.050979 3.632357 0
M  V30 38 H 3.018443 -2.408744 4.335221 0
M  V30 39 H 2.597179 -0.093602 3.901253 0
M  V30 40 H 0.238769 1.298211 2.740499 0
M  V30 41 H 3.084142 3.517821 -0.290340 0
M  V30 42 H 0.919183 7.027740 0.886555 0
M  V30 43 H -0.061876 3.307663 2.573356 0
M  V30 44 H -0.075850 -1.048164 0.907215 0
M  V30 45 H -0.688400 -6.369860 0.141661 0
M  V30 46 H -2.454688 -7.308053 -1.842369 0
M  V30 47 H -3.990197 -6.564365 -3.542803 0
M  V30 48 H -4.394075 -4.196982 -3.956181 0
M  V30 49 H -3.238930 -2.550478 -2.642337 0
M  V30 50 H -1.559353 -0.392415 -1.697299 0
M  V30 END ATOM
M  V30 BEGIN BOND
M  V30 1 2 1 2
M  V30 2 1 2 3
M  V30 3 1 3 4
M  V30 4 2 4 5
M  V30 5 1 5 6
M  V30 6 2 6 7
M  V30 7 1 7 8
M  V30 8 1 8 9
M  V30 9 2 9 10
M  V30 10 1 9 11
M  V30 11 2 11 12
M  V30 12 1 12 13
M  V30 13 1 13 14
M  V30 14 2 14 15
M  V30 15 1 14 16
M  V30 16 2 13 17
M  V30 17 1 17 18
M  V30 18 1 18 19
M  V30 19 2 19 20
M  V30 20 1 19 21
M  V30 21 2 18 22
M  V30 22 1 7 23
M  V30 23 2 23 24
M  V30 24 1 24 25
M  V30 25 2 25 26
M  V30 26 1 26 27
M  V30 27 1 27 28
M  V30 28 2 28 29
M  V30 29 1 29 30
M  V30 30 2 30 31
M  V30 31 1 31 32
M  V30 32 2 32 33
M  V30 33 1 33 34
M  V30 34 2 34 35
M  V30 35 1 35 36
M  V30 36 1 25 2
M  V30 37 1 34 26
M  V30 38 1 24 4
M  V30 39 1 33 28
M  V30 40 1 22 11
M  V30 41 1 3 37
M  V30 42 1 5 38
M  V30 43 1 6 39
M  V30 44 1 8 40
M  V30 45 1 12 41
M  V30 46 1 17 42
M  V30 47 1 22 43
M  V30 48 1 23 44
M  V30 49 1 27 45
M  V30 50 1 29 46
M  V30 51 1 30 47
M  V30 52 1 31 48
M  V30 53 1 32 49
M  V30 54 1 36 50
M  V30 END BOND
M  V30 END CTAB
M  END
>  <Dataset>  (876) 
ChEMBL_Kinases

>  <Ligand_Instance>  (876) 
nan

>  <PDB_ID>  (876) 
nan

>  <Standardized_SMILES>  (876) 
O=C1Nc2ccc(NC(=O)c3cc([N+](=O)[O-])cc([N+](=O)[O-])c3)cc2/C1=C1/Nc2ccccc2/C1=N\O

>  <Name>  (876) 
nan

>  <Pocket>  (876) 
nan

>  <ATP_Site>  (876) 
nan

>  <Peripheral>  (876) 
nan

>  <Num_H_Atoms_ProtBoundConf>  (876) 
nan

>  <Num_Resolved_Atoms>  (876) 
nan

>  <Num_Not_Resolved_Atoms>  (876) 
nan

$$$$
CHEMBL3408801
     RDKit          3D

  0  0  0  0  0  0  0  0  0  0999 V3000
M  V30 BEGIN CTAB
M  V30 COUNTS 30 33 0 0 0
M  V30 BEGIN ATOM
M  V30 1 N 3.860322 -2.083049 5.202249 0
M  V30 2 C 2.620536 -2.255233 4.549691 0
M  V30 3 N 1.678557 -3.114855 5.031544 0
M  V30 4 C 0.542137 -3.173281 4.300046 0
M  V30 5 N 0.304377 -2.483101 3.204749 0
M  V30 6 C 1.189199 -1.620467 2.678123 0
M  V30 7 C 2.347585 -1.554466 3.415115 0
M  V30 8 S 3.393917 -0.382405 2.588513 0
M  V30 9 C 2.140561 -0.031769 1.224937 0
M  V30 10 N 2.227416 0.791330 0.182676 0
M  V30 11 C 1.225783 0.922136 -0.706611 0
M  V30 12 C 0.144494 0.126725 -0.410182 0
M  V30 13 C -1.000764 0.215338 -1.345213 0
M  V30 14 C -1.400369 1.489663 -1.745182 0
M  V30 15 C -2.474092 1.606237 -2.623778 0
M  V30 16 C -3.102419 0.461656 -3.066011 0
M  V30 17 F -4.159467 0.535505 -3.928541 0
M  V30 18 C -2.721739 -0.809482 -2.681595 0
M  V30 19 C -1.646938 -0.916326 -1.802702 0
M  V30 20 F -1.188737 -2.099292 -1.360587 0
M  V30 21 C 0.028739 -0.729057 0.655325 0
M  V30 22 C 1.059382 -0.855205 1.559040 0
M  V30 23 H 4.793498 -2.561073 5.368357 0
M  V30 24 H 4.009817 -1.190823 5.747141 0
M  V30 25 H -0.261954 -3.849990 4.634788 0
M  V30 26 H 1.360282 1.596791 -1.515792 0
M  V30 27 H -0.868952 2.365132 -1.365675 0
M  V30 28 H -2.804357 2.593313 -2.950429 0
M  V30 29 H -3.213271 -1.713459 -3.027039 0
M  V30 30 H -0.880669 -1.297633 0.769950 0
M  V30 END ATOM
M  V30 BEGIN BOND
M  V30 1 1 1 2
M  V30 2 2 2 3
M  V30 3 1 3 4
M  V30 4 2 4 5
M  V30 5 1 5 6
M  V30 6 2 6 7
M  V30 7 1 7 8
M  V30 8 1 8 9
M  V30 9 2 9 10
M  V30 10 1 10 11
M  V30 11 2 11 12
M  V30 12 1 12 13
M  V30 13 2 13 14
M  V30 14 1 14 15
M  V30 15 2 15 16
M  V30 16 1 16 17
M  V30 17 1 16 18
M  V30 18 2 18 19
M  V30 19 1 19 20
M  V30 20 1 12 21
M  V30 21 2 21 22
M  V30 22 1 7 2
M  V30 23 1 22 9
M  V30 24 1 22 6
M  V30 25 1 19 13
M  V30 26 1 1 23
M  V30 27 1 1 24
M  V30 28 1 4 25
M  V30 29 1 11 26
M  V30 30 1 14 27
M  V30 31 1 15 28
M  V30 32 1 18 29
M  V30 33 1 21 30
M  V30 END BOND
M  V30 END CTAB
M  END
>  <Dataset>  (877) 
ChEMBL_Kinases

>  <Ligand_Instance>  (877) 
nan

>  <PDB_ID>  (877) 
nan

>  <Standardized_SMILES>  (877) 
Nc1ncnc2c1sc1ncc(-c3ccc(F)cc3F)cc12

>  <Name>  (877) 
nan

>  <Pocket>  (877) 
nan

>  <ATP_Site>  (877) 
nan

>  <Peripheral>  (877) 
nan

>  <Num_H_Atoms_ProtBoundConf>  (877) 
nan

>  <Num_Resolved_Atoms>  (877) 
nan

>  <Num_Not_Resolved_Atoms>  (877) 
nan

$$$$
CHEMBL3798579
     RDKit          3D

  0  0  0  0  0  0  0  0  0  0999 V3000
M  V30 BEGIN CTAB
M  V30 COUNTS 52 56 0 0 0
M  V30 BEGIN ATOM
M  V30 1 O -0.997810 -6.120557 2.243075 0
M  V30 2 C -0.453233 -5.011108 2.057932 0
M  V30 3 N 0.707156 -4.615486 2.773033 0
M  V30 4 C 1.021879 -3.298553 2.285104 0
M  V30 5 C 2.113037 -2.549883 2.745230 0
M  V30 6 C 2.298012 -1.311976 2.196969 0
M  V30 7 C 1.444167 -0.821196 1.230024 0
M  V30 8 N 1.621695 0.453745 0.654861 0
M  V30 9 C 2.558393 1.460705 0.844487 0
M  V30 10 O 3.447103 1.226628 1.694890 0
M  V30 11 C 2.674031 2.765132 0.202670 0
M  V30 12 C 3.875263 3.500587 0.759184 0
M  V30 13 C 3.498295 4.634097 1.669030 0
M  V30 14 C 2.382664 4.265853 2.601815 0
M  V30 15 C 1.143035 3.925161 1.821790 0
M  V30 16 C 1.467504 3.651405 0.381358 0
M  V30 17 C 0.405295 -1.632177 0.847291 0
M  V30 18 C 0.138251 -2.861347 1.324279 0
M  V30 19 C -0.808428 -3.925825 1.158991 0
M  V30 20 C -1.800892 -3.919590 0.353131 0
M  V30 21 N -2.735087 -4.974698 0.192679 0
M  V30 22 C -3.737103 -4.692129 -0.776700 0
M  V30 23 C -4.804702 -5.465868 -1.203617 0
M  V30 24 C -5.596176 -4.887940 -2.169284 0
M  V30 25 C -5.379809 -3.635284 -2.700531 0
M  V30 26 C -4.298755 -2.933985 -2.221900 0
M  V30 27 C -3.422479 -3.410335 -1.244936 0
M  V30 28 C -2.241976 -2.914440 -0.570107 0
M  V30 29 N -1.835776 -1.789966 -0.875632 0
M  V30 30 O -2.345700 -0.926688 -1.774544 0
M  V30 31 H 1.196541 -5.193173 3.494323 0
M  V30 32 H 2.789754 -2.908741 3.494608 0
M  V30 33 H 3.147430 -0.769454 2.577866 0
M  V30 34 H 0.941511 0.799546 -0.089941 0
M  V30 35 H 2.830424 2.694389 -0.906067 0
M  V30 36 H 4.509406 2.795303 1.353228 0
M  V30 37 H 4.544414 3.876998 -0.041158 0
M  V30 38 H 4.381983 4.876252 2.310791 0
M  V30 39 H 3.299465 5.555797 1.085509 0
M  V30 40 H 2.721205 3.415501 3.216645 0
M  V30 41 H 2.220483 5.125128 3.288129 0
M  V30 42 H 0.487811 4.834461 1.856964 0
M  V30 43 H 0.644347 3.094276 2.341325 0
M  V30 44 H 1.682312 4.621500 -0.095877 0
M  V30 45 H 0.565000 3.223877 -0.122165 0
M  V30 46 H -0.172510 -1.168145 0.118596 0
M  V30 47 H -2.705504 -5.871701 0.722269 0
M  V30 48 H -4.990935 -6.434346 -0.808211 0
M  V30 49 H -6.429994 -5.487768 -2.505240 0
M  V30 50 H -6.043976 -3.251236 -3.453981 0
M  V30 51 H -4.173630 -1.973335 -2.662298 0
M  V30 52 H -2.419048 0.064046 -1.692197 0
M  V30 END ATOM
M  V30 BEGIN BOND
M  V30 1 2 1 2
M  V30 2 1 2 3
M  V30 3 1 3 4
M  V30 4 2 4 5
M  V30 5 1 5 6
M  V30 6 2 6 7
M  V30 7 1 7 8
M  V30 8 1 8 9
M  V30 9 2 9 10
M  V30 10 1 9 11
M  V30 11 1 11 12
M  V30 12 1 12 13
M  V30 13 1 13 14
M  V30 14 1 14 15
M  V30 15 1 15 16
M  V30 16 1 7 17
M  V30 17 2 17 18
M  V30 18 1 18 19
M  V30 19 2 19 20
M  V30 20 1 20 21
M  V30 21 1 21 22
M  V30 22 2 22 23
M  V30 23 1 23 24
M  V30 24 2 24 25
M  V30 25 1 25 26
M  V30 26 2 26 27
M  V30 27 1 27 28
M  V30 28 2 28 29
M  V30 29 1 29 30
M  V30 30 1 19 2
M  V30 31 1 28 20
M  V30 32 1 18 4
M  V30 33 1 27 22
M  V30 34 1 16 11
M  V30 35 1 3 31
M  V30 36 1 5 32
M  V30 37 1 6 33
M  V30 38 1 8 34
M  V30 39 1 11 35
M  V30 40 1 12 36
M  V30 41 1 12 37
M  V30 42 1 13 38
M  V30 43 1 13 39
M  V30 44 1 14 40
M  V30 45 1 14 41
M  V30 46 1 15 42
M  V30 47 1 15 43
M  V30 48 1 16 44
M  V30 49 1 16 45
M  V30 50 1 17 46
M  V30 51 1 21 47
M  V30 52 1 23 48
M  V30 53 1 24 49
M  V30 54 1 25 50
M  V30 55 1 26 51
M  V30 56 1 30 52
M  V30 END BOND
M  V30 END CTAB
M  END
>  <Dataset>  (878) 
ChEMBL_Kinases

>  <Ligand_Instance>  (878) 
nan

>  <PDB_ID>  (878) 
nan

>  <Standardized_SMILES>  (878) 
O=C1Nc2ccc(NC(=O)C3CCCCC3)cc2/C1=C1/Nc2ccccc2/C1=N\O

>  <Name>  (878) 
nan

>  <Pocket>  (878) 
nan

>  <ATP_Site>  (878) 
nan

>  <Peripheral>  (878) 
nan

>  <Num_H_Atoms_ProtBoundConf>  (878) 
nan

>  <Num_Resolved_Atoms>  (878) 
nan

>  <Num_Not_Resolved_Atoms>  (878) 
nan

$$$$
CHEMBL3798624
     RDKit          3D

  0  0  0  0  0  0  0  0  0  0999 V3000
M  V30 BEGIN CTAB
M  V30 COUNTS 47 50 0 0 0
M  V30 BEGIN ATOM
M  V30 1 C -3.045646 -5.134995 -0.418156 0
M  V30 2 C -1.612425 -5.331695 -0.712387 0
M  V30 3 C -0.851242 -4.213446 -1.001213 0
M  V30 4 C 0.484266 -4.373885 -1.277857 0
M  V30 5 C 1.454440 -3.326254 -1.605056 0
M  V30 6 N 2.360717 -3.388966 -2.597415 0
M  V30 7 N 3.086269 -2.299849 -2.640553 0
M  V30 8 C 2.695085 -1.441569 -1.664068 0
M  V30 9 C 3.057621 -0.191233 -1.219953 0
M  V30 10 C 2.397814 0.361816 -0.162868 0
M  V30 11 C 1.364568 -0.240258 0.524335 0
M  V30 12 C 0.653135 0.344111 1.656345 0
M  V30 13 O -0.283812 -0.358319 2.175624 0
M  V30 14 N 0.915751 1.621394 2.223883 0
M  V30 15 C 0.163222 2.131681 3.350233 0 CFG=1
M  V30 16 C 1.078269 2.246353 4.520691 0
M  V30 17 C -0.691558 3.244048 3.018064 0
M  V30 18 C -2.021563 3.294341 3.473442 0
M  V30 19 Cl -2.558161 1.917759 4.454559 0
M  V30 20 C -2.938005 4.280207 3.244228 0
M  V30 21 C -2.538685 5.348556 2.489031 0
M  V30 22 C -1.256601 5.402808 1.991609 0
M  V30 23 C -0.391074 4.365753 2.268749 0
M  V30 24 Cl 1.203520 4.518219 1.615820 0
M  V30 25 C 1.029787 -1.490762 0.050984 0
M  V30 26 C 1.668440 -2.083055 -1.009787 0
M  V30 27 C 1.014983 -5.646674 -1.256712 0
M  V30 28 C 0.251220 -6.761525 -0.967686 0
M  V30 29 N -1.060149 -6.560881 -0.700716 0
M  V30 30 H -3.384073 -6.019264 0.192521 0
M  V30 31 H -3.635924 -5.135999 -1.364739 0
M  V30 32 H -3.242288 -4.186526 0.118903 0
M  V30 33 H -1.209156 -3.196104 -1.032704 0
M  V30 34 H 3.869823 -2.067285 -3.309406 0
M  V30 35 H 3.858237 0.310462 -1.729234 0
M  V30 36 H 2.721795 1.333724 0.138070 0
M  V30 37 H 1.700560 2.075426 1.709238 0
M  V30 38 H -0.536545 1.271189 3.611496 0
M  V30 39 H 1.921154 2.926979 4.408825 0
M  V30 40 H 0.524616 2.344258 5.482517 0
M  V30 41 H 1.550327 1.222307 4.609134 0
M  V30 42 H -3.935577 4.205961 3.649703 0
M  V30 43 H -3.234009 6.142228 2.288900 0
M  V30 44 H -0.976157 6.253220 1.404087 0
M  V30 45 H 0.221065 -2.036492 0.539727 0
M  V30 46 H 2.068621 -5.860851 -1.465467 0
M  V30 47 H 0.677432 -7.761183 -0.953146 0
M  V30 END ATOM
M  V30 BEGIN BOND
M  V30 1 1 1 2
M  V30 2 2 2 3
M  V30 3 1 3 4
M  V30 4 1 4 5
M  V30 5 2 5 6
M  V30 6 1 6 7
M  V30 7 1 7 8
M  V30 8 2 8 9
M  V30 9 1 9 10
M  V30 10 2 10 11
M  V30 11 1 11 12
M  V30 12 2 12 13
M  V30 13 1 12 14
M  V30 14 1 14 15
M  V30 15 1 15 16
M  V30 16 1 15 17
M  V30 17 2 17 18
M  V30 18 1 18 19
M  V30 19 1 18 20
M  V30 20 2 20 21
M  V30 21 1 21 22
M  V30 22 2 22 23
M  V30 23 1 23 24
M  V30 24 1 11 25
M  V30 25 2 25 26
M  V30 26 2 4 27
M  V30 27 1 27 28
M  V30 28 2 28 29
M  V30 29 1 29 2
M  V30 30 1 26 5
M  V30 31 1 26 8
M  V30 32 1 23 17
M  V30 33 1 1 30
M  V30 34 1 1 31
M  V30 35 1 1 32
M  V30 36 1 3 33
M  V30 37 1 7 34
M  V30 38 1 9 35
M  V30 39 1 10 36
M  V30 40 1 14 37
M  V30 41 1 15 38 CFG=1
M  V30 42 1 16 39
M  V30 43 1 16 40
M  V30 44 1 16 41
M  V30 45 1 20 42
M  V30 46 1 21 43
M  V30 47 1 22 44
M  V30 48 1 25 45
M  V30 49 1 27 46
M  V30 50 1 28 47
M  V30 END BOND
M  V30 END CTAB
M  END
>  <Dataset>  (879) 
ChEMBL_Kinases

>  <Ligand_Instance>  (879) 
nan

>  <PDB_ID>  (879) 
nan

>  <Standardized_SMILES>  (879) 
Cc1cc(-c2n[nH]c3ccc(C(=O)N[C@@H](C)c4c(Cl)cccc4Cl)cc23)ccn1

>  <Name>  (879) 
nan

>  <Pocket>  (879) 
nan

>  <ATP_Site>  (879) 
nan

>  <Peripheral>  (879) 
nan

>  <Num_H_Atoms_ProtBoundConf>  (879) 
nan

>  <Num_Resolved_Atoms>  (879) 
nan

>  <Num_Not_Resolved_Atoms>  (879) 
nan

$$$$
CHEMBL3798631
     RDKit          3D

  0  0  0  0  0  0  0  0  0  0999 V3000
M  V30 BEGIN CTAB
M  V30 COUNTS 44 47 0 0 0
M  V30 BEGIN ATOM
M  V30 1 C -2.792405 -2.071368 2.148982 0
M  V30 2 C -1.909290 -2.557227 1.034502 0
M  V30 3 N -1.176068 -1.424297 0.541160 0
M  V30 4 C -1.266549 -0.921265 -0.786754 0
M  V30 5 O -2.021931 -1.459457 -1.637312 0
M  V30 6 C -0.497905 0.235123 -1.236427 0
M  V30 7 C -0.649888 0.652125 -2.542544 0
M  V30 8 C 0.049752 1.751427 -3.052809 0
M  V30 9 C 0.924331 2.446010 -2.222307 0
M  V30 10 N 1.751068 3.522344 -2.344150 0
M  V30 11 N 2.365436 3.748926 -1.196052 0
M  V30 12 C 1.988438 2.850637 -0.260085 0
M  V30 13 C 2.472261 2.807156 1.123504 0
M  V30 14 C 2.869899 1.671692 1.799879 0
M  V30 15 C 3.310241 1.765958 3.115179 0
M  V30 16 N 3.351900 2.975395 3.742573 0
M  V30 17 C 2.966658 4.085187 3.091362 0
M  V30 18 C 2.518028 4.026806 1.767087 0
M  V30 19 C 1.074401 2.029961 -0.923340 0
M  V30 20 C 0.375823 0.943271 -0.437494 0
M  V30 21 C -1.024635 -3.669973 1.450663 0
M  V30 22 C 0.104109 -3.450657 2.209683 0
M  V30 23 C 0.936471 -4.487682 2.602618 0
M  V30 24 C 0.663796 -5.775840 2.247405 0
M  V30 25 C -0.471020 -6.050164 1.476813 0
M  V30 26 Cl -0.978538 -7.650122 0.926651 0
M  V30 27 C -1.282433 -4.974211 1.102815 0
M  V30 28 H -2.188904 -1.807196 3.038461 0
M  V30 29 H -3.233152 -1.093421 1.812445 0
M  V30 30 H -3.628574 -2.745128 2.343476 0
M  V30 31 H -2.531673 -2.938189 0.199024 0
M  V30 32 H -0.548007 -0.974200 1.242767 0
M  V30 33 H -1.323270 0.151607 -3.256031 0
M  V30 34 H -0.053364 2.096713 -4.073739 0
M  V30 35 H 1.802959 4.013072 -3.266121 0
M  V30 36 H 2.815917 0.739861 1.253071 0
M  V30 37 H 3.611609 0.828406 3.595543 0
M  V30 38 H 3.017143 5.038160 3.636892 0
M  V30 39 H 2.222525 4.968877 1.305613 0
M  V30 40 H 0.510080 0.637255 0.581599 0
M  V30 41 H 0.366482 -2.453864 2.517710 0
M  V30 42 H 1.830784 -4.368033 3.196462 0
M  V30 43 H 1.253551 -6.643249 2.507358 0
M  V30 44 H -2.178172 -5.141247 0.501453 0
M  V30 END ATOM
M  V30 BEGIN BOND
M  V30 1 1 1 2
M  V30 2 1 2 3
M  V30 3 1 3 4
M  V30 4 2 4 5
M  V30 5 1 4 6
M  V30 6 2 6 7
M  V30 7 1 7 8
M  V30 8 2 8 9
M  V30 9 1 9 10
M  V30 10 1 10 11
M  V30 11 2 11 12
M  V30 12 1 12 13
M  V30 13 2 13 14
M  V30 14 1 14 15
M  V30 15 2 15 16
M  V30 16 1 16 17
M  V30 17 2 17 18
M  V30 18 1 12 19
M  V30 19 2 19 20
M  V30 20 1 2 21
M  V30 21 2 21 22
M  V30 22 1 22 23
M  V30 23 2 23 24
M  V30 24 1 24 25
M  V30 25 1 25 26
M  V30 26 2 25 27
M  V30 27 1 20 6
M  V30 28 1 27 21
M  V30 29 1 19 9
M  V30 30 1 18 13
M  V30 31 1 1 28
M  V30 32 1 1 29
M  V30 33 1 1 30
M  V30 34 1 2 31
M  V30 35 1 3 32
M  V30 36 1 7 33
M  V30 37 1 8 34
M  V30 38 1 10 35
M  V30 39 1 14 36
M  V30 40 1 15 37
M  V30 41 1 17 38
M  V30 42 1 18 39
M  V30 43 1 20 40
M  V30 44 1 22 41
M  V30 45 1 23 42
M  V30 46 1 24 43
M  V30 47 1 27 44
M  V30 END BOND
M  V30 END CTAB
M  END
>  <Dataset>  (880) 
ChEMBL_Kinases

>  <Ligand_Instance>  (880) 
nan

>  <PDB_ID>  (880) 
nan

>  <Standardized_SMILES>  (880) 
CC(NC(=O)c1ccc2[nH]nc(-c3ccncc3)c2c1)c1cccc(Cl)c1

>  <Name>  (880) 
nan

>  <Pocket>  (880) 
nan

>  <ATP_Site>  (880) 
nan

>  <Peripheral>  (880) 
nan

>  <Num_H_Atoms_ProtBoundConf>  (880) 
nan

>  <Num_Resolved_Atoms>  (880) 
nan

>  <Num_Not_Resolved_Atoms>  (880) 
nan

$$$$
CHEMBL3798680
     RDKit          3D

  0  0  0  0  0  0  0  0  0  0999 V3000
M  V30 BEGIN CTAB
M  V30 COUNTS 49 53 0 0 0
M  V30 BEGIN ATOM
M  V30 1 O -0.262631 -5.551524 3.494932 0
M  V30 2 C 0.307532 -4.512716 3.110591 0
M  V30 3 N 1.667823 -4.250828 3.401069 0
M  V30 4 C 1.929357 -2.971184 2.787339 0
M  V30 5 C 3.171798 -2.335026 2.837399 0
M  V30 6 C 3.313165 -1.123101 2.222952 0
M  V30 7 C 2.218142 -0.546875 1.559917 0
M  V30 8 N 2.500584 0.708756 0.967259 0
M  V30 9 C 1.680447 1.586488 0.208732 0
M  V30 10 O 0.494284 1.235908 0.001152 0
M  V30 11 C 2.103457 2.863291 -0.350109 0
M  V30 12 C 2.465709 3.876691 0.544998 0
M  V30 13 C 2.875322 5.095417 -0.001630 0
M  V30 14 C 2.909199 5.258280 -1.362970 0
M  V30 15 C 2.563147 4.292730 -2.258384 0
M  V30 16 C 2.151544 3.068453 -1.721193 0
M  V30 17 C 1.745786 1.939718 -2.624747 0
M  V30 18 F 2.522593 0.822756 -2.441871 0
M  V30 19 F 0.394372 1.707928 -2.541268 0
M  V30 20 F 1.976312 2.351034 -3.945784 0
M  V30 21 C 1.050556 -1.265089 1.578370 0
M  V30 22 C 0.825230 -2.455747 2.154634 0
M  V30 23 C -0.228327 -3.405361 2.336542 0
M  V30 24 C -1.425098 -3.274558 1.888199 0
M  V30 25 N -2.454180 -4.231079 2.086763 0
M  V30 26 C -3.683866 -3.841775 1.487502 0
M  V30 27 C -4.908318 -4.491946 1.457032 0
M  V30 28 C -5.914825 -3.844120 0.786630 0
M  V30 29 C -5.742752 -2.623202 0.174313 0
M  V30 30 C -4.500557 -2.042906 0.248391 0
M  V30 31 C -3.412974 -2.608322 0.899187 0
M  V30 32 C -2.036809 -2.233614 1.127435 0
M  V30 33 N -1.627764 -1.164182 0.671523 0
M  V30 34 O -2.317962 -0.253316 -0.042847 0
M  V30 35 H 2.309464 -4.869701 3.942153 0
M  V30 36 H 4.031455 -2.752204 3.337599 0
M  V30 37 H 4.284802 -0.648139 2.275144 0
M  V30 38 H 3.439680 1.142391 1.048413 0
M  V30 39 H 2.455085 3.795243 1.614833 0
M  V30 40 H 3.176388 5.941844 0.635838 0
M  V30 41 H 3.234416 6.223289 -1.754924 0
M  V30 42 H 2.596702 4.441317 -3.317433 0
M  V30 43 H 0.343908 -0.715491 1.053851 0
M  V30 44 H -2.345475 -5.124348 2.609210 0
M  V30 45 H -5.051546 -5.441201 1.930769 0
M  V30 46 H -6.862011 -4.362991 0.771618 0
M  V30 47 H -6.584071 -2.173435 -0.336047 0
M  V30 48 H -4.443479 -1.088934 -0.253471 0
M  V30 49 H -2.342714 -0.256070 -1.054012 0
M  V30 END ATOM
M  V30 BEGIN BOND
M  V30 1 2 1 2
M  V30 2 1 2 3
M  V30 3 1 3 4
M  V30 4 2 4 5
M  V30 5 1 5 6
M  V30 6 2 6 7
M  V30 7 1 7 8
M  V30 8 1 8 9
M  V30 9 2 9 10
M  V30 10 1 9 11
M  V30 11 2 11 12
M  V30 12 1 12 13
M  V30 13 2 13 14
M  V30 14 1 14 15
M  V30 15 2 15 16
M  V30 16 1 16 17
M  V30 17 1 17 18
M  V30 18 1 17 19
M  V30 19 1 17 20
M  V30 20 1 7 21
M  V30 21 2 21 22
M  V30 22 1 22 23
M  V30 23 2 23 24
M  V30 24 1 24 25
M  V30 25 1 25 26
M  V30 26 2 26 27
M  V30 27 1 27 28
M  V30 28 2 28 29
M  V30 29 1 29 30
M  V30 30 2 30 31
M  V30 31 1 31 32
M  V30 32 2 32 33
M  V30 33 1 33 34
M  V30 34 1 23 2
M  V30 35 1 32 24
M  V30 36 1 22 4
M  V30 37 1 31 26
M  V30 38 1 16 11
M  V30 39 1 3 35
M  V30 40 1 5 36
M  V30 41 1 6 37
M  V30 42 1 8 38
M  V30 43 1 12 39
M  V30 44 1 13 40
M  V30 45 1 14 41
M  V30 46 1 15 42
M  V30 47 1 21 43
M  V30 48 1 25 44
M  V30 49 1 27 45
M  V30 50 1 28 46
M  V30 51 1 29 47
M  V30 52 1 30 48
M  V30 53 1 34 49
M  V30 END BOND
M  V30 END CTAB
M  END
>  <Dataset>  (881) 
ChEMBL_Kinases

>  <Ligand_Instance>  (881) 
nan

>  <PDB_ID>  (881) 
nan

>  <Standardized_SMILES>  (881) 
O=C1Nc2ccc(NC(=O)c3ccccc3C(F)(F)F)cc2/C1=C1/Nc2ccccc2/C1=N\O

>  <Name>  (881) 
nan

>  <Pocket>  (881) 
nan

>  <ATP_Site>  (881) 
nan

>  <Peripheral>  (881) 
nan

>  <Num_H_Atoms_ProtBoundConf>  (881) 
nan

>  <Num_Resolved_Atoms>  (881) 
nan

>  <Num_Not_Resolved_Atoms>  (881) 
nan

$$$$
CHEMBL3408796
     RDKit          3D

  0  0  0  0  0  0  0  0  0  0999 V3000
M  V30 BEGIN CTAB
M  V30 COUNTS 30 33 0 0 0
M  V30 BEGIN ATOM
M  V30 1 N 5.688359 -2.061932 2.732983 0
M  V30 2 C 4.314382 -2.404061 2.614538 0
M  V30 3 N 3.819548 -3.553482 3.163711 0
M  V30 4 C 2.495840 -3.739347 2.966862 0
M  V30 5 N 1.703205 -2.916666 2.310368 0
M  V30 6 C 2.125694 -1.771614 1.747093 0
M  V30 7 C 3.468307 -1.568038 1.938092 0
M  V30 8 S 3.874961 -0.027471 1.143337 0
M  V30 9 C 2.099508 0.253739 0.573459 0
M  V30 10 N 1.597751 1.275815 -0.130462 0
M  V30 11 C 0.294325 1.331236 -0.461377 0
M  V30 12 C -0.426229 0.252572 -0.005192 0
M  V30 13 C -1.866790 0.249291 -0.334598 0
M  V30 14 C -2.533827 1.461488 -0.431884 0
M  V30 15 C -3.880716 1.537611 -0.736815 0
M  V30 16 C -4.595153 0.367496 -0.953917 0
M  V30 17 Cl -6.312075 0.333496 -1.348784 0
M  V30 18 C -3.945913 -0.845150 -0.860745 0
M  V30 19 C -2.601020 -0.881676 -0.554465 0
M  V30 20 C 0.076731 -0.800672 0.717090 0
M  V30 21 C 1.411424 -0.850624 1.052062 0
M  V30 22 H 6.397412 -1.469981 3.200025 0
M  V30 23 H 5.653577 -1.308704 3.473879 0
M  V30 24 H 2.024736 -4.646110 3.381791 0
M  V30 25 H -0.040913 2.172690 -1.023231 0
M  V30 26 H -2.040699 2.400370 -0.276098 0
M  V30 27 H -4.471444 2.422934 -0.831524 0
M  V30 28 H -4.441411 -1.806230 -1.018067 0
M  V30 29 H -2.086375 -1.837012 -0.480372 0
M  V30 30 H -0.600318 -1.587107 1.015147 0
M  V30 END ATOM
M  V30 BEGIN BOND
M  V30 1 1 1 2
M  V30 2 2 2 3
M  V30 3 1 3 4
M  V30 4 2 4 5
M  V30 5 1 5 6
M  V30 6 2 6 7
M  V30 7 1 7 8
M  V30 8 1 8 9
M  V30 9 2 9 10
M  V30 10 1 10 11
M  V30 11 2 11 12
M  V30 12 1 12 13
M  V30 13 2 13 14
M  V30 14 1 14 15
M  V30 15 2 15 16
M  V30 16 1 16 17
M  V30 17 1 16 18
M  V30 18 2 18 19
M  V30 19 1 12 20
M  V30 20 2 20 21
M  V30 21 1 7 2
M  V30 22 1 21 9
M  V30 23 1 21 6
M  V30 24 1 19 13
M  V30 25 1 1 22
M  V30 26 1 1 23
M  V30 27 1 4 24
M  V30 28 1 11 25
M  V30 29 1 14 26
M  V30 30 1 15 27
M  V30 31 1 18 28
M  V30 32 1 19 29
M  V30 33 1 20 30
M  V30 END BOND
M  V30 END CTAB
M  END
>  <Dataset>  (882) 
ChEMBL_Kinases

>  <Ligand_Instance>  (882) 
nan

>  <PDB_ID>  (882) 
nan

>  <Standardized_SMILES>  (882) 
Nc1ncnc2c1sc1ncc(-c3ccc(Cl)cc3)cc12

>  <Name>  (882) 
nan

>  <Pocket>  (882) 
nan

>  <ATP_Site>  (882) 
nan

>  <Peripheral>  (882) 
nan

>  <Num_H_Atoms_ProtBoundConf>  (882) 
nan

>  <Num_Resolved_Atoms>  (882) 
nan

>  <Num_Not_Resolved_Atoms>  (882) 
nan

$$$$
CHEMBL3408797
     RDKit          3D

  0  0  0  0  0  0  0  0  0  0999 V3000
M  V30 BEGIN CTAB
M  V30 COUNTS 30 33 0 0 0
M  V30 BEGIN ATOM
M  V30 1 N 5.883240 -1.313549 2.495799 0
M  V30 2 C 4.600553 -1.880761 2.268427 0
M  V30 3 N 4.369474 -3.205618 2.512434 0
M  V30 4 C 3.101168 -3.620763 2.252992 0
M  V30 5 N 2.117337 -2.841657 1.794945 0
M  V30 6 C 2.299040 -1.532716 1.540696 0
M  V30 7 C 3.576250 -1.114648 1.802017 0
M  V30 8 S 3.624298 0.595323 1.417543 0
M  V30 9 C 1.815480 0.668531 0.892452 0
M  V30 10 N 1.094645 1.702022 0.448807 0
M  V30 11 C -0.203357 1.563622 0.115529 0
M  V30 12 C -0.671059 0.281844 0.282195 0
M  V30 13 C -2.092012 0.076514 -0.071752 0
M  V30 14 C -2.969480 1.146185 0.129656 0
M  V30 15 C -4.308815 0.961688 -0.202678 0
M  V30 16 C -4.758880 -0.231973 -0.712870 0
M  V30 17 C -3.885366 -1.278073 -0.906723 0
M  V30 18 Cl -4.347438 -2.831118 -1.546472 0
M  V30 19 C -2.553638 -1.117874 -0.584391 0
M  V30 20 C 0.055331 -0.789466 0.736380 0
M  V30 21 C 1.381994 -0.638956 1.075053 0
M  V30 22 H 6.416181 -1.265554 1.579707 0
M  V30 23 H 6.219774 -0.998081 3.454069 0
M  V30 24 H 2.834024 -4.676275 2.423329 0
M  V30 25 H -0.712409 2.439992 -0.232242 0
M  V30 26 H -2.657239 2.109573 0.531155 0
M  V30 27 H -4.994366 1.784610 -0.050137 0
M  V30 28 H -5.782464 -0.382156 -0.970214 0
M  V30 29 H -1.802686 -1.893919 -0.707600 0
M  V30 30 H -0.446705 -1.733888 0.814800 0
M  V30 END ATOM
M  V30 BEGIN BOND
M  V30 1 1 1 2
M  V30 2 2 2 3
M  V30 3 1 3 4
M  V30 4 2 4 5
M  V30 5 1 5 6
M  V30 6 2 6 7
M  V30 7 1 7 8
M  V30 8 1 8 9
M  V30 9 2 9 10
M  V30 10 1 10 11
M  V30 11 2 11 12
M  V30 12 1 12 13
M  V30 13 2 13 14
M  V30 14 1 14 15
M  V30 15 2 15 16
M  V30 16 1 16 17
M  V30 17 1 17 18
M  V30 18 2 17 19
M  V30 19 1 12 20
M  V30 20 2 20 21
M  V30 21 1 7 2
M  V30 22 1 21 9
M  V30 23 1 21 6
M  V30 24 1 19 13
M  V30 25 1 1 22
M  V30 26 1 1 23
M  V30 27 1 4 24
M  V30 28 1 11 25
M  V30 29 1 14 26
M  V30 30 1 15 27
M  V30 31 1 16 28
M  V30 32 1 19 29
M  V30 33 1 20 30
M  V30 END BOND
M  V30 END CTAB
M  END
>  <Dataset>  (883) 
ChEMBL_Kinases

>  <Ligand_Instance>  (883) 
nan

>  <PDB_ID>  (883) 
nan

>  <Standardized_SMILES>  (883) 
Nc1ncnc2c1sc1ncc(-c3cccc(Cl)c3)cc12

>  <Name>  (883) 
nan

>  <Pocket>  (883) 
nan

>  <ATP_Site>  (883) 
nan

>  <Peripheral>  (883) 
nan

>  <Num_H_Atoms_ProtBoundConf>  (883) 
nan

>  <Num_Resolved_Atoms>  (883) 
nan

>  <Num_Not_Resolved_Atoms>  (883) 
nan

$$$$
CHEMBL4097393
     RDKit          3D

  0  0  0  0  0  0  0  0  0  0999 V3000
M  V30 BEGIN CTAB
M  V30 COUNTS 61 65 0 0 0
M  V30 BEGIN ATOM
M  V30 1 C 3.297947 -2.063073 6.282334 0
M  V30 2 C 2.995248 -0.863628 5.467317 0
M  V30 3 C 3.817730 -0.133062 4.608907 0
M  V30 4 C 3.100250 0.906682 4.065068 0
M  V30 5 C 3.531796 1.963577 3.094817 0
M  V30 6 N 3.295146 1.505133 1.718865 0
M  V30 7 C 1.974820 1.518452 1.225968 0
M  V30 8 O 1.187840 1.957617 2.133993 0
M  V30 9 C 1.507293 1.113458 -0.090857 0
M  V30 10 C 0.126568 1.239724 -0.292851 0
M  V30 11 C -0.462306 0.893810 -1.490871 0
M  V30 12 C -1.930031 1.057566 -1.620853 0 CFG=2
M  V30 13 C -2.330346 2.533189 -1.478084 0
M  V30 14 C -3.815171 2.576775 -1.145046 0
M  V30 15 N -4.546454 1.462221 -1.676741 0
M  V30 16 C -4.121711 0.208092 -1.074575 0
M  V30 17 C -2.701079 0.335577 -0.567359 0 CFG=1
M  V30 18 C -2.166996 -0.996911 -0.199058 0
M  V30 19 O -2.129058 -1.890889 -1.289902 0
M  V30 20 C -1.641847 -3.200289 -1.105155 0
M  V30 21 C -1.219092 -3.523764 0.189634 0
M  V30 22 C -0.753057 -4.817171 0.307939 0
M  V30 23 C -0.684972 -5.745521 -0.708296 0
M  V30 24 C -1.121157 -5.363986 -1.978178 0
M  V30 25 C -1.598858 -4.082502 -2.161094 0
M  V30 26 O -0.935706 -6.489312 -2.785115 0
M  V30 27 C -0.085808 -7.408502 -2.127622 0
M  V30 28 O -0.250472 -7.067525 -0.760606 0
M  V30 29 C 0.294848 0.408605 -2.537366 0
M  V30 30 C 1.655760 0.272930 -2.370185 0
M  V30 31 C 2.209391 0.625300 -1.167992 0
M  V30 32 F 3.533113 0.503633 -0.973316 0
M  V30 33 N 1.850355 0.790949 4.602990 0
M  V30 34 N 1.819536 -0.249151 5.415794 0
M  V30 35 H 2.486946 -2.814761 6.160153 0
M  V30 36 H 4.238609 -2.565047 5.999972 0
M  V30 37 H 3.281140 -1.793243 7.360031 0
M  V30 38 H 4.839738 -0.350943 4.410297 0
M  V30 39 H 4.629250 2.156292 3.194503 0
M  V30 40 H 2.959422 2.890192 3.225546 0
M  V30 41 H 4.047891 1.173981 1.092979 0
M  V30 42 H -0.524416 1.622367 0.511640 0
M  V30 43 H -2.226156 0.697267 -2.621947 0
M  V30 44 H -2.066370 3.074860 -2.390355 0
M  V30 45 H -1.798112 2.903188 -0.572127 0
M  V30 46 H -4.265181 3.516586 -1.511413 0
M  V30 47 H -3.972707 2.551909 -0.032305 0
M  V30 48 H -4.647497 1.434193 -2.694974 0
M  V30 49 H -4.097491 -0.529239 -1.916795 0
M  V30 50 H -4.824019 -0.135248 -0.278364 0
M  V30 51 H -2.665443 0.976226 0.351432 0
M  V30 52 H -1.207068 -0.962154 0.352547 0
M  V30 53 H -2.896719 -1.441632 0.535266 0
M  V30 54 H -1.231021 -2.880788 1.038131 0
M  V30 55 H -0.403742 -5.150214 1.286859 0
M  V30 56 H -1.930346 -3.799373 -3.136387 0
M  V30 57 H -0.475315 -8.412330 -2.287564 0
M  V30 58 H 0.968982 -7.365230 -2.454646 0
M  V30 59 H -0.172445 0.134897 -3.484501 0
M  V30 60 H 2.304199 -0.093509 -3.130806 0
M  V30 61 H 0.916533 -0.476868 5.915756 0
M  V30 END ATOM
M  V30 BEGIN BOND
M  V30 1 1 1 2
M  V30 2 2 2 3
M  V30 3 1 3 4
M  V30 4 1 4 5
M  V30 5 1 5 6
M  V30 6 1 6 7
M  V30 7 2 7 8
M  V30 8 1 7 9
M  V30 9 2 9 10
M  V30 10 1 10 11
M  V30 11 1 11 12
M  V30 12 1 12 13
M  V30 13 1 13 14
M  V30 14 1 14 15
M  V30 15 1 15 16
M  V30 16 1 16 17
M  V30 17 1 17 18
M  V30 18 1 18 19
M  V30 19 1 19 20
M  V30 20 2 20 21
M  V30 21 1 21 22
M  V30 22 2 22 23
M  V30 23 1 23 24
M  V30 24 2 24 25
M  V30 25 1 24 26
M  V30 26 1 26 27
M  V30 27 1 27 28
M  V30 28 2 11 29
M  V30 29 1 29 30
M  V30 30 2 30 31
M  V30 31 1 31 32
M  V30 32 2 4 33
M  V30 33 1 33 34
M  V30 34 1 34 2
M  V30 35 1 31 9
M  V30 36 1 17 12
M  V30 37 1 25 20
M  V30 38 1 28 23
M  V30 39 1 1 35
M  V30 40 1 1 36
M  V30 41 1 1 37
M  V30 42 1 3 38
M  V30 43 1 5 39
M  V30 44 1 5 40
M  V30 45 1 6 41
M  V30 46 1 10 42
M  V30 47 1 12 43 CFG=3
M  V30 48 1 13 44
M  V30 49 1 13 45
M  V30 50 1 14 46
M  V30 51 1 14 47
M  V30 52 1 15 48
M  V30 53 1 16 49
M  V30 54 1 16 50
M  V30 55 1 17 51 CFG=1
M  V30 56 1 18 52
M  V30 57 1 18 53
M  V30 58 1 21 54
M  V30 59 1 22 55
M  V30 60 1 25 56
M  V30 61 1 27 57
M  V30 62 1 27 58
M  V30 63 1 29 59
M  V30 64 1 30 60
M  V30 65 1 34 61
M  V30 END BOND
M  V30 END CTAB
M  END
>  <Dataset>  (884) 
ChEMBL_Kinases

>  <Ligand_Instance>  (884) 
nan

>  <PDB_ID>  (884) 
nan

>  <Standardized_SMILES>  (884) 
Cc1cc(CNC(=O)c2cc([C@@H]3CCNC[C@H]3COc3ccc4c(c3)OCO4)ccc2F)n[nH]1

>  <Name>  (884) 
nan

>  <Pocket>  (884) 
nan

>  <ATP_Site>  (884) 
nan

>  <Peripheral>  (884) 
nan

>  <Num_H_Atoms_ProtBoundConf>  (884) 
nan

>  <Num_Resolved_Atoms>  (884) 
nan

>  <Num_Not_Resolved_Atoms>  (884) 
nan

$$$$
CHEMBL3408799
     RDKit          3D

  0  0  0  0  0  0  0  0  0  0999 V3000
M  V30 BEGIN CTAB
M  V30 COUNTS 30 33 0 0 0
M  V30 BEGIN ATOM
M  V30 1 N 3.968184 -5.259357 0.320206 0
M  V30 2 C 2.780154 -4.800971 0.918376 0
M  V30 3 N 1.986952 -5.452105 1.777629 0
M  V30 4 C 0.900580 -4.793047 2.209359 0
M  V30 5 N 0.551149 -3.558762 1.857060 0
M  V30 6 C 1.261078 -2.801273 1.004074 0
M  V30 7 C 2.367784 -3.491577 0.573351 0
M  V30 8 S 3.192879 -2.277411 -0.578378 0
M  V30 9 C 1.970639 -1.013935 -0.343448 0
M  V30 10 N 1.917709 0.243681 -0.911211 0
M  V30 11 C 0.901175 1.063025 -0.604671 0
M  V30 12 C -0.019983 0.546861 0.277824 0
M  V30 13 C -1.127869 1.465406 0.603706 0
M  V30 14 C -0.761887 2.780355 0.919241 0
M  V30 15 C -1.635911 3.790951 1.254977 0
M  V30 16 C -2.975510 3.484212 1.282588 0
M  V30 17 Cl -4.157872 4.690344 1.694610 0
M  V30 18 C -3.359465 2.199985 0.976490 0
M  V30 19 C -2.479431 1.192629 0.641046 0
M  V30 20 Cl -2.924409 -0.444432 0.242505 0
M  V30 21 C -0.005392 -0.689750 0.862035 0
M  V30 22 C 1.031475 -1.541851 0.557151 0
M  V30 23 H 4.806209 -5.389555 0.933328 0
M  V30 24 H 4.166143 -5.504937 -0.686185 0
M  V30 25 H 0.206678 -5.277871 2.920303 0
M  V30 26 H 0.824574 2.048344 -1.025306 0
M  V30 27 H 0.302007 3.058014 0.906250 0
M  V30 28 H -1.269456 4.777708 1.484347 0
M  V30 29 H -4.412196 1.883578 0.978412 0
M  V30 30 H -0.803114 -0.945403 1.537235 0
M  V30 END ATOM
M  V30 BEGIN BOND
M  V30 1 1 1 2
M  V30 2 2 2 3
M  V30 3 1 3 4
M  V30 4 2 4 5
M  V30 5 1 5 6
M  V30 6 2 6 7
M  V30 7 1 7 8
M  V30 8 1 8 9
M  V30 9 2 9 10
M  V30 10 1 10 11
M  V30 11 2 11 12
M  V30 12 1 12 13
M  V30 13 2 13 14
M  V30 14 1 14 15
M  V30 15 2 15 16
M  V30 16 1 16 17
M  V30 17 1 16 18
M  V30 18 2 18 19
M  V30 19 1 19 20
M  V30 20 1 12 21
M  V30 21 2 21 22
M  V30 22 1 7 2
M  V30 23 1 22 9
M  V30 24 1 22 6
M  V30 25 1 19 13
M  V30 26 1 1 23
M  V30 27 1 1 24
M  V30 28 1 4 25
M  V30 29 1 11 26
M  V30 30 1 14 27
M  V30 31 1 15 28
M  V30 32 1 18 29
M  V30 33 1 21 30
M  V30 END BOND
M  V30 END CTAB
M  END
>  <Dataset>  (885) 
ChEMBL_Kinases

>  <Ligand_Instance>  (885) 
nan

>  <PDB_ID>  (885) 
nan

>  <Standardized_SMILES>  (885) 
Nc1ncnc2c1sc1ncc(-c3ccc(Cl)cc3Cl)cc12

>  <Name>  (885) 
nan

>  <Pocket>  (885) 
nan

>  <ATP_Site>  (885) 
nan

>  <Peripheral>  (885) 
nan

>  <Num_H_Atoms_ProtBoundConf>  (885) 
nan

>  <Num_Resolved_Atoms>  (885) 
nan

>  <Num_Not_Resolved_Atoms>  (885) 
nan

$$$$
CHEMBL3408800
     RDKit          3D

  0  0  0  0  0  0  0  0  0  0999 V3000
M  V30 BEGIN CTAB
M  V30 COUNTS 33 36 0 0 0
M  V30 BEGIN ATOM
M  V30 1 N 4.596202 -4.873267 2.404394 0
M  V30 2 C 3.372589 -4.615442 1.743711 0
M  V30 3 N 2.639727 -5.613876 1.174896 0
M  V30 4 C 1.490095 -5.198069 0.581268 0
M  V30 5 N 1.064122 -3.951074 0.525912 0
M  V30 6 C 1.733364 -2.920098 1.063280 0
M  V30 7 C 2.904242 -3.345174 1.667724 0
M  V30 8 S 3.662525 -1.855672 2.324776 0
M  V30 9 C 2.317124 -0.738487 1.725055 0
M  V30 10 N 2.180140 0.592257 1.848829 0
M  V30 11 C 1.121124 1.247322 1.344284 0
M  V30 12 C 0.220199 0.425838 0.706120 0
M  V30 13 C -0.963816 1.090872 0.132121 0
M  V30 14 C -1.458205 2.215879 0.767408 0
M  V30 15 C -2.567660 2.843737 0.232150 0
M  V30 16 C -3.192319 2.374070 -0.920254 0
M  V30 17 C -4.387386 3.007618 -1.543033 0
M  V30 18 F -5.429528 2.097945 -1.660863 0
M  V30 19 F -4.827251 4.036883 -0.763343 0
M  V30 20 F -4.069642 3.404258 -2.827181 0
M  V30 21 C -2.670259 1.238810 -1.536403 0
M  V30 22 C -1.560708 0.594880 -1.017585 0
M  V30 23 C 0.343496 -0.934310 0.570130 0
M  V30 24 C 1.439788 -1.586869 1.096317 0
M  V30 25 H 4.509630 -5.165354 3.393947 0
M  V30 26 H 4.273465 -5.146970 3.370811 0
M  V30 27 H 0.826622 -5.934809 0.091657 0
M  V30 28 H 1.076031 2.312867 1.480129 0
M  V30 29 H -0.980221 2.575523 1.649649 0
M  V30 30 H -2.998011 3.734072 0.692951 0
M  V30 31 H -3.138860 0.852805 -2.435531 0
M  V30 32 H -1.141130 -0.295803 -1.490365 0
M  V30 33 H -0.444510 -1.452433 0.042147 0
M  V30 END ATOM
M  V30 BEGIN BOND
M  V30 1 1 1 2
M  V30 2 2 2 3
M  V30 3 1 3 4
M  V30 4 2 4 5
M  V30 5 1 5 6
M  V30 6 2 6 7
M  V30 7 1 7 8
M  V30 8 1 8 9
M  V30 9 2 9 10
M  V30 10 1 10 11
M  V30 11 2 11 12
M  V30 12 1 12 13
M  V30 13 2 13 14
M  V30 14 1 14 15
M  V30 15 2 15 16
M  V30 16 1 16 17
M  V30 17 1 17 18
M  V30 18 1 17 19
M  V30 19 1 17 20
M  V30 20 1 16 21
M  V30 21 2 21 22
M  V30 22 1 12 23
M  V30 23 2 23 24
M  V30 24 1 7 2
M  V30 25 1 24 9
M  V30 26 1 24 6
M  V30 27 1 22 13
M  V30 28 1 1 25
M  V30 29 1 1 26
M  V30 30 1 4 27
M  V30 31 1 11 28
M  V30 32 1 14 29
M  V30 33 1 15 30
M  V30 34 1 21 31
M  V30 35 1 22 32
M  V30 36 1 23 33
M  V30 END BOND
M  V30 END CTAB
M  END
>  <Dataset>  (886) 
ChEMBL_Kinases

>  <Ligand_Instance>  (886) 
nan

>  <PDB_ID>  (886) 
nan

>  <Standardized_SMILES>  (886) 
Nc1ncnc2c1sc1ncc(-c3ccc(C(F)(F)F)cc3)cc12

>  <Name>  (886) 
nan

>  <Pocket>  (886) 
nan

>  <ATP_Site>  (886) 
nan

>  <Peripheral>  (886) 
nan

>  <Num_H_Atoms_ProtBoundConf>  (886) 
nan

>  <Num_Resolved_Atoms>  (886) 
nan

>  <Num_Not_Resolved_Atoms>  (886) 
nan

$$$$
CHEMBL4098177
     RDKit          3D

  0  0  0  0  0  0  0  0  0  0999 V3000
M  V30 BEGIN CTAB
M  V30 COUNTS 53 56 0 0 0
M  V30 BEGIN ATOM
M  V30 1 O 2.047672 0.453156 -1.336984 0
M  V30 2 C 2.228509 1.368492 -0.474218 0
M  V30 3 N 3.565228 1.538146 -0.042192 0
M  V30 4 C 4.725257 0.815433 -0.452724 0
M  V30 5 C 4.872441 -0.530011 0.101099 0
M  V30 6 C 4.376538 -1.643070 -0.529966 0
M  V30 7 C 4.501504 -2.919185 -0.026297 0
M  V30 8 C 5.148212 -3.148530 1.168753 0
M  V30 9 C 5.647896 -2.029157 1.804806 0
M  V30 10 C 5.531422 -0.734593 1.312160 0
M  V30 11 C 1.110742 2.159864 0.006163 0
M  V30 12 C 1.169689 3.199963 0.900602 0
M  V30 13 C 0.044547 3.887196 1.297355 0
M  V30 14 C -1.187349 3.551414 0.806662 0
M  V30 15 C -1.327197 2.501135 -0.109227 0
M  V30 16 N -2.589981 2.137403 -0.637104 0
M  V30 17 C -3.068846 1.117313 -1.539438 0
M  V30 18 C -2.863588 -0.212456 -0.870388 0
M  V30 19 N -3.776645 -0.689317 -0.002747 0
M  V30 20 C -3.415573 -1.893255 0.473022 0
M  V30 21 C -4.146109 -2.703158 1.421688 0
M  V30 22 C -5.344834 -2.218118 1.903415 0
M  V30 23 C -6.097978 -2.931925 2.812778 0
M  V30 24 N -5.642921 -4.108975 3.221313 0
M  V30 25 C -4.477501 -4.572204 2.747928 0
M  V30 26 C -3.653607 -3.925504 1.833001 0
M  V30 27 C -2.387595 -4.479146 1.348046 0
M  V30 28 O -1.290823 -3.853297 1.941397 0
M  V30 29 N -2.240931 -2.153870 -0.129593 0
M  V30 30 N -1.920148 -1.149288 -0.926880 0
M  V30 31 C -0.162302 1.862267 -0.459198 0
M  V30 32 H 3.668553 2.312465 0.679404 0
M  V30 33 H 4.800269 0.770062 -1.561340 0
M  V30 34 H 5.639949 1.387771 -0.138699 0
M  V30 35 H 3.852006 -1.597428 -1.473073 0
M  V30 36 H 4.104987 -3.797928 -0.533972 0
M  V30 37 H 5.286288 -4.116363 1.627129 0
M  V30 38 H 6.165686 -2.183431 2.755216 0
M  V30 39 H 5.955286 0.073568 1.883151 0
M  V30 40 H 2.126791 3.470568 1.289955 0
M  V30 41 H 0.078367 4.697266 1.991419 0
M  V30 42 H -2.077771 4.105990 1.129249 0
M  V30 43 H -3.377044 2.766440 -0.284732 0
M  V30 44 H -4.142380 1.225933 -1.735546 0
M  V30 45 H -2.476547 1.123965 -2.494617 0
M  V30 46 H -5.739489 -1.252479 1.582361 0
M  V30 47 H -7.037175 -2.596555 3.216711 0
M  V30 48 H -4.120525 -5.552414 3.102525 0
M  V30 49 H -2.240091 -4.494824 0.267959 0
M  V30 50 H -2.350980 -5.541057 1.734826 0
M  V30 51 H -0.571310 -4.499122 2.144541 0
M  V30 52 H -1.079104 -1.083443 -1.516323 0
M  V30 53 H -0.255429 1.070309 -1.161774 0
M  V30 END ATOM
M  V30 BEGIN BOND
M  V30 1 2 1 2
M  V30 2 1 2 3
M  V30 3 1 3 4
M  V30 4 1 4 5
M  V30 5 2 5 6
M  V30 6 1 6 7
M  V30 7 2 7 8
M  V30 8 1 8 9
M  V30 9 2 9 10
M  V30 10 1 2 11
M  V30 11 2 11 12
M  V30 12 1 12 13
M  V30 13 2 13 14
M  V30 14 1 14 15
M  V30 15 1 15 16
M  V30 16 1 16 17
M  V30 17 1 17 18
M  V30 18 2 18 19
M  V30 19 1 19 20
M  V30 20 1 20 21
M  V30 21 2 21 22
M  V30 22 1 22 23
M  V30 23 2 23 24
M  V30 24 1 24 25
M  V30 25 2 25 26
M  V30 26 1 26 27
M  V30 27 1 27 28
M  V30 28 2 20 29
M  V30 29 1 29 30
M  V30 30 2 15 31
M  V30 31 1 10 5
M  V30 32 1 31 11
M  V30 33 1 30 18
M  V30 34 1 26 21
M  V30 35 1 3 32
M  V30 36 1 4 33
M  V30 37 1 4 34
M  V30 38 1 6 35
M  V30 39 1 7 36
M  V30 40 1 8 37
M  V30 41 1 9 38
M  V30 42 1 10 39
M  V30 43 1 12 40
M  V30 44 1 13 41
M  V30 45 1 14 42
M  V30 46 1 16 43
M  V30 47 1 17 44
M  V30 48 1 17 45
M  V30 49 1 22 46
M  V30 50 1 23 47
M  V30 51 1 25 48
M  V30 52 1 27 49
M  V30 53 1 27 50
M  V30 54 1 28 51
M  V30 55 1 30 52
M  V30 56 1 31 53
M  V30 END BOND
M  V30 END CTAB
M  END
>  <Dataset>  (887) 
ChEMBL_Kinases

>  <Ligand_Instance>  (887) 
nan

>  <PDB_ID>  (887) 
nan

>  <Standardized_SMILES>  (887) 
O=C(NCc1ccccc1)c1cccc(NCc2nc(-c3ccncc3CO)n[nH]2)c1

>  <Name>  (887) 
nan

>  <Pocket>  (887) 
nan

>  <ATP_Site>  (887) 
nan

>  <Peripheral>  (887) 
nan

>  <Num_H_Atoms_ProtBoundConf>  (887) 
nan

>  <Num_Resolved_Atoms>  (887) 
nan

>  <Num_Not_Resolved_Atoms>  (887) 
nan

$$$$
CHEMBL3394110
     RDKit          3D

  0  0  0  0  0  0  0  0  0  0999 V3000
M  V30 BEGIN CTAB
M  V30 COUNTS 72 76 0 0 0
M  V30 BEGIN ATOM
M  V30 1 C 4.786815 -0.906946 5.764233 0
M  V30 2 C 3.765769 -0.101244 5.079869 0
M  V30 3 O 2.757386 0.217724 5.758092 0
M  V30 4 N 3.944285 0.278328 3.721447 0
M  V30 5 C 3.107829 1.043448 2.863556 0
M  V30 6 C 2.133788 0.500110 2.070653 0
M  V30 7 C 1.318387 1.280581 1.228962 0
M  V30 8 C 0.348892 0.528082 0.484106 0
M  V30 9 C -0.983317 0.663394 0.899164 0
M  V30 10 C -1.583217 1.462357 1.967450 0
M  V30 11 C -1.163922 1.165498 3.248799 0
M  V30 12 C -1.709350 1.900387 4.293866 0
M  V30 13 C -2.636335 2.881924 3.989576 0
M  V30 14 F -3.173517 3.603779 4.995634 0
M  V30 15 C -3.055197 3.176471 2.695848 0
M  V30 16 C -2.508602 2.442615 1.668823 0
M  V30 17 N -1.660854 -0.158247 0.043304 0
M  V30 18 C -0.792685 -0.731678 -0.808854 0
M  V30 19 S -1.573523 -1.849483 -1.965903 0
M  V30 20 C -1.614698 -3.520107 -1.235309 0
M  V30 21 C -2.502651 -3.618956 -0.042278 0
M  V30 22 C -3.936432 -3.417475 -0.384268 0
M  V30 23 C -4.319877 -3.676075 -1.797958 0
M  V30 24 C -5.705648 -4.266824 -1.761791 0
M  V30 25 O -5.942342 -5.431064 -2.232667 0
M  V30 26 O -7.022739 -4.642909 -1.644248 0
M  V30 27 C -3.458896 -4.630330 -2.551205 0
M  V30 28 C -2.006802 -4.540208 -2.251610 0
M  V30 29 O -1.223254 -4.384745 -3.411099 0
M  V30 30 N 0.463967 -0.317918 -0.553366 0
M  V30 31 C 1.595380 -0.751891 -1.291246 0
M  V30 32 C 1.274779 -1.075224 -2.749803 0
M  V30 33 C 0.781659 0.081644 -3.541147 0
M  V30 34 C 1.545523 1.328445 -3.181076 0
M  V30 35 C 2.892128 0.894879 -2.711528 0
M  V30 36 C 2.769991 0.159191 -1.367264 0
M  V30 37 C 1.553733 2.664199 1.240254 0
M  V30 38 C 2.548246 3.156713 2.059061 0
M  V30 39 N 3.302039 2.370591 2.846216 0
M  V30 40 H 5.812097 -0.722188 5.382145 0
M  V30 41 H 4.571314 -1.988289 5.675683 0
M  V30 42 H 4.795993 -0.671490 6.867351 0
M  V30 43 H 4.790184 0.011127 3.153346 0
M  V30 44 H 2.036306 -0.591707 2.141265 0
M  V30 45 H -0.447506 0.401382 3.438931 0
M  V30 46 H -1.422341 1.714387 5.302114 0
M  V30 47 H -3.782368 3.954675 2.528343 0
M  V30 48 H -2.797980 2.627217 0.628833 0
M  V30 49 H -0.568229 -3.808895 -0.910442 0
M  V30 50 H -2.181660 -2.885165 0.741050 0
M  V30 51 H -2.345108 -4.615087 0.402086 0
M  V30 52 H -4.532811 -4.045859 0.327071 0
M  V30 53 H -4.192578 -2.349617 -0.124273 0
M  V30 54 H -4.452404 -2.707482 -2.335498 0
M  V30 55 H -7.771569 -3.944813 -1.523240 0
M  V30 56 H -3.866897 -5.657401 -2.443204 0
M  V30 57 H -3.588184 -4.378947 -3.643879 0
M  V30 58 H -1.687035 -5.540519 -1.835118 0
M  V30 59 H -0.289435 -4.628520 -3.260302 0
M  V30 60 H 1.979355 -1.758663 -0.905105 0
M  V30 61 H 0.718679 -2.013619 -2.880231 0
M  V30 62 H 2.297206 -1.328362 -3.185894 0
M  V30 63 H 1.037529 -0.107901 -4.628399 0
M  V30 64 H -0.281085 0.294120 -3.527579 0
M  V30 65 H 1.019095 1.960090 -2.441422 0
M  V30 66 H 1.681876 1.978724 -4.073163 0
M  V30 67 H 3.410063 0.321285 -3.475377 0
M  V30 68 H 3.489782 1.842767 -2.569459 0
M  V30 69 H 3.725880 -0.455516 -1.330193 0
M  V30 70 H 2.862527 0.942259 -0.628188 0
M  V30 71 H 0.896515 3.204745 0.575036 0
M  V30 72 H 2.648316 4.250095 1.992052 0
M  V30 END ATOM
M  V30 BEGIN BOND
M  V30 1 1 1 2
M  V30 2 2 2 3
M  V30 3 1 2 4
M  V30 4 1 4 5
M  V30 5 2 5 6
M  V30 6 1 6 7
M  V30 7 1 7 8
M  V30 8 2 8 9
M  V30 9 1 9 10
M  V30 10 2 10 11
M  V30 11 1 11 12
M  V30 12 2 12 13
M  V30 13 1 13 14
M  V30 14 1 13 15
M  V30 15 2 15 16
M  V30 16 1 9 17
M  V30 17 2 17 18
M  V30 18 1 18 19
M  V30 19 1 19 20
M  V30 20 1 20 21
M  V30 21 1 21 22
M  V30 22 1 22 23
M  V30 23 1 23 24
M  V30 24 2 24 25
M  V30 25 1 24 26
M  V30 26 1 23 27
M  V30 27 1 27 28
M  V30 28 1 28 29
M  V30 29 1 18 30
M  V30 30 1 30 31
M  V30 31 1 31 32
M  V30 32 1 32 33
M  V30 33 1 33 34
M  V30 34 1 34 35
M  V30 35 1 35 36
M  V30 36 2 7 37
M  V30 37 1 37 38
M  V30 38 2 38 39
M  V30 39 1 39 5
M  V30 40 1 30 8
M  V30 41 1 36 31
M  V30 42 1 16 10
M  V30 43 1 28 20
M  V30 44 1 1 40
M  V30 45 1 1 41
M  V30 46 1 1 42
M  V30 47 1 4 43
M  V30 48 1 6 44
M  V30 49 1 11 45
M  V30 50 1 12 46
M  V30 51 1 15 47
M  V30 52 1 16 48
M  V30 53 1 20 49
M  V30 54 1 21 50
M  V30 55 1 21 51
M  V30 56 1 22 52
M  V30 57 1 22 53
M  V30 58 1 23 54
M  V30 59 1 26 55
M  V30 60 1 27 56
M  V30 61 1 27 57
M  V30 62 1 28 58
M  V30 63 1 29 59
M  V30 64 1 31 60
M  V30 65 1 32 61
M  V30 66 1 32 62
M  V30 67 1 33 63
M  V30 68 1 33 64
M  V30 69 1 34 65
M  V30 70 1 34 66
M  V30 71 1 35 67
M  V30 72 1 35 68
M  V30 73 1 36 69
M  V30 74 1 36 70
M  V30 75 1 37 71
M  V30 76 1 38 72
M  V30 END BOND
M  V30 END CTAB
M  END
>  <Dataset>  (888) 
ChEMBL_Kinases

>  <Ligand_Instance>  (888) 
nan

>  <PDB_ID>  (888) 
nan

>  <Standardized_SMILES>  (888) 
CC(=O)Nc1cc(-c2c(-c3ccc(F)cc3)nc(SC3CCC(C(=O)O)CC3O)n2C2CCCCC2)ccn1

>  <Name>  (888) 
nan

>  <Pocket>  (888) 
nan

>  <ATP_Site>  (888) 
nan

>  <Peripheral>  (888) 
nan

>  <Num_H_Atoms_ProtBoundConf>  (888) 
nan

>  <Num_Resolved_Atoms>  (888) 
nan

>  <Num_Not_Resolved_Atoms>  (888) 
nan

$$$$
CHEMBL3394111
     RDKit          3D

  0  0  0  0  0  0  0  0  0  0999 V3000
M  V30 BEGIN CTAB
M  V30 COUNTS 59 62 0 0 0
M  V30 BEGIN ATOM
M  V30 1 C 4.974677 -3.612137 4.673246 0
M  V30 2 C 4.908473 -2.537209 3.646213 0
M  V30 3 O 5.939609 -1.828887 3.473781 0
M  V30 4 N 3.741584 -2.312288 2.890275 0
M  V30 5 C 3.662406 -1.282980 1.899639 0
M  V30 6 C 2.468119 -1.121517 1.189795 0
M  V30 7 C 2.489081 -0.098588 0.252473 0
M  V30 8 C 1.261093 0.103223 -0.510637 0
M  V30 9 C 0.553828 1.307153 -0.442240 0
M  V30 10 C 0.906705 2.499334 0.360813 0
M  V30 11 C 1.176011 3.737488 -0.188313 0
M  V30 12 C 1.498358 4.790131 0.671386 0
M  V30 13 C 1.529485 4.532639 2.022393 0
M  V30 14 F 1.845762 5.573388 2.838299 0
M  V30 15 C 1.258277 3.290711 2.557264 0
M  V30 16 C 0.932904 2.220425 1.717221 0
M  V30 17 N -0.528207 1.172654 -1.260804 0
M  V30 18 C -0.489883 -0.072659 -1.815790 0
M  V30 19 S -1.713636 -0.703676 -2.965230 0
M  V30 20 C -3.064345 -1.527233 -2.094905 0
M  V30 21 C -3.878554 -0.594620 -1.262564 0
M  V30 22 C -5.063019 -1.354708 -0.702114 0
M  V30 23 C -4.464839 -2.435981 0.193856 0
M  V30 24 C -5.440832 -3.043864 1.096156 0
M  V30 25 O -5.214247 -2.942219 2.351139 0
M  V30 26 O -6.387475 -3.631174 1.886279 0
M  V30 27 C -3.828209 -3.428292 -0.779093 0
M  V30 28 C -2.597147 -2.718614 -1.305431 0
M  V30 29 O -1.933116 -3.627885 -2.118656 0
M  V30 30 N 0.600556 -0.712736 -1.353119 0
M  V30 31 C 1.031220 -2.058333 -1.680953 0
M  V30 32 C 3.610457 0.691589 0.046915 0
M  V30 33 C 4.756632 0.469188 0.790563 0
M  V30 34 N 4.746553 -0.520128 1.701913 0
M  V30 35 H 5.812573 -3.456179 5.376329 0
M  V30 36 H 3.982336 -3.665474 5.159131 0
M  V30 37 H 5.094341 -4.565340 4.114871 0
M  V30 38 H 2.911238 -2.938132 3.080380 0
M  V30 39 H 1.604966 -1.751771 1.368330 0
M  V30 40 H 1.120597 3.821448 -1.269938 0
M  V30 41 H 1.701754 5.741772 0.200038 0
M  V30 42 H 1.295847 3.139300 3.625178 0
M  V30 43 H 0.730041 1.279214 2.160362 0
M  V30 44 H -3.741644 -1.918146 -2.898954 0
M  V30 45 H -4.286754 0.198682 -1.944055 0
M  V30 46 H -3.298802 -0.090950 -0.465226 0
M  V30 47 H -5.595524 -1.803719 -1.568450 0
M  V30 48 H -5.725531 -0.730971 -0.071372 0
M  V30 49 H -3.632225 -1.936632 0.736022 0
M  V30 50 H -7.177679 -4.148644 1.485810 0
M  V30 51 H -3.574926 -4.378762 -0.315066 0
M  V30 52 H -4.510088 -3.546223 -1.669996 0
M  V30 53 H -2.012235 -2.423188 -0.406977 0
M  V30 54 H -2.063207 -3.362397 -3.056499 0
M  V30 55 H 0.693334 -2.800918 -0.933718 0
M  V30 56 H 2.148183 -2.150529 -1.738980 0
M  V30 57 H 0.675830 -2.279347 -2.711268 0
M  V30 58 H 3.578740 1.478470 -0.696614 0
M  V30 59 H 5.649422 1.051308 0.670440 0
M  V30 END ATOM
M  V30 BEGIN BOND
M  V30 1 1 1 2
M  V30 2 2 2 3
M  V30 3 1 2 4
M  V30 4 1 4 5
M  V30 5 2 5 6
M  V30 6 1 6 7
M  V30 7 1 7 8
M  V30 8 2 8 9
M  V30 9 1 9 10
M  V30 10 2 10 11
M  V30 11 1 11 12
M  V30 12 2 12 13
M  V30 13 1 13 14
M  V30 14 1 13 15
M  V30 15 2 15 16
M  V30 16 1 9 17
M  V30 17 2 17 18
M  V30 18 1 18 19
M  V30 19 1 19 20
M  V30 20 1 20 21
M  V30 21 1 21 22
M  V30 22 1 22 23
M  V30 23 1 23 24
M  V30 24 2 24 25
M  V30 25 1 24 26
M  V30 26 1 23 27
M  V30 27 1 27 28
M  V30 28 1 28 29
M  V30 29 1 18 30
M  V30 30 1 30 31
M  V30 31 2 7 32
M  V30 32 1 32 33
M  V30 33 2 33 34
M  V30 34 1 34 5
M  V30 35 1 30 8
M  V30 36 1 16 10
M  V30 37 1 28 20
M  V30 38 1 1 35
M  V30 39 1 1 36
M  V30 40 1 1 37
M  V30 41 1 4 38
M  V30 42 1 6 39
M  V30 43 1 11 40
M  V30 44 1 12 41
M  V30 45 1 15 42
M  V30 46 1 16 43
M  V30 47 1 20 44
M  V30 48 1 21 45
M  V30 49 1 21 46
M  V30 50 1 22 47
M  V30 51 1 22 48
M  V30 52 1 23 49
M  V30 53 1 26 50
M  V30 54 1 27 51
M  V30 55 1 27 52
M  V30 56 1 28 53
M  V30 57 1 29 54
M  V30 58 1 31 55
M  V30 59 1 31 56
M  V30 60 1 31 57
M  V30 61 1 32 58
M  V30 62 1 33 59
M  V30 END BOND
M  V30 END CTAB
M  END
>  <Dataset>  (889) 
ChEMBL_Kinases

>  <Ligand_Instance>  (889) 
nan

>  <PDB_ID>  (889) 
nan

>  <Standardized_SMILES>  (889) 
CC(=O)Nc1cc(-c2c(-c3ccc(F)cc3)nc(SC3CCC(C(=O)O)CC3O)n2C)ccn1

>  <Name>  (889) 
nan

>  <Pocket>  (889) 
nan

>  <ATP_Site>  (889) 
nan

>  <Peripheral>  (889) 
nan

>  <Num_H_Atoms_ProtBoundConf>  (889) 
nan

>  <Num_Resolved_Atoms>  (889) 
nan

>  <Num_Not_Resolved_Atoms>  (889) 
nan

$$$$
CHEMBL3670407
     RDKit          3D

  0  0  0  0  0  0  0  0  0  0999 V3000
M  V30 BEGIN CTAB
M  V30 COUNTS 37 39 0 0 0
M  V30 BEGIN ATOM
M  V30 1 N -1.005804 -4.594471 4.283855 0
M  V30 2 C 0.043655 -3.668974 4.543114 0
M  V30 3 O 0.694661 -3.707171 5.606509 0
M  V30 4 C 0.365053 -2.653759 3.543831 0
M  V30 5 C 1.377300 -1.745457 3.770732 0
M  V30 6 C 1.662821 -0.789295 2.802730 0
M  V30 7 C 0.901099 -0.812155 1.658157 0
M  V30 8 C -0.115814 -1.674983 1.357667 0
M  V30 9 C -0.812798 -1.603504 0.166612 0
M  V30 10 N -0.544619 -0.622271 -0.827875 0
M  V30 11 C 0.035652 0.472625 -1.474852 0 CFG=1
M  V30 12 C -0.111076 1.824107 -0.787533 0
M  V30 13 C 0.208440 2.849485 -1.893768 0
M  V30 14 C 1.701765 2.735979 -2.103914 0
M  V30 15 N 2.248603 1.524522 -1.553987 0
M  V30 16 C 1.505824 0.349485 -1.832989 0
M  V30 17 N -1.762477 -2.539093 0.066732 0
M  V30 18 C -2.045843 -3.459704 0.983715 0
M  V30 19 N -1.322552 -3.454884 2.104346 0
M  V30 20 C -0.336721 -2.587568 2.360769 0
M  V30 21 H -2.049948 -4.559473 4.364316 0
M  V30 22 H -2.049924 -4.663580 4.327455 0
M  V30 23 H 1.897533 -1.838909 4.713374 0
M  V30 24 H 2.452308 -0.086510 2.987848 0
M  V30 25 H 1.178059 -0.052237 0.954240 0
M  V30 26 H -1.229488 -0.892422 -1.583233 0
M  V30 27 H -0.483817 0.661234 -2.479276 0
M  V30 28 H 0.690771 1.938735 -0.061660 0
M  V30 29 H -1.124308 2.039275 -0.438803 0
M  V30 30 H -0.368058 2.510007 -2.783952 0
M  V30 31 H -0.118460 3.834873 -1.566472 0
M  V30 32 H 2.163979 3.587290 -1.558277 0
M  V30 33 H 1.977934 2.812254 -3.170055 0
M  V30 34 H 3.260534 1.448080 -1.606691 0
M  V30 35 H 1.647559 0.088815 -2.901338 0
M  V30 36 H 1.916371 -0.493036 -1.252218 0
M  V30 37 H -2.850567 -4.133733 0.723861 0
M  V30 END ATOM
M  V30 BEGIN BOND
M  V30 1 1 1 2
M  V30 2 2 2 3
M  V30 3 1 2 4
M  V30 4 2 4 5
M  V30 5 1 5 6
M  V30 6 2 6 7
M  V30 7 1 7 8
M  V30 8 2 8 9
M  V30 9 1 9 10
M  V30 10 1 10 11
M  V30 11 1 11 12
M  V30 12 1 12 13
M  V30 13 1 13 14
M  V30 14 1 14 15
M  V30 15 1 15 16
M  V30 16 1 9 17
M  V30 17 2 17 18
M  V30 18 1 18 19
M  V30 19 2 19 20
M  V30 20 1 20 4
M  V30 21 1 20 8
M  V30 22 1 16 11
M  V30 23 1 1 21
M  V30 24 1 1 22
M  V30 25 1 5 23
M  V30 26 1 6 24
M  V30 27 1 7 25
M  V30 28 1 10 26
M  V30 29 1 11 27 CFG=3
M  V30 30 1 12 28
M  V30 31 1 12 29
M  V30 32 1 13 30
M  V30 33 1 13 31
M  V30 34 1 14 32
M  V30 35 1 14 33
M  V30 36 1 15 34
M  V30 37 1 16 35
M  V30 38 1 16 36
M  V30 39 1 18 37
M  V30 END BOND
M  V30 END CTAB
M  END
>  <Dataset>  (890) 
ChEMBL_Kinases

>  <Ligand_Instance>  (890) 
nan

>  <PDB_ID>  (890) 
nan

>  <Standardized_SMILES>  (890) 
NC(=O)c1cccc2c(N[C@H]3CCCNC3)ncnc12

>  <Name>  (890) 
nan

>  <Pocket>  (890) 
nan

>  <ATP_Site>  (890) 
nan

>  <Peripheral>  (890) 
nan

>  <Num_H_Atoms_ProtBoundConf>  (890) 
nan

>  <Num_Resolved_Atoms>  (890) 
nan

>  <Num_Not_Resolved_Atoms>  (890) 
nan

$$$$
CHEMBL3394112
     RDKit          3D

  0  0  0  0  0  0  0  0  0  0999 V3000
M  V30 BEGIN CTAB
M  V30 COUNTS 70 73 0 0 0
M  V30 BEGIN ATOM
M  V30 1 C 2.698100 -3.538521 2.040903 0
M  V30 2 O 3.166923 -2.543023 1.190090 0
M  V30 3 C 2.892373 -1.273159 1.647568 0
M  V30 4 C 1.900551 -0.604292 0.686263 0
M  V30 5 N 0.670986 -1.362147 0.615092 0
M  V30 6 C 0.605316 -2.323600 -0.318938 0
M  V30 7 S 1.565821 -3.063503 -1.621073 0
M  V30 8 C 1.315067 -2.273003 -3.234099 0
M  V30 9 C 1.833302 -0.900984 -3.301617 0
M  V30 10 C 0.868911 0.215238 -3.135061 0
M  V30 11 C -0.498142 -0.046610 -3.706203 0
M  V30 12 C -0.966077 1.057746 -4.597747 0
M  V30 13 O -1.281431 1.041366 -5.799736 0
M  V30 14 O -1.059384 2.291279 -3.976290 0
M  V30 15 C -0.552171 -1.324230 -4.513103 0
M  V30 16 C -0.154115 -2.417704 -3.545657 0
M  V30 17 O -0.365695 -3.631494 -4.193435 0
M  V30 18 N -0.629126 -2.891467 -0.187876 0
M  V30 19 C -1.312370 -2.286772 0.813313 0
M  V30 20 C -2.652009 -2.525210 1.337357 0
M  V30 21 C -3.663063 -1.608072 1.314748 0
M  V30 22 C -4.906245 -1.954777 1.848000 0
M  V30 23 C -5.040558 -3.218522 2.372262 0
M  V30 24 F -6.276502 -3.514076 2.884556 0
M  V30 25 C -4.053013 -4.168009 2.414821 0
M  V30 26 C -2.822933 -3.785515 1.872174 0
M  V30 27 C -0.473049 -1.313891 1.317244 0
M  V30 28 C -0.695374 -0.368694 2.403340 0
M  V30 29 C -0.892820 -0.851794 3.691328 0
M  V30 30 C -1.096322 0.102957 4.655077 0
M  V30 31 N -1.110563 1.422917 4.409982 0
M  V30 32 C -0.924516 1.933663 3.183258 0
M  V30 33 N -0.954538 3.336101 3.009151 0
M  V30 34 C -0.791156 4.112140 1.847531 0
M  V30 35 C -0.848189 5.594441 1.812471 0
M  V30 36 O -0.582172 3.525644 0.758397 0
M  V30 37 C -0.721953 0.995812 2.219992 0
M  V30 38 O 4.003788 -0.469479 1.796038 0
M  V30 39 C 4.185853 -0.014608 3.085976 0
M  V30 40 H 1.612360 -3.522425 2.199405 0
M  V30 41 H 3.285178 -3.501784 3.002577 0
M  V30 42 H 2.944857 -4.516647 1.578705 0
M  V30 43 H 2.345967 -1.404124 2.616675 0
M  V30 44 H 1.704799 0.430911 1.096224 0
M  V30 45 H 2.365415 -0.414384 -0.296857 0
M  V30 46 H 1.854029 -2.936460 -3.952914 0
M  V30 47 H 2.681724 -0.771747 -2.611904 0
M  V30 48 H 2.305127 -0.759645 -4.320656 0
M  V30 49 H 0.729521 0.494765 -2.070405 0
M  V30 50 H 1.239098 1.135872 -3.637057 0
M  V30 51 H -1.249302 -0.140094 -2.897342 0
M  V30 52 H -1.329661 3.135214 -4.491001 0
M  V30 53 H 0.099589 -1.347875 -5.382918 0
M  V30 54 H -1.626890 -1.477125 -4.758861 0
M  V30 55 H -0.717157 -2.353272 -2.593294 0
M  V30 56 H -1.225409 -4.045932 -3.930979 0
M  V30 57 H -3.453881 -0.643405 0.881278 0
M  V30 58 H -5.708334 -1.226987 1.830559 0
M  V30 59 H -4.246690 -5.155617 2.853973 0
M  V30 60 H -2.041254 -4.543185 1.909019 0
M  V30 61 H -0.887004 -1.905470 3.921674 0
M  V30 62 H -1.262468 -0.160507 5.696779 0
M  V30 63 H -1.123029 3.940487 3.850114 0
M  V30 64 H -1.233021 5.975644 0.855272 0
M  V30 65 H -1.478143 5.952156 2.659871 0
M  V30 66 H 0.174332 6.013247 1.944341 0
M  V30 67 H -0.562401 1.298788 1.198451 0
M  V30 68 H 3.322281 0.598751 3.467870 0
M  V30 69 H 4.327750 -0.831666 3.834477 0
M  V30 70 H 5.050884 0.692047 3.069332 0
M  V30 END ATOM
M  V30 BEGIN BOND
M  V30 1 1 1 2
M  V30 2 1 2 3
M  V30 3 1 3 4
M  V30 4 1 4 5
M  V30 5 1 5 6
M  V30 6 1 6 7
M  V30 7 1 7 8
M  V30 8 1 8 9
M  V30 9 1 9 10
M  V30 10 1 10 11
M  V30 11 1 11 12
M  V30 12 2 12 13
M  V30 13 1 12 14
M  V30 14 1 11 15
M  V30 15 1 15 16
M  V30 16 1 16 17
M  V30 17 2 6 18
M  V30 18 1 18 19
M  V30 19 1 19 20
M  V30 20 2 20 21
M  V30 21 1 21 22
M  V30 22 2 22 23
M  V30 23 1 23 24
M  V30 24 1 23 25
M  V30 25 2 25 26
M  V30 26 2 19 27
M  V30 27 1 27 28
M  V30 28 2 28 29
M  V30 29 1 29 30
M  V30 30 2 30 31
M  V30 31 1 31 32
M  V30 32 1 32 33
M  V30 33 1 33 34
M  V30 34 1 34 35
M  V30 35 2 34 36
M  V30 36 2 32 37
M  V30 37 1 3 38
M  V30 38 1 38 39
M  V30 39 1 27 5
M  V30 40 1 37 28
M  V30 41 1 16 8
M  V30 42 1 26 20
M  V30 43 1 1 40
M  V30 44 1 1 41
M  V30 45 1 1 42
M  V30 46 1 3 43
M  V30 47 1 4 44
M  V30 48 1 4 45
M  V30 49 1 8 46
M  V30 50 1 9 47
M  V30 51 1 9 48
M  V30 52 1 10 49
M  V30 53 1 10 50
M  V30 54 1 11 51
M  V30 55 1 14 52
M  V30 56 1 15 53
M  V30 57 1 15 54
M  V30 58 1 16 55
M  V30 59 1 17 56
M  V30 60 1 21 57
M  V30 61 1 22 58
M  V30 62 1 25 59
M  V30 63 1 26 60
M  V30 64 1 29 61
M  V30 65 1 30 62
M  V30 66 1 33 63
M  V30 67 1 35 64
M  V30 68 1 35 65
M  V30 69 1 35 66
M  V30 70 1 37 67
M  V30 71 1 39 68
M  V30 72 1 39 69
M  V30 73 1 39 70
M  V30 END BOND
M  V30 END CTAB
M  END
>  <Dataset>  (891) 
ChEMBL_Kinases

>  <Ligand_Instance>  (891) 
nan

>  <PDB_ID>  (891) 
nan

>  <Standardized_SMILES>  (891) 
COC(Cn1c(SC2CCC(C(=O)O)CC2O)nc(-c2ccc(F)cc2)c1-c1ccnc(NC(C)=O)c1)OC

>  <Name>  (891) 
nan

>  <Pocket>  (891) 
nan

>  <ATP_Site>  (891) 
nan

>  <Peripheral>  (891) 
nan

>  <Num_H_Atoms_ProtBoundConf>  (891) 
nan

>  <Num_Resolved_Atoms>  (891) 
nan

>  <Num_Not_Resolved_Atoms>  (891) 
nan

$$$$
CHEMBL3394113
     RDKit          3D

  0  0  0  0  0  0  0  0  0  0999 V3000
M  V30 BEGIN CTAB
M  V30 COUNTS 70 74 0 0 0
M  V30 BEGIN ATOM
M  V30 1 C 5.851757 2.867143 3.145693 0
M  V30 2 C 4.366495 2.699272 3.090738 0
M  V30 3 O 4.083353 1.489284 3.411367 0
M  V30 4 N 3.277645 3.593866 2.765158 0
M  V30 5 C 2.158680 2.729822 2.933049 0
M  V30 6 C 1.717583 2.036173 1.831210 0
M  V30 7 C 0.676785 1.162266 1.830114 0
M  V30 8 C 0.010366 0.319688 0.866196 0
M  V30 9 C -1.297732 0.721093 0.535899 0
M  V30 10 C -2.094278 1.881607 0.989548 0
M  V30 11 C -3.258110 1.658222 1.690051 0
M  V30 12 C -4.046405 2.665877 2.156646 0
M  V30 13 C -3.647123 3.986462 1.906177 0
M  V30 14 F -4.344945 5.066168 2.318175 0
M  V30 15 C -2.480960 4.163828 1.202707 0
M  V30 16 C -1.653575 3.180867 0.713029 0
M  V30 17 N -1.858430 -0.165056 -0.350469 0
M  V30 18 C -0.897890 -1.086993 -0.549033 0
M  V30 19 S -1.099869 -2.494105 -1.628393 0
M  V30 20 C -1.779877 -3.918379 -0.745540 0
M  V30 21 C -3.194500 -3.682616 -0.271449 0
M  V30 22 C -4.147577 -3.502236 -1.405113 0
M  V30 23 C -3.731282 -4.142827 -2.684606 0
M  V30 24 C -4.988293 -4.657345 -3.341654 0
M  V30 25 O -5.192764 -5.885936 -3.607784 0
M  V30 26 O -6.112938 -3.961893 -3.768695 0
M  V30 27 C -2.816277 -5.310158 -2.556451 0
M  V30 28 C -1.737675 -5.171016 -1.551120 0
M  V30 29 O -1.794928 -6.275082 -0.678758 0
M  V30 30 N 0.208674 -0.809189 0.163910 0
M  V30 31 C 1.377837 -1.598881 0.243942 0
M  V30 32 C 2.361100 -1.468271 -0.885910 0
M  V30 33 C 2.927745 -0.134808 -1.152314 0
M  V30 34 C 4.270249 -0.181983 -0.435343 0
M  V30 35 C 4.606682 -1.646115 -0.670712 0
M  V30 36 O 3.425036 -2.356145 -0.714651 0
M  V30 37 C 0.100129 1.054296 3.108727 0
M  V30 38 C 0.485523 1.714775 4.258197 0
M  V30 39 N 1.530639 2.547635 4.108417 0
M  V30 40 H 6.332664 2.050883 2.535570 0
M  V30 41 H 6.194847 2.730604 4.176204 0
M  V30 42 H 6.171824 3.885251 2.811356 0
M  V30 43 H 3.674976 4.506976 2.535093 0
M  V30 44 H 2.182526 2.159528 0.889234 0
M  V30 45 H -3.619189 0.643341 1.916596 0
M  V30 46 H -4.968005 2.564618 2.711648 0
M  V30 47 H -2.115634 5.178444 0.976300 0
M  V30 48 H -0.743217 3.363081 0.164911 0
M  V30 49 H -1.181465 -4.109938 0.188131 0
M  V30 50 H -3.445535 -4.578994 0.366859 0
M  V30 51 H -3.160772 -2.778822 0.380353 0
M  V30 52 H -5.164652 -3.839899 -1.065175 0
M  V30 53 H -4.249021 -2.390227 -1.590108 0
M  V30 54 H -3.292718 -3.433269 -3.421120 0
M  V30 55 H -6.504514 -4.090261 -4.696915 0
M  V30 56 H -3.461861 -6.211312 -2.342448 0
M  V30 57 H -2.418608 -5.502732 -3.595140 0
M  V30 58 H -0.757493 -5.294589 -2.097499 0
M  V30 59 H -1.590926 -5.964261 0.238120 0
M  V30 60 H 1.027289 -2.676720 0.183390 0
M  V30 61 H 1.882215 -1.570032 1.240109 0
M  V30 62 H 1.820133 -1.839291 -1.807605 0
M  V30 63 H 3.155966 -0.013750 -2.259006 0
M  V30 64 H 2.380094 0.743012 -0.876015 0
M  V30 65 H 4.204687 0.077721 0.617722 0
M  V30 66 H 4.996817 0.430316 -0.989456 0
M  V30 67 H 5.224111 -1.768903 -1.586627 0
M  V30 68 H 5.192641 -1.991398 0.202640 0
M  V30 69 H -0.759289 0.394690 3.319231 0
M  V30 70 H 0.013033 1.602303 5.221203 0
M  V30 END ATOM
M  V30 BEGIN BOND
M  V30 1 1 1 2
M  V30 2 2 2 3
M  V30 3 1 2 4
M  V30 4 1 4 5
M  V30 5 2 5 6
M  V30 6 1 6 7
M  V30 7 1 7 8
M  V30 8 2 8 9
M  V30 9 1 9 10
M  V30 10 2 10 11
M  V30 11 1 11 12
M  V30 12 2 12 13
M  V30 13 1 13 14
M  V30 14 1 13 15
M  V30 15 2 15 16
M  V30 16 1 9 17
M  V30 17 2 17 18
M  V30 18 1 18 19
M  V30 19 1 19 20
M  V30 20 1 20 21
M  V30 21 1 21 22
M  V30 22 1 22 23
M  V30 23 1 23 24
M  V30 24 2 24 25
M  V30 25 1 24 26
M  V30 26 1 23 27
M  V30 27 1 27 28
M  V30 28 1 28 29
M  V30 29 1 18 30
M  V30 30 1 30 31
M  V30 31 1 31 32
M  V30 32 1 32 33
M  V30 33 1 33 34
M  V30 34 1 34 35
M  V30 35 1 35 36
M  V30 36 2 7 37
M  V30 37 1 37 38
M  V30 38 2 38 39
M  V30 39 1 39 5
M  V30 40 1 30 8
M  V30 41 1 36 32
M  V30 42 1 16 10
M  V30 43 1 28 20
M  V30 44 1 1 40
M  V30 45 1 1 41
M  V30 46 1 1 42
M  V30 47 1 4 43
M  V30 48 1 6 44
M  V30 49 1 11 45
M  V30 50 1 12 46
M  V30 51 1 15 47
M  V30 52 1 16 48
M  V30 53 1 20 49
M  V30 54 1 21 50
M  V30 55 1 21 51
M  V30 56 1 22 52
M  V30 57 1 22 53
M  V30 58 1 23 54
M  V30 59 1 26 55
M  V30 60 1 27 56
M  V30 61 1 27 57
M  V30 62 1 28 58
M  V30 63 1 29 59
M  V30 64 1 31 60
M  V30 65 1 31 61
M  V30 66 1 32 62
M  V30 67 1 33 63
M  V30 68 1 33 64
M  V30 69 1 34 65
M  V30 70 1 34 66
M  V30 71 1 35 67
M  V30 72 1 35 68
M  V30 73 1 37 69
M  V30 74 1 38 70
M  V30 END BOND
M  V30 END CTAB
M  END
>  <Dataset>  (892) 
ChEMBL_Kinases

>  <Ligand_Instance>  (892) 
nan

>  <PDB_ID>  (892) 
nan

>  <Standardized_SMILES>  (892) 
CC(=O)Nc1cc(-c2c(-c3ccc(F)cc3)nc(SC3CCC(C(=O)O)CC3O)n2CC2CCCO2)ccn1

>  <Name>  (892) 
nan

>  <Pocket>  (892) 
nan

>  <ATP_Site>  (892) 
nan

>  <Peripheral>  (892) 
nan

>  <Num_H_Atoms_ProtBoundConf>  (892) 
nan

>  <Num_Resolved_Atoms>  (892) 
nan

>  <Num_Not_Resolved_Atoms>  (892) 
nan

$$$$
CHEMBL3670406
     RDKit          3D

  0  0  0  0  0  0  0  0  0  0999 V3000
M  V30 BEGIN CTAB
M  V30 COUNTS 37 39 0 0 0
M  V30 BEGIN ATOM
M  V30 1 N -1.907643 -4.843622 3.571508 0
M  V30 2 C -0.568936 -4.467448 3.871506 0
M  V30 3 O 0.032143 -5.025036 4.825296 0
M  V30 4 C 0.105313 -3.444714 3.083142 0
M  V30 5 C 1.410192 -3.104567 3.406261 0
M  V30 6 C 2.021022 -2.121873 2.628609 0
M  V30 7 C 1.330601 -1.547461 1.606747 0
M  V30 8 C 0.052560 -1.852817 1.259157 0
M  V30 9 C -0.561934 -1.214771 0.203957 0
M  V30 10 N 0.027118 -0.214625 -0.595648 0
M  V30 11 C 1.058022 0.667612 -1.010337 0
M  V30 12 C 1.390977 1.751307 -0.013434 0
M  V30 13 C 0.584800 3.029796 -0.262406 0
M  V30 14 C 0.953114 3.469051 -1.663289 0
M  V30 15 N 0.329535 2.483991 -2.534277 0
M  V30 16 C 0.948592 1.191587 -2.419414 0
M  V30 17 N -1.820176 -1.627943 -0.014989 0
M  V30 18 C -2.436946 -2.564986 0.707356 0
M  V30 19 N -1.784554 -3.142364 1.715053 0
M  V30 20 C -0.533068 -2.824716 2.038058 0
M  V30 21 H -2.813789 -4.402892 3.891609 0
M  V30 22 H -2.216221 -5.654205 2.957706 0
M  V30 23 H 1.945299 -3.566915 4.217646 0
M  V30 24 H 3.044603 -1.867735 2.896316 0
M  V30 25 H 1.878122 -0.811251 1.068857 0
M  V30 26 H -0.674120 0.102686 -1.313549 0
M  V30 27 H 2.001298 0.026918 -1.055382 0
M  V30 28 H 2.470015 1.994178 -0.090155 0
M  V30 29 H 1.083961 1.431160 1.008158 0
M  V30 30 H -0.478501 2.725688 -0.277806 0
M  V30 31 H 0.839112 3.745852 0.512233 0
M  V30 32 H 2.052695 3.520895 -1.816889 0
M  V30 33 H 0.554364 4.467262 -1.911052 0
M  V30 34 H 0.513653 2.820987 -3.505057 0
M  V30 35 H 0.303463 0.484761 -2.987412 0
M  V30 36 H 1.917626 1.215030 -2.956667 0
M  V30 37 H -3.454669 -2.785243 0.401556 0
M  V30 END ATOM
M  V30 BEGIN BOND
M  V30 1 1 1 2
M  V30 2 2 2 3
M  V30 3 1 2 4
M  V30 4 2 4 5
M  V30 5 1 5 6
M  V30 6 2 6 7
M  V30 7 1 7 8
M  V30 8 2 8 9
M  V30 9 1 9 10
M  V30 10 1 10 11
M  V30 11 1 11 12
M  V30 12 1 12 13
M  V30 13 1 13 14
M  V30 14 1 14 15
M  V30 15 1 15 16
M  V30 16 1 9 17
M  V30 17 2 17 18
M  V30 18 1 18 19
M  V30 19 2 19 20
M  V30 20 1 20 4
M  V30 21 1 20 8
M  V30 22 1 16 11
M  V30 23 1 1 21
M  V30 24 1 1 22
M  V30 25 1 5 23
M  V30 26 1 6 24
M  V30 27 1 7 25
M  V30 28 1 10 26
M  V30 29 1 11 27
M  V30 30 1 12 28
M  V30 31 1 12 29
M  V30 32 1 13 30
M  V30 33 1 13 31
M  V30 34 1 14 32
M  V30 35 1 14 33
M  V30 36 1 15 34
M  V30 37 1 16 35
M  V30 38 1 16 36
M  V30 39 1 18 37
M  V30 END BOND
M  V30 END CTAB
M  END
>  <Dataset>  (893) 
ChEMBL_Kinases

>  <Ligand_Instance>  (893) 
nan

>  <PDB_ID>  (893) 
nan

>  <Standardized_SMILES>  (893) 
NC(=O)c1cccc2c(NC3CCCNC3)ncnc12

>  <Name>  (893) 
nan

>  <Pocket>  (893) 
nan

>  <ATP_Site>  (893) 
nan

>  <Peripheral>  (893) 
nan

>  <Num_H_Atoms_ProtBoundConf>  (893) 
nan

>  <Num_Resolved_Atoms>  (893) 
nan

>  <Num_Not_Resolved_Atoms>  (893) 
nan

$$$$
CHEMBL3394114
     RDKit          3D

  0  0  0  0  0  0  0  0  0  0999 V3000
M  V30 BEGIN CTAB
M  V30 COUNTS 56 59 0 0 0
M  V30 BEGIN ATOM
M  V30 1 C 4.929625 -2.545046 3.698657 0
M  V30 2 C 5.296981 -2.577111 2.218513 0
M  V30 3 O 4.429241 -1.778777 1.455106 0
M  V30 4 C 4.508202 -1.606560 0.081273 0
M  V30 5 O 5.414271 -2.197855 -0.552175 0
M  V30 6 C 3.551418 -0.750563 -0.612670 0
M  V30 7 C 3.665195 -0.614995 -1.926153 0
M  V30 8 S 2.452193 0.453984 -2.709236 0
M  V30 9 C 0.976695 0.568951 -1.700369 0
M  V30 10 N 1.032108 1.586406 -0.798670 0
M  V30 11 C -0.115083 1.604848 -0.081357 0
M  V30 12 C -0.632390 2.436444 0.997154 0
M  V30 13 C 0.076757 2.247200 2.190809 0
M  V30 14 C -0.228497 2.932980 3.361224 0
M  V30 15 C -1.269730 3.837404 3.354747 0
M  V30 16 F -1.642264 4.552543 4.444420 0
M  V30 17 C -1.954680 4.014915 2.186962 0
M  V30 18 C -1.666924 3.345891 1.020475 0
M  V30 19 C -0.892041 0.570781 -0.557883 0
M  V30 20 C -2.204518 -0.014298 -0.295663 0
M  V30 21 C -3.395200 0.639181 -0.518638 0
M  V30 22 C -4.549423 -0.043299 -0.219550 0
M  V30 23 N -4.575427 -1.285297 0.267302 0
M  V30 24 C -3.445572 -1.967418 0.503082 0
M  V30 25 N -3.562342 -3.281420 1.019443 0
M  V30 26 C -2.580191 -4.223136 1.357557 0
M  V30 27 C -2.826732 -5.578295 1.893859 0
M  V30 28 O -1.378510 -3.920295 1.203397 0
M  V30 29 C -2.299252 -1.307600 0.213178 0
M  V30 30 N -0.212410 -0.061677 -1.554332 0
M  V30 31 C -0.389664 -1.174391 -2.469375 0
M  V30 32 C -1.697872 -1.521998 -3.044551 0
M  V30 33 C -0.705285 -0.845834 -3.919118 0
M  V30 34 H 4.679501 -3.530028 4.101810 0
M  V30 35 H 5.716042 -2.066070 4.313136 0
M  V30 36 H 4.026056 -1.909891 3.830640 0
M  V30 37 H 5.281392 -3.659514 1.921790 0
M  V30 38 H 6.313951 -2.148964 2.136187 0
M  V30 39 H 2.775474 -0.247625 -0.051101 0
M  V30 40 H 4.434943 -1.111338 -2.500981 0
M  V30 41 H 0.923905 1.553975 2.314775 0
M  V30 42 H 0.305369 2.795998 4.276303 0
M  V30 43 H -2.796963 4.702067 2.057047 0
M  V30 44 H -2.154404 3.430226 0.060525 0
M  V30 45 H -3.387780 1.643374 -0.915142 0
M  V30 46 H -5.525283 0.420096 -0.373747 0
M  V30 47 H -4.529091 -3.682203 1.205108 0
M  V30 48 H -2.702510 -6.350503 1.098136 0
M  V30 49 H -2.223410 -5.849485 2.763261 0
M  V30 50 H -3.899920 -5.656609 2.213618 0
M  V30 51 H -1.354320 -1.800446 0.380232 0
M  V30 52 H 0.328953 -2.017181 -2.306656 0
M  V30 53 H -2.616481 -0.959083 -2.807492 0
M  V30 54 H -1.911042 -2.608989 -3.213139 0
M  V30 55 H -0.893259 0.227745 -4.167708 0
M  V30 56 H -0.276300 -1.477081 -4.721173 0
M  V30 END ATOM
M  V30 BEGIN BOND
M  V30 1 1 1 2
M  V30 2 1 2 3
M  V30 3 1 3 4
M  V30 4 2 4 5
M  V30 5 1 4 6
M  V30 6 2 6 7
M  V30 7 1 7 8
M  V30 8 1 8 9
M  V30 9 2 9 10
M  V30 10 1 10 11
M  V30 11 1 11 12
M  V30 12 2 12 13
M  V30 13 1 13 14
M  V30 14 2 14 15
M  V30 15 1 15 16
M  V30 16 1 15 17
M  V30 17 2 17 18
M  V30 18 2 11 19
M  V30 19 1 19 20
M  V30 20 2 20 21
M  V30 21 1 21 22
M  V30 22 2 22 23
M  V30 23 1 23 24
M  V30 24 1 24 25
M  V30 25 1 25 26
M  V30 26 1 26 27
M  V30 27 2 26 28
M  V30 28 2 24 29
M  V30 29 1 19 30
M  V30 30 1 30 31
M  V30 31 1 31 32
M  V30 32 1 32 33
M  V30 33 1 30 9
M  V30 34 1 33 31
M  V30 35 1 18 12
M  V30 36 1 29 20
M  V30 37 1 1 34
M  V30 38 1 1 35
M  V30 39 1 1 36
M  V30 40 1 2 37
M  V30 41 1 2 38
M  V30 42 1 6 39
M  V30 43 1 7 40
M  V30 44 1 13 41
M  V30 45 1 14 42
M  V30 46 1 17 43
M  V30 47 1 18 44
M  V30 48 1 21 45
M  V30 49 1 22 46
M  V30 50 1 25 47
M  V30 51 1 27 48
M  V30 52 1 27 49
M  V30 53 1 27 50
M  V30 54 1 29 51
M  V30 55 1 31 52
M  V30 56 1 32 53
M  V30 57 1 32 54
M  V30 58 1 33 55
M  V30 59 1 33 56
M  V30 END BOND
M  V30 END CTAB
M  END
>  <Dataset>  (894) 
ChEMBL_Kinases

>  <Ligand_Instance>  (894) 
nan

>  <PDB_ID>  (894) 
nan

>  <Standardized_SMILES>  (894) 
CCOC(=O)/C=C/Sc1nc(-c2ccc(F)cc2)c(-c2ccnc(NC(C)=O)c2)n1C1CC1

>  <Name>  (894) 
nan

>  <Pocket>  (894) 
nan

>  <ATP_Site>  (894) 
nan

>  <Peripheral>  (894) 
nan

>  <Num_H_Atoms_ProtBoundConf>  (894) 
nan

>  <Num_Resolved_Atoms>  (894) 
nan

>  <Num_Not_Resolved_Atoms>  (894) 
nan

$$$$
CHEMBL3394115
     RDKit          3D

  0  0  0  0  0  0  0  0  0  0999 V3000
M  V30 BEGIN CTAB
M  V30 COUNTS 63 65 0 0 0
M  V30 BEGIN ATOM
M  V30 1 C 6.430123 -1.342233 4.005653 0
M  V30 2 C 5.912364 -2.024296 2.746858 0
M  V30 3 O 5.188358 -1.093296 1.987587 0
M  V30 4 C 5.725197 0.081490 1.480894 0
M  V30 5 O 6.925200 0.390313 1.677392 0
M  V30 6 C 4.808534 0.937864 0.704430 0
M  V30 7 C 3.555570 0.645875 0.481908 0
M  V30 8 S 2.545577 1.760685 -0.472017 0
M  V30 9 C 0.794569 1.394417 -0.236072 0
M  V30 10 N 0.069306 1.971914 0.748237 0
M  V30 11 C -1.209550 1.500464 0.672009 0
M  V30 12 C -2.347192 1.836271 1.519747 0
M  V30 13 C -2.648530 3.194418 1.355006 0
M  V30 14 C -3.707419 3.777830 2.063067 0
M  V30 15 C -4.453184 3.002181 2.926569 0
M  V30 16 F -5.495063 3.502775 3.645740 0
M  V30 17 C -4.137959 1.667316 3.072747 0
M  V30 18 C -3.097250 1.086971 2.378925 0
M  V30 19 C -1.243122 0.619112 -0.386684 0
M  V30 20 C -2.313071 -0.180317 -0.935999 0
M  V30 21 C -2.700622 0.193807 -2.219488 0
M  V30 22 C -3.715488 -0.515361 -2.829487 0
M  V30 23 N -4.381859 -1.552789 -2.298777 0
M  V30 24 C -3.994000 -1.906673 -1.048301 0
M  V30 25 N -4.560232 -2.967075 -0.308999 0
M  V30 26 C -5.589735 -3.249887 0.607290 0
M  V30 27 C -5.773185 -4.629933 1.117155 0
M  V30 28 O -6.326012 -2.279397 0.957218 0
M  V30 29 C -2.980887 -1.240112 -0.371727 0
M  V30 30 N -0.014807 0.562564 -0.933148 0
M  V30 31 C 0.521076 -0.174357 -2.041091 0
M  V30 32 C 1.074480 -1.527469 -1.663263 0
M  V30 33 O 0.102461 -2.341157 -1.098756 0
M  V30 34 C 0.533272 -2.840976 0.104837 0
M  V30 35 O 1.499832 -2.142570 -2.840328 0
M  V30 36 C 2.869278 -2.444428 -2.733694 0
M  V30 37 H 5.678688 -0.596322 4.359711 0
M  V30 38 H 7.336498 -0.775781 3.698049 0
M  V30 39 H 6.668542 -2.068354 4.802788 0
M  V30 40 H 5.197042 -2.799294 3.099698 0
M  V30 41 H 6.769351 -2.461591 2.194828 0
M  V30 42 H 5.222882 1.854810 0.307208 0
M  V30 43 H 3.161578 -0.285852 0.893646 0
M  V30 44 H -2.151359 3.932893 0.711366 0
M  V30 45 H -3.989942 4.807183 1.983626 0
M  V30 46 H -4.687035 1.017332 3.732449 0
M  V30 47 H -2.760981 0.065622 2.414041 0
M  V30 48 H -2.276909 1.002793 -2.798422 0
M  V30 49 H -4.044376 -0.244874 -3.842232 0
M  V30 50 H -3.951771 -3.755446 -0.600888 0
M  V30 51 H -5.989865 -4.541916 2.202519 0
M  V30 52 H -4.874161 -5.204720 0.893499 0
M  V30 53 H -6.683190 -5.049086 0.601394 0
M  V30 54 H -2.652282 -1.499754 0.617665 0
M  V30 55 H -0.314191 -0.380091 -2.751851 0
M  V30 56 H 1.276743 0.363996 -2.615711 0
M  V30 57 H 1.973913 -1.473356 -1.007648 0
M  V30 58 H 0.770385 -2.066818 0.858240 0
M  V30 59 H 1.452089 -3.467937 0.003755 0
M  V30 60 H -0.322349 -3.456273 0.506948 0
M  V30 61 H 3.443810 -1.509829 -2.573104 0
M  V30 62 H 2.993017 -3.096251 -1.839741 0
M  V30 63 H 3.232376 -2.917590 -3.666978 0
M  V30 END ATOM
M  V30 BEGIN BOND
M  V30 1 1 1 2
M  V30 2 1 2 3
M  V30 3 1 3 4
M  V30 4 2 4 5
M  V30 5 1 4 6
M  V30 6 2 6 7
M  V30 7 1 7 8
M  V30 8 1 8 9
M  V30 9 2 9 10
M  V30 10 1 10 11
M  V30 11 1 11 12
M  V30 12 2 12 13
M  V30 13 1 13 14
M  V30 14 2 14 15
M  V30 15 1 15 16
M  V30 16 1 15 17
M  V30 17 2 17 18
M  V30 18 2 11 19
M  V30 19 1 19 20
M  V30 20 2 20 21
M  V30 21 1 21 22
M  V30 22 2 22 23
M  V30 23 1 23 24
M  V30 24 1 24 25
M  V30 25 1 25 26
M  V30 26 1 26 27
M  V30 27 2 26 28
M  V30 28 2 24 29
M  V30 29 1 19 30
M  V30 30 1 30 31
M  V30 31 1 31 32
M  V30 32 1 32 33
M  V30 33 1 33 34
M  V30 34 1 32 35
M  V30 35 1 35 36
M  V30 36 1 30 9
M  V30 37 1 18 12
M  V30 38 1 29 20
M  V30 39 1 1 37
M  V30 40 1 1 38
M  V30 41 1 1 39
M  V30 42 1 2 40
M  V30 43 1 2 41
M  V30 44 1 6 42
M  V30 45 1 7 43
M  V30 46 1 13 44
M  V30 47 1 14 45
M  V30 48 1 17 46
M  V30 49 1 18 47
M  V30 50 1 21 48
M  V30 51 1 22 49
M  V30 52 1 25 50
M  V30 53 1 27 51
M  V30 54 1 27 52
M  V30 55 1 27 53
M  V30 56 1 29 54
M  V30 57 1 31 55
M  V30 58 1 31 56
M  V30 59 1 32 57
M  V30 60 1 34 58
M  V30 61 1 34 59
M  V30 62 1 34 60
M  V30 63 1 36 61
M  V30 64 1 36 62
M  V30 65 1 36 63
M  V30 END BOND
M  V30 END CTAB
M  END
>  <Dataset>  (895) 
ChEMBL_Kinases

>  <Ligand_Instance>  (895) 
nan

>  <PDB_ID>  (895) 
nan

>  <Standardized_SMILES>  (895) 
CCOC(=O)/C=C/Sc1nc(-c2ccc(F)cc2)c(-c2ccnc(NC(C)=O)c2)n1CC(OC)OC

>  <Name>  (895) 
nan

>  <Pocket>  (895) 
nan

>  <ATP_Site>  (895) 
nan

>  <Peripheral>  (895) 
nan

>  <Num_H_Atoms_ProtBoundConf>  (895) 
nan

>  <Num_Resolved_Atoms>  (895) 
nan

>  <Num_Not_Resolved_Atoms>  (895) 
nan

$$$$
CHEMBL3394116
     RDKit          3D

  0  0  0  0  0  0  0  0  0  0999 V3000
M  V30 BEGIN CTAB
M  V30 COUNTS 59 62 0 0 0
M  V30 BEGIN ATOM
M  V30 1 C 7.116307 -1.491088 2.318934 0
M  V30 2 C 6.460138 -0.166153 2.627515 0
M  V30 3 O 5.296089 0.062721 1.860312 0
M  V30 4 C 5.265740 0.112812 0.482734 0
M  V30 5 O 6.284340 -0.044855 -0.192831 0
M  V30 6 C 3.971658 0.361094 -0.149118 0
M  V30 7 C 3.875063 0.419042 -1.479065 0
M  V30 8 S 2.341282 0.715680 -2.301802 0
M  V30 9 C 0.909223 0.585720 -1.255124 0
M  V30 10 N 0.432423 1.604263 -0.529912 0
M  V30 11 C -0.685595 1.130718 0.088881 0
M  V30 12 C -1.426702 2.035276 0.960351 0
M  V30 13 C -0.820366 2.590576 2.064413 0
M  V30 14 C -1.571809 3.439691 2.853505 0
M  V30 15 C -2.902795 3.767159 2.599793 0
M  V30 16 F -3.624131 4.595826 3.376062 0
M  V30 17 C -3.414612 3.162132 1.476519 0
M  V30 18 C -2.739347 2.310210 0.643078 0
M  V30 19 C -0.824407 -0.184757 -0.308939 0
M  V30 20 C -1.999460 -0.855880 0.279034 0
M  V30 21 C -1.969784 -1.008121 1.674083 0
M  V30 22 C -3.035432 -1.630127 2.334866 0
M  V30 23 N -4.093801 -2.081001 1.597770 0
M  V30 24 C -4.077326 -1.911016 0.249421 0
M  V30 25 N -5.231247 -2.418705 -0.415992 0
M  V30 26 C -4.955893 -3.791408 -0.754855 0
M  V30 27 C -5.842377 -4.760347 -1.458024 0
M  V30 28 O -3.854007 -4.344985 -0.465690 0
M  V30 29 C -3.059562 -1.307422 -0.458828 0
M  V30 30 N 0.185711 -0.537604 -1.162674 0
M  V30 31 C 0.109291 -1.864017 -1.652908 0
M  V30 32 C 0.708042 -2.950514 -0.835994 0
M  V30 33 C 2.209665 -2.928831 -0.513546 0
M  V30 34 C 1.214681 -2.714210 0.535400 0
M  V30 35 H 8.219871 -1.282957 2.318968 0
M  V30 36 H 6.762305 -1.787748 1.307334 0
M  V30 37 H 6.837146 -2.295264 3.016655 0
M  V30 38 H 6.110052 -0.220691 3.698694 0
M  V30 39 H 7.155503 0.690323 2.609238 0
M  V30 40 H 3.059380 0.505153 0.410896 0
M  V30 41 H 4.728526 0.288573 -2.131130 0
M  V30 42 H 0.214320 2.370143 2.308808 0
M  V30 43 H -1.083152 3.879380 3.731773 0
M  V30 44 H -4.461951 3.368203 1.205503 0
M  V30 45 H -3.180184 1.861109 -0.223000 0
M  V30 46 H -1.128715 -0.650251 2.266794 0
M  V30 47 H -2.999904 -1.740451 3.402011 0
M  V30 48 H -6.170617 -2.126662 -0.722792 0
M  V30 49 H -6.052070 -5.560715 -0.689196 0
M  V30 50 H -6.809566 -4.351929 -1.752645 0
M  V30 51 H -5.327512 -5.300535 -2.279839 0
M  V30 52 H -3.073407 -1.187398 -1.510446 0
M  V30 53 H -0.937569 -2.155415 -1.979094 0
M  V30 54 H 0.643531 -1.940172 -2.660852 0
M  V30 55 H 0.307518 -3.983811 -1.055456 0
M  V30 56 H 2.792494 -2.132112 -1.008660 0
M  V30 57 H 2.741329 -3.908611 -0.577103 0
M  V30 58 H 1.051068 -3.536562 1.260947 0
M  V30 59 H 1.019474 -1.718415 0.974771 0
M  V30 END ATOM
M  V30 BEGIN BOND
M  V30 1 1 1 2
M  V30 2 1 2 3
M  V30 3 1 3 4
M  V30 4 2 4 5
M  V30 5 1 4 6
M  V30 6 2 6 7
M  V30 7 1 7 8
M  V30 8 1 8 9
M  V30 9 2 9 10
M  V30 10 1 10 11
M  V30 11 1 11 12
M  V30 12 2 12 13
M  V30 13 1 13 14
M  V30 14 2 14 15
M  V30 15 1 15 16
M  V30 16 1 15 17
M  V30 17 2 17 18
M  V30 18 2 11 19
M  V30 19 1 19 20
M  V30 20 2 20 21
M  V30 21 1 21 22
M  V30 22 2 22 23
M  V30 23 1 23 24
M  V30 24 1 24 25
M  V30 25 1 25 26
M  V30 26 1 26 27
M  V30 27 2 26 28
M  V30 28 2 24 29
M  V30 29 1 19 30
M  V30 30 1 30 31
M  V30 31 1 31 32
M  V30 32 1 32 33
M  V30 33 1 33 34
M  V30 34 1 30 9
M  V30 35 1 34 32
M  V30 36 1 18 12
M  V30 37 1 29 20
M  V30 38 1 1 35
M  V30 39 1 1 36
M  V30 40 1 1 37
M  V30 41 1 2 38
M  V30 42 1 2 39
M  V30 43 1 6 40
M  V30 44 1 7 41
M  V30 45 1 13 42
M  V30 46 1 14 43
M  V30 47 1 17 44
M  V30 48 1 18 45
M  V30 49 1 21 46
M  V30 50 1 22 47
M  V30 51 1 25 48
M  V30 52 1 27 49
M  V30 53 1 27 50
M  V30 54 1 27 51
M  V30 55 1 29 52
M  V30 56 1 31 53
M  V30 57 1 31 54
M  V30 58 1 32 55
M  V30 59 1 33 56
M  V30 60 1 33 57
M  V30 61 1 34 58
M  V30 62 1 34 59
M  V30 END BOND
M  V30 END CTAB
M  END
>  <Dataset>  (896) 
ChEMBL_Kinases

>  <Ligand_Instance>  (896) 
nan

>  <PDB_ID>  (896) 
nan

>  <Standardized_SMILES>  (896) 
CCOC(=O)/C=C/Sc1nc(-c2ccc(F)cc2)c(-c2ccnc(NC(C)=O)c2)n1CC1CC1

>  <Name>  (896) 
nan

>  <Pocket>  (896) 
nan

>  <ATP_Site>  (896) 
nan

>  <Peripheral>  (896) 
nan

>  <Num_H_Atoms_ProtBoundConf>  (896) 
nan

>  <Num_Resolved_Atoms>  (896) 
nan

>  <Num_Not_Resolved_Atoms>  (896) 
nan

$$$$
CHEMBL3401984
     RDKit          3D

  0  0  0  0  0  0  0  0  0  0999 V3000
M  V30 BEGIN CTAB
M  V30 COUNTS 53 57 0 0 0
M  V30 BEGIN ATOM
M  V30 1 O -0.398858 3.266653 3.209393 0
M  V30 2 C 0.031400 1.963241 3.361673 0
M  V30 3 C 1.126247 1.522100 2.440910 0
M  V30 4 O 2.190180 2.431138 2.664869 0
M  V30 5 C 0.725361 1.375111 1.036032 0 CFG=1
M  V30 6 C 0.238402 2.639278 0.411109 0
M  V30 7 C -0.718648 2.217785 -0.723661 0
M  V30 8 C -0.081639 1.001686 -1.363889 0
M  V30 9 C 1.428970 1.093961 -1.253016 0
M  V30 10 C 1.805886 2.573454 -1.509821 0
M  V30 11 C 1.352855 3.374322 -0.334698 0
M  V30 12 C 1.844858 0.812853 0.157447 0 CFG=2
M  V30 13 N 2.249593 -0.503444 0.450712 0
M  V30 14 C 1.640847 -1.753785 0.580461 0
M  V30 15 N 0.338057 -2.023345 0.447000 0
M  V30 16 C -0.261608 -3.208364 0.566793 0
M  V30 17 C -1.704280 -3.363353 0.394432 0
M  V30 18 C -2.572092 -2.332164 0.098844 0
M  V30 19 N -3.796618 -2.899068 0.026737 0
M  V30 20 C -3.699474 -4.239615 0.268850 0
M  V30 21 N -4.623378 -5.236236 0.311473 0
M  V30 22 C -4.266722 -6.507429 0.577495 0
M  V30 23 C -2.958200 -6.898951 0.824707 0
M  V30 24 F -2.566920 -8.153509 1.092680 0
M  V30 25 C -2.026830 -5.871476 0.777854 0
M  V30 26 C -2.387629 -4.557156 0.503901 0
M  V30 27 N 0.519199 -4.264104 0.854708 0
M  V30 28 C 1.849302 -4.150648 1.018586 0
M  V30 29 C 2.369900 -2.887052 0.874477 0
M  V30 30 F 3.724407 -2.813035 1.048393 0
M  V30 31 H -0.589624 3.706881 4.078253 0
M  V30 32 H -0.872670 1.279610 3.271788 0
M  V30 33 H 0.340202 1.788843 4.440223 0
M  V30 34 H 1.490135 0.525019 2.855838 0
M  V30 35 H 3.057081 1.961072 2.590046 0
M  V30 36 H -0.125727 0.625614 1.019095 0
M  V30 37 H -0.281224 3.346596 1.042034 0
M  V30 38 H -1.715188 1.983924 -0.316565 0
M  V30 39 H -0.834114 3.025003 -1.456819 0
M  V30 40 H -0.542961 0.142420 -0.900632 0
M  V30 41 H -0.281734 1.082237 -2.458623 0
M  V30 42 H 1.953815 0.527747 -2.023356 0
M  V30 43 H 1.311585 2.857927 -2.466843 0
M  V30 44 H 2.890586 2.629758 -1.617069 0
M  V30 45 H 0.861875 4.291359 -0.734372 0
M  V30 46 H 2.148486 3.709614 0.348188 0
M  V30 47 H 2.699974 1.549306 0.381535 0
M  V30 48 H 3.309168 -0.542332 0.612163 0
M  V30 49 H -2.370540 -1.273999 -0.053906 0
M  V30 50 H -4.705428 -2.402046 -0.183370 0
M  V30 51 H -5.005294 -7.315192 0.613439 0
M  V30 52 H -0.991075 -6.118554 0.962816 0
M  V30 53 H 2.466168 -5.003642 1.249289 0
M  V30 END ATOM
M  V30 BEGIN BOND
M  V30 1 1 1 2
M  V30 2 1 2 3
M  V30 3 1 3 4
M  V30 4 1 3 5
M  V30 5 1 5 6
M  V30 6 1 6 7
M  V30 7 1 7 8
M  V30 8 1 8 9
M  V30 9 1 9 10
M  V30 10 1 10 11
M  V30 11 1 9 12
M  V30 12 1 12 13
M  V30 13 1 13 14
M  V30 14 2 14 15
M  V30 15 1 15 16
M  V30 16 1 16 17
M  V30 17 2 17 18
M  V30 18 1 18 19
M  V30 19 1 19 20
M  V30 20 2 20 21
M  V30 21 1 21 22
M  V30 22 2 22 23
M  V30 23 1 23 24
M  V30 24 1 23 25
M  V30 25 2 25 26
M  V30 26 2 16 27
M  V30 27 1 27 28
M  V30 28 2 28 29
M  V30 29 1 29 30
M  V30 30 1 12 5
M  V30 31 1 29 14
M  V30 32 1 11 6
M  V30 33 1 26 17
M  V30 34 1 26 20
M  V30 35 1 1 31
M  V30 36 1 2 32
M  V30 37 1 2 33
M  V30 38 1 3 34
M  V30 39 1 4 35
M  V30 40 1 5 36 CFG=1
M  V30 41 1 6 37
M  V30 42 1 7 38
M  V30 43 1 7 39
M  V30 44 1 8 40
M  V30 45 1 8 41
M  V30 46 1 9 42
M  V30 47 1 10 43
M  V30 48 1 10 44
M  V30 49 1 11 45
M  V30 50 1 11 46
M  V30 51 1 12 47 CFG=1
M  V30 52 1 13 48
M  V30 53 1 18 49
M  V30 54 1 19 50
M  V30 55 1 22 51
M  V30 56 1 25 52
M  V30 57 1 28 53
M  V30 END BOND
M  V30 END CTAB
M  END
>  <Dataset>  (897) 
ChEMBL_Kinases

>  <Ligand_Instance>  (897) 
nan

>  <PDB_ID>  (897) 
nan

>  <Standardized_SMILES>  (897) 
OCC(O)[C@H]1C2CCC(CC2)[C@@H]1Nc1nc(-c2c[nH]c3ncc(F)cc23)ncc1F

>  <Name>  (897) 
nan

>  <Pocket>  (897) 
nan

>  <ATP_Site>  (897) 
nan

>  <Peripheral>  (897) 
nan

>  <Num_H_Atoms_ProtBoundConf>  (897) 
nan

>  <Num_Resolved_Atoms>  (897) 
nan

>  <Num_Not_Resolved_Atoms>  (897) 
nan

$$$$
CHEMBL3394117
     RDKit          3D

  0  0  0  0  0  0  0  0  0  0999 V3000
M  V30 BEGIN CTAB
M  V30 COUNTS 53 56 0 0 0
M  V30 BEGIN ATOM
M  V30 1 C 3.957404 -2.199747 5.527124 0
M  V30 2 C 3.061405 -2.736501 4.446950 0
M  V30 3 O 2.291766 -3.724961 4.311620 0
M  V30 4 N 3.123452 -1.896340 3.315391 0
M  V30 5 C 2.538626 -1.853421 2.020082 0
M  V30 6 C 1.352053 -1.190370 1.809605 0
M  V30 7 C 0.743083 -1.120475 0.558925 0
M  V30 8 C -0.511687 -0.431321 0.278529 0
M  V30 9 C -0.693281 0.939796 0.439866 0
M  V30 10 C 0.265802 1.939123 0.897404 0
M  V30 11 C -0.085782 2.604048 2.070709 0
M  V30 12 C 0.796437 3.556494 2.533942 0
M  V30 13 C 1.974926 3.847968 1.877511 0
M  V30 14 F 2.805231 4.793355 2.376997 0
M  V30 15 C 2.257104 3.142568 0.712471 0
M  V30 16 C 1.420929 2.172310 0.185698 0
M  V30 17 N -1.982103 1.136059 0.068558 0
M  V30 18 C -2.527697 -0.049445 -0.290307 0
M  V30 19 S -4.243871 -0.078395 -0.831817 0
M  V30 20 C -4.337832 0.173065 -2.606775 0
M  V30 21 C -3.317216 0.761381 -3.210966 0
M  V30 22 C -3.412604 0.956720 -4.654543 0
M  V30 23 O -4.420818 0.584579 -5.309518 0
M  V30 24 O -2.393874 1.565143 -5.385372 0
M  V30 25 N -1.630146 -1.026996 -0.165426 0
M  V30 26 C -1.920181 -2.392154 -0.475165 0
M  V30 27 C -2.455571 -3.157736 0.711007 0
M  V30 28 C -2.777263 -4.605141 0.433628 0
M  V30 29 C -1.668437 -4.227909 1.370523 0
M  V30 30 C 1.410795 -1.764942 -0.468775 0
M  V30 31 C 2.601905 -2.437615 -0.286983 0
M  V30 32 N 3.140204 -2.465857 0.960081 0
M  V30 33 H 3.658351 -1.176378 5.835520 0
M  V30 34 H 5.029014 -2.219641 5.185142 0
M  V30 35 H 3.917300 -2.924903 6.363547 0
M  V30 36 H 3.688372 -1.011147 3.173936 0
M  V30 37 H 0.855559 -0.701309 2.615652 0
M  V30 38 H -1.007336 2.386326 2.597339 0
M  V30 39 H 0.551089 4.100557 3.457402 0
M  V30 40 H 3.186546 3.368780 0.189685 0
M  V30 41 H 1.613387 1.620712 -0.700054 0
M  V30 42 H -5.217807 -0.157869 -3.139270 0
M  V30 43 H -2.417148 1.109248 -2.719204 0
M  V30 44 H -2.226060 1.369294 -6.371205 0
M  V30 45 H -2.640148 -2.481242 -1.316694 0
M  V30 46 H -0.965645 -2.876013 -0.814532 0
M  V30 47 H -3.211100 -2.586313 1.313145 0
M  V30 48 H -2.496269 -5.026934 -0.567487 0
M  V30 49 H -3.734557 -5.017095 0.794132 0
M  V30 50 H -0.616370 -4.425229 1.081298 0
M  V30 51 H -1.932849 -4.439549 2.444239 0
M  V30 52 H 1.060509 -1.795365 -1.491710 0
M  V30 53 H 3.128469 -2.943192 -1.084251 0
M  V30 END ATOM
M  V30 BEGIN BOND
M  V30 1 1 1 2
M  V30 2 2 2 3
M  V30 3 1 2 4
M  V30 4 1 4 5
M  V30 5 2 5 6
M  V30 6 1 6 7
M  V30 7 1 7 8
M  V30 8 2 8 9
M  V30 9 1 9 10
M  V30 10 2 10 11
M  V30 11 1 11 12
M  V30 12 2 12 13
M  V30 13 1 13 14
M  V30 14 1 13 15
M  V30 15 2 15 16
M  V30 16 1 9 17
M  V30 17 2 17 18
M  V30 18 1 18 19
M  V30 19 1 19 20
M  V30 20 2 20 21
M  V30 21 1 21 22
M  V30 22 2 22 23
M  V30 23 1 22 24
M  V30 24 1 18 25
M  V30 25 1 25 26
M  V30 26 1 26 27
M  V30 27 1 27 28
M  V30 28 1 28 29
M  V30 29 2 7 30
M  V30 30 1 30 31
M  V30 31 2 31 32
M  V30 32 1 32 5
M  V30 33 1 25 8
M  V30 34 1 29 27
M  V30 35 1 16 10
M  V30 36 1 1 33
M  V30 37 1 1 34
M  V30 38 1 1 35
M  V30 39 1 4 36
M  V30 40 1 6 37
M  V30 41 1 11 38
M  V30 42 1 12 39
M  V30 43 1 15 40
M  V30 44 1 16 41
M  V30 45 1 20 42
M  V30 46 1 21 43
M  V30 47 1 24 44
M  V30 48 1 26 45
M  V30 49 1 26 46
M  V30 50 1 27 47
M  V30 51 1 28 48
M  V30 52 1 28 49
M  V30 53 1 29 50
M  V30 54 1 29 51
M  V30 55 1 30 52
M  V30 56 1 31 53
M  V30 END BOND
M  V30 END CTAB
M  END
>  <Dataset>  (898) 
ChEMBL_Kinases

>  <Ligand_Instance>  (898) 
nan

>  <PDB_ID>  (898) 
nan

>  <Standardized_SMILES>  (898) 
CC(=O)Nc1cc(-c2c(-c3ccc(F)cc3)nc(S/C=C/C(=O)O)n2CC2CC2)ccn1

>  <Name>  (898) 
nan

>  <Pocket>  (898) 
nan

>  <ATP_Site>  (898) 
nan

>  <Peripheral>  (898) 
nan

>  <Num_H_Atoms_ProtBoundConf>  (898) 
nan

>  <Num_Resolved_Atoms>  (898) 
nan

>  <Num_Not_Resolved_Atoms>  (898) 
nan

$$$$
CHEMBL3670402
     RDKit          3D

  0  0  0  0  0  0  0  0  0  0999 V3000
M  V30 BEGIN CTAB
M  V30 COUNTS 50 52 0 0 0
M  V30 BEGIN ATOM
M  V30 1 N 2.960127 -4.804317 2.804804 0
M  V30 2 C 3.757881 -3.882849 2.048760 0
M  V30 3 C 4.243304 -2.718550 2.887671 0
M  V30 4 C 3.131411 -1.920937 3.470562 0
M  V30 5 O 2.239287 -1.333002 2.611310 0
M  V30 6 C 2.330529 -0.413025 1.635786 0
M  V30 7 C 3.423313 0.279485 1.169153 0
M  V30 8 C 3.387524 1.206110 0.150913 0
M  V30 9 C 4.576800 1.913856 -0.307337 0
M  V30 10 N 5.797455 1.621099 0.333066 0
M  V30 11 O 4.534225 2.756753 -1.237150 0
M  V30 12 C 2.175605 1.467571 -0.451885 0
M  V30 13 N 2.209063 2.381833 -1.438379 0
M  V30 14 C 1.063808 2.689814 -2.074185 0
M  V30 15 N -0.056840 2.058441 -1.680949 0
M  V30 16 C -0.098733 1.144546 -0.697073 0
M  V30 17 N -1.326088 0.521024 -0.340405 0
M  V30 18 C -2.523604 0.897294 -1.064278 0
M  V30 19 C -3.743085 0.212742 -0.639279 0
M  V30 20 C -4.599782 0.682686 0.358056 0
M  V30 21 C -5.744962 -0.002568 0.725941 0
M  V30 22 C -6.078069 -1.189928 0.106817 0
M  V30 23 C -7.279582 -2.004167 0.422733 0
M  V30 24 F -6.923157 -3.312279 0.732653 0
M  V30 25 F -7.937744 -1.475904 1.524634 0
M  V30 26 F -8.104378 -2.050469 -0.692802 0
M  V30 27 C -5.268566 -1.701198 -0.884970 0
M  V30 28 C -4.136681 -0.992543 -1.225541 0
M  V30 29 C 1.050710 0.798273 -0.018482 0
M  V30 30 C 1.125238 -0.110849 0.990655 0
M  V30 31 H 2.636859 -5.539754 2.139244 0
M  V30 32 H 2.085593 -4.309853 3.117351 0
M  V30 33 H 3.213551 -3.526406 1.151819 0
M  V30 34 H 4.634822 -4.447449 1.671903 0
M  V30 35 H 4.848854 -3.100593 3.757575 0
M  V30 36 H 4.927597 -2.071576 2.327489 0
M  V30 37 H 2.531080 -2.605979 4.148244 0
M  V30 38 H 3.599823 -1.157118 4.139927 0
M  V30 39 H 4.358468 0.085675 1.636415 0
M  V30 40 H 6.278164 0.750603 0.619922 0
M  V30 41 H 6.689574 1.415250 0.800735 0
M  V30 42 H 0.881211 3.386856 -2.880908 0
M  V30 43 H -1.508830 -0.182893 0.377920 0
M  V30 44 H -2.635349 2.000743 -1.138748 0
M  V30 45 H -2.329077 0.580536 -2.130264 0
M  V30 46 H -4.339307 1.618647 0.847691 0
M  V30 47 H -6.409491 0.346520 1.488189 0
M  V30 48 H -5.478162 -2.631725 -1.409332 0
M  V30 49 H -3.479280 -1.369232 -2.002672 0
M  V30 50 H 0.210411 -0.602632 1.285967 0
M  V30 END ATOM
M  V30 BEGIN BOND
M  V30 1 1 1 2
M  V30 2 1 2 3
M  V30 3 1 3 4
M  V30 4 1 4 5
M  V30 5 1 5 6
M  V30 6 2 6 7
M  V30 7 1 7 8
M  V30 8 1 8 9
M  V30 9 1 9 10
M  V30 10 2 9 11
M  V30 11 2 8 12
M  V30 12 1 12 13
M  V30 13 2 13 14
M  V30 14 1 14 15
M  V30 15 2 15 16
M  V30 16 1 16 17
M  V30 17 1 17 18
M  V30 18 1 18 19
M  V30 19 2 19 20
M  V30 20 1 20 21
M  V30 21 2 21 22
M  V30 22 1 22 23
M  V30 23 1 23 24
M  V30 24 1 23 25
M  V30 25 1 23 26
M  V30 26 1 22 27
M  V30 27 2 27 28
M  V30 28 1 16 29
M  V30 29 2 29 30
M  V30 30 1 30 6
M  V30 31 1 29 12
M  V30 32 1 28 19
M  V30 33 1 1 31
M  V30 34 1 1 32
M  V30 35 1 2 33
M  V30 36 1 2 34
M  V30 37 1 3 35
M  V30 38 1 3 36
M  V30 39 1 4 37
M  V30 40 1 4 38
M  V30 41 1 7 39
M  V30 42 1 10 40
M  V30 43 1 10 41
M  V30 44 1 14 42
M  V30 45 1 17 43
M  V30 46 1 18 44
M  V30 47 1 18 45
M  V30 48 1 20 46
M  V30 49 1 21 47
M  V30 50 1 27 48
M  V30 51 1 28 49
M  V30 52 1 30 50
M  V30 END BOND
M  V30 END CTAB
M  END
>  <Dataset>  (899) 
ChEMBL_Kinases

>  <Ligand_Instance>  (899) 
nan

>  <PDB_ID>  (899) 
nan

>  <Standardized_SMILES>  (899) 
NCCCOc1cc(C(N)=O)c2ncnc(NCc3ccc(C(F)(F)F)cc3)c2c1

>  <Name>  (899) 
nan

>  <Pocket>  (899) 
nan

>  <ATP_Site>  (899) 
nan

>  <Peripheral>  (899) 
nan

>  <Num_H_Atoms_ProtBoundConf>  (899) 
nan

>  <Num_Resolved_Atoms>  (899) 
nan

>  <Num_Not_Resolved_Atoms>  (899) 
nan

$$$$
CHEMBL3670401
     RDKit          3D

  0  0  0  0  0  0  0  0  0  0999 V3000
M  V30 BEGIN CTAB
M  V30 COUNTS 40 42 0 0 0
M  V30 BEGIN ATOM
M  V30 1 N 1.427183 -4.020164 1.698157 0
M  V30 2 C 0.142602 -3.608010 2.304939 0
M  V30 3 C -0.363490 -2.522128 1.334349 0
M  V30 4 N 0.684149 -1.488821 1.339348 0
M  V30 5 C 0.776848 -0.602574 0.209296 0
M  V30 6 N -0.041142 -0.760527 -0.845178 0
M  V30 7 C 0.107434 0.069076 -1.888502 0
M  V30 8 N 1.031303 1.063687 -1.955956 0
M  V30 9 C 1.886195 1.269155 -0.916086 0
M  V30 10 C 2.821608 2.254930 -0.950516 0
M  V30 11 C 2.921871 3.120314 -2.125951 0
M  V30 12 N 2.060793 2.955209 -3.239249 0
M  V30 13 O 3.776920 4.036208 -2.180208 0
M  V30 14 C 3.674599 2.447949 0.106799 0
M  V30 15 C 3.550070 1.609266 1.202522 0
M  V30 16 C 2.586436 0.622322 1.193896 0
M  V30 17 C 1.712564 0.404279 0.141882 0
M  V30 18 C -1.660247 -1.998904 1.835804 0
M  V30 19 C -2.504373 -2.847443 2.561499 0
M  V30 20 C -3.714843 -2.463610 3.086142 0
M  V30 21 C -4.167462 -1.156950 2.907264 0
M  V30 22 Cl -5.698162 -0.603791 3.548458 0
M  V30 23 C -3.374629 -0.288853 2.202967 0
M  V30 24 Cl -3.912416 1.353649 1.961394 0
M  V30 25 C -2.176840 -0.749184 1.710106 0
M  V30 26 H 1.790359 -4.892276 2.094298 0
M  V30 27 H 1.205690 -4.161195 0.682397 0
M  V30 28 H -0.514453 -4.475163 2.316267 0
M  V30 29 H 0.332529 -3.133320 3.284316 0
M  V30 30 H -0.432654 -2.959931 0.355873 0
M  V30 31 H 1.310927 -1.446913 2.166433 0
M  V30 32 H -0.529077 -0.005066 -2.784246 0
M  V30 33 H 1.304547 3.512603 -3.715420 0
M  V30 34 H 1.299144 3.510581 -3.723110 0
M  V30 35 H 4.407207 3.236585 0.054227 0
M  V30 36 H 4.230431 1.779798 2.020341 0
M  V30 37 H 2.581206 0.036785 2.090078 0
M  V30 38 H -2.319626 -3.870426 2.790009 0
M  V30 39 H -4.396564 -3.077758 3.649356 0
M  V30 40 H -1.613156 0.002168 1.181832 0
M  V30 END ATOM
M  V30 BEGIN BOND
M  V30 1 1 1 2
M  V30 2 1 2 3
M  V30 3 1 3 4
M  V30 4 1 4 5
M  V30 5 2 5 6
M  V30 6 1 6 7
M  V30 7 2 7 8
M  V30 8 1 8 9
M  V30 9 2 9 10
M  V30 10 1 10 11
M  V30 11 1 11 12
M  V30 12 2 11 13
M  V30 13 1 10 14
M  V30 14 2 14 15
M  V30 15 1 15 16
M  V30 16 2 16 17
M  V30 17 1 3 18
M  V30 18 2 18 19
M  V30 19 1 19 20
M  V30 20 2 20 21
M  V30 21 1 21 22
M  V30 22 1 21 23
M  V30 23 1 23 24
M  V30 24 2 23 25
M  V30 25 1 17 5
M  V30 26 1 25 18
M  V30 27 1 17 9
M  V30 28 1 1 26
M  V30 29 1 1 27
M  V30 30 1 2 28
M  V30 31 1 2 29
M  V30 32 1 3 30
M  V30 33 1 4 31
M  V30 34 1 7 32
M  V30 35 1 12 33
M  V30 36 1 12 34
M  V30 37 1 14 35
M  V30 38 1 15 36
M  V30 39 1 16 37
M  V30 40 1 19 38
M  V30 41 1 20 39
M  V30 42 1 25 40
M  V30 END BOND
M  V30 END CTAB
M  END
>  <Dataset>  (900) 
ChEMBL_Kinases

>  <Ligand_Instance>  (900) 
nan

>  <PDB_ID>  (900) 
nan

>  <Standardized_SMILES>  (900) 
NCC(Nc1ncnc2c(C(N)=O)cccc12)c1ccc(Cl)c(Cl)c1

>  <Name>  (900) 
nan

>  <Pocket>  (900) 
nan

>  <ATP_Site>  (900) 
nan

>  <Peripheral>  (900) 
nan

>  <Num_H_Atoms_ProtBoundConf>  (900) 
nan

>  <Num_Resolved_Atoms>  (900) 
nan

>  <Num_Not_Resolved_Atoms>  (900) 
nan

$$$$
CHEMBL3394118
     RDKit          3D

  0  0  0  0  0  0  0  0  0  0999 V3000
M  V30 BEGIN CTAB
M  V30 COUNTS 61 65 0 0 0
M  V30 BEGIN ATOM
M  V30 1 C 4.436732 -1.774145 5.687421 0
M  V30 2 C 3.682086 -1.508170 4.449000 0
M  V30 3 O 2.485135 -1.881499 4.456500 0
M  V30 4 N 4.197819 -0.881337 3.290008 0
M  V30 5 C 3.556931 -0.585844 2.065872 0
M  V30 6 C 2.257021 -0.842407 1.737014 0
M  V30 7 C 1.648537 -0.542619 0.512350 0
M  V30 8 C 0.245613 -0.854334 0.281661 0
M  V30 9 C -0.580994 0.247526 0.534691 0
M  V30 10 C -0.396017 1.634151 0.960847 0
M  V30 11 C 0.261149 2.511884 0.108774 0
M  V30 12 C 0.482065 3.829457 0.430352 0
M  V30 13 C 0.038429 4.315311 1.646789 0
M  V30 14 F 0.250175 5.622189 1.981988 0
M  V30 15 C -0.615806 3.469711 2.511866 0
M  V30 16 C -0.832725 2.147353 2.178877 0
M  V30 17 N -1.826753 -0.247307 0.271889 0
M  V30 18 C -1.753378 -1.515148 -0.100354 0
M  V30 19 S -3.235974 -2.402688 -0.494975 0
M  V30 20 C -4.720999 -1.479903 -0.347237 0
M  V30 21 C -4.990859 -0.183029 0.028570 0
M  V30 22 C -6.263249 0.338939 0.067993 0
M  V30 23 C -7.332549 -0.435192 -0.274604 0
M  V30 24 C -7.054375 -1.748386 -0.654661 0
M  V30 25 I -8.771908 -2.883385 -1.172856 0
M  V30 26 N -5.794962 -2.254741 -0.690396 0
M  V30 27 N -0.470988 -1.920002 -0.103277 0
M  V30 28 C -0.010882 -3.212114 -0.442181 0
M  V30 29 C -0.787026 -3.804516 -1.641036 0
M  V30 30 C -0.709831 -2.874170 -2.804990 0
M  V30 31 C 0.724627 -2.415876 -2.957583 0
M  V30 32 C 1.664163 -3.374815 -2.319200 0
M  V30 33 C 1.417347 -3.393398 -0.808429 0
M  V30 34 C 2.484017 0.073966 -0.427354 0
M  V30 35 C 3.793059 0.327798 -0.084377 0
M  V30 36 N 4.295285 0.005413 1.117412 0
M  V30 37 H 4.419973 -2.885168 5.887744 0
M  V30 38 H 3.880262 -1.348540 6.560217 0
M  V30 39 H 5.450666 -1.367623 5.698227 0
M  V30 40 H 5.198274 -0.630358 3.435726 0
M  V30 41 H 1.615547 -1.309578 2.443252 0
M  V30 42 H 0.649254 2.251226 -0.865277 0
M  V30 43 H 0.984014 4.531639 -0.201808 0
M  V30 44 H -0.958605 3.852681 3.456387 0
M  V30 45 H -1.341700 1.449163 2.827256 0
M  V30 46 H -4.085957 0.346529 0.279848 0
M  V30 47 H -6.330999 1.379081 0.383942 0
M  V30 48 H -8.316957 -0.023846 -0.241858 0
M  V30 49 H -0.251418 -3.954012 0.384903 0
M  V30 50 H -1.764052 -4.181985 -1.378081 0
M  V30 51 H -0.210654 -4.730622 -1.957252 0
M  V30 52 H -0.999747 -3.407437 -3.731969 0
M  V30 53 H -1.321989 -1.973410 -2.751648 0
M  V30 54 H 0.981905 -2.262460 -4.034971 0
M  V30 55 H 0.844571 -1.424580 -2.477143 0
M  V30 56 H 1.632804 -4.393930 -2.750678 0
M  V30 57 H 2.694550 -3.012625 -2.511149 0
M  V30 58 H 1.742757 -4.447485 -0.495365 0
M  V30 59 H 2.155841 -2.750673 -0.360325 0
M  V30 60 H 2.065485 0.323583 -1.380270 0
M  V30 61 H 4.467445 0.801142 -0.780637 0
M  V30 END ATOM
M  V30 BEGIN BOND
M  V30 1 1 1 2
M  V30 2 2 2 3
M  V30 3 1 2 4
M  V30 4 1 4 5
M  V30 5 2 5 6
M  V30 6 1 6 7
M  V30 7 1 7 8
M  V30 8 2 8 9
M  V30 9 1 9 10
M  V30 10 2 10 11
M  V30 11 1 11 12
M  V30 12 2 12 13
M  V30 13 1 13 14
M  V30 14 1 13 15
M  V30 15 2 15 16
M  V30 16 1 9 17
M  V30 17 2 17 18
M  V30 18 1 18 19
M  V30 19 1 19 20
M  V30 20 2 20 21
M  V30 21 1 21 22
M  V30 22 2 22 23
M  V30 23 1 23 24
M  V30 24 1 24 25
M  V30 25 2 24 26
M  V30 26 1 18 27
M  V30 27 1 27 28
M  V30 28 1 28 29
M  V30 29 1 29 30
M  V30 30 1 30 31
M  V30 31 1 31 32
M  V30 32 1 32 33
M  V30 33 2 7 34
M  V30 34 1 34 35
M  V30 35 2 35 36
M  V30 36 1 36 5
M  V30 37 1 27 8
M  V30 38 1 33 28
M  V30 39 1 16 10
M  V30 40 1 26 20
M  V30 41 1 1 37
M  V30 42 1 1 38
M  V30 43 1 1 39
M  V30 44 1 4 40
M  V30 45 1 6 41
M  V30 46 1 11 42
M  V30 47 1 12 43
M  V30 48 1 15 44
M  V30 49 1 16 45
M  V30 50 1 21 46
M  V30 51 1 22 47
M  V30 52 1 23 48
M  V30 53 1 28 49
M  V30 54 1 29 50
M  V30 55 1 29 51
M  V30 56 1 30 52
M  V30 57 1 30 53
M  V30 58 1 31 54
M  V30 59 1 31 55
M  V30 60 1 32 56
M  V30 61 1 32 57
M  V30 62 1 33 58
M  V30 63 1 33 59
M  V30 64 1 34 60
M  V30 65 1 35 61
M  V30 END BOND
M  V30 END CTAB
M  END
>  <Dataset>  (901) 
ChEMBL_Kinases

>  <Ligand_Instance>  (901) 
nan

>  <PDB_ID>  (901) 
nan

>  <Standardized_SMILES>  (901) 
CC(=O)Nc1cc(-c2c(-c3ccc(F)cc3)nc(Sc3cccc(I)n3)n2C2CCCCC2)ccn1

>  <Name>  (901) 
nan

>  <Pocket>  (901) 
nan

>  <ATP_Site>  (901) 
nan

>  <Peripheral>  (901) 
nan

>  <Num_H_Atoms_ProtBoundConf>  (901) 
nan

>  <Num_Resolved_Atoms>  (901) 
nan

>  <Num_Not_Resolved_Atoms>  (901) 
nan

$$$$
CHEMBL3394119
     RDKit          3D

  0  0  0  0  0  0  0  0  0  0999 V3000
M  V30 BEGIN CTAB
M  V30 COUNTS 56 59 0 0 0
M  V30 BEGIN ATOM
M  V30 1 C 0.835143 -3.860490 -0.377456 0
M  V30 2 O 1.144755 -2.530098 -0.673363 0
M  V30 3 C 2.467552 -2.231594 -0.344829 0
M  V30 4 C 2.585555 -1.254133 0.763565 0
M  V30 5 N 1.995848 0.030148 0.563374 0
M  V30 6 C 2.490607 1.181101 0.083023 0
M  V30 7 S 4.137809 1.509671 -0.497365 0
M  V30 8 C 4.382091 1.246311 -2.242477 0
M  V30 9 C 3.620992 2.185048 -3.069629 0
M  V30 10 N 3.015600 2.927613 -3.718166 0
M  V30 11 N 1.488799 2.109916 0.108144 0
M  V30 12 C 0.352378 1.541121 0.608177 0
M  V30 13 C -0.828455 2.391574 0.707275 0
M  V30 14 C -0.646472 3.407519 1.656260 0
M  V30 15 C -1.642352 4.351583 1.927000 0
M  V30 16 C -2.820248 4.256061 1.229045 0
M  V30 17 F -3.879125 5.088541 1.372616 0
M  V30 18 C -3.021056 3.265139 0.291099 0
M  V30 19 C -2.028351 2.342310 0.036518 0
M  V30 20 C 0.704947 0.230010 0.885490 0
M  V30 21 C -0.304667 -0.655109 1.440144 0
M  V30 22 C -0.146489 -1.070958 2.743071 0
M  V30 23 C -1.128743 -1.909092 3.212493 0
M  V30 24 N -2.173971 -2.312288 2.489250 0
M  V30 25 C -2.373726 -1.938505 1.222569 0
M  V30 26 N -3.463339 -2.330253 0.398420 0
M  V30 27 C -4.551652 -3.186266 0.758214 0
M  V30 28 C -4.258660 -4.580091 1.210234 0
M  V30 29 C -4.852780 -3.554028 2.148464 0
M  V30 30 C -1.404000 -1.106206 0.746455 0
M  V30 31 O 3.191389 -1.992014 -1.476237 0
M  V30 32 C 4.134349 -2.945959 -1.768337 0
M  V30 33 H 1.521243 -4.497814 -0.973508 0
M  V30 34 H -0.182497 -4.111545 -0.714632 0
M  V30 35 H 1.010640 -4.123541 0.680584 0
M  V30 36 H 2.867042 -3.210710 0.069760 0
M  V30 37 H 2.178635 -1.771137 1.684238 0
M  V30 38 H 3.660654 -1.071678 1.048799 0
M  V30 39 H 4.298462 0.202483 -2.590019 0
M  V30 40 H 5.463633 1.506357 -2.456392 0
M  V30 41 H 0.250232 3.563097 2.257002 0
M  V30 42 H -1.531426 5.136939 2.645040 0
M  V30 43 H -3.924544 3.125254 -0.300242 0
M  V30 44 H -2.071698 1.530560 -0.670989 0
M  V30 45 H 0.663143 -0.797240 3.400657 0
M  V30 46 H -1.042243 -2.263961 4.243126 0
M  V30 47 H -3.454178 -1.938724 -0.588530 0
M  V30 48 H -5.450537 -3.089190 0.077431 0
M  V30 49 H -4.877718 -5.410857 0.863544 0
M  V30 50 H -3.201323 -4.871817 1.427375 0
M  V30 51 H -5.916308 -3.781785 2.424310 0
M  V30 52 H -4.289677 -3.159031 2.998635 0
M  V30 53 H -1.463772 -0.738094 -0.286809 0
M  V30 54 H 4.839277 -2.999917 -0.935180 0
M  V30 55 H 4.569982 -2.684930 -2.752566 0
M  V30 56 H 3.682757 -3.955163 -1.861828 0
M  V30 END ATOM
M  V30 BEGIN BOND
M  V30 1 1 1 2
M  V30 2 1 2 3
M  V30 3 1 3 4
M  V30 4 1 4 5
M  V30 5 1 5 6
M  V30 6 1 6 7
M  V30 7 1 7 8
M  V30 8 1 8 9
M  V30 9 3 9 10
M  V30 10 2 6 11
M  V30 11 1 11 12
M  V30 12 1 12 13
M  V30 13 2 13 14
M  V30 14 1 14 15
M  V30 15 2 15 16
M  V30 16 1 16 17
M  V30 17 1 16 18
M  V30 18 2 18 19
M  V30 19 2 12 20
M  V30 20 1 20 21
M  V30 21 2 21 22
M  V30 22 1 22 23
M  V30 23 2 23 24
M  V30 24 1 24 25
M  V30 25 1 25 26
M  V30 26 1 26 27
M  V30 27 1 27 28
M  V30 28 1 28 29
M  V30 29 2 25 30
M  V30 30 1 3 31
M  V30 31 1 31 32
M  V30 32 1 20 5
M  V30 33 1 30 21
M  V30 34 1 19 13
M  V30 35 1 29 27
M  V30 36 1 1 33
M  V30 37 1 1 34
M  V30 38 1 1 35
M  V30 39 1 3 36
M  V30 40 1 4 37
M  V30 41 1 4 38
M  V30 42 1 8 39
M  V30 43 1 8 40
M  V30 44 1 14 41
M  V30 45 1 15 42
M  V30 46 1 18 43
M  V30 47 1 19 44
M  V30 48 1 22 45
M  V30 49 1 23 46
M  V30 50 1 26 47
M  V30 51 1 27 48
M  V30 52 1 28 49
M  V30 53 1 28 50
M  V30 54 1 29 51
M  V30 55 1 29 52
M  V30 56 1 30 53
M  V30 57 1 32 54
M  V30 58 1 32 55
M  V30 59 1 32 56
M  V30 END BOND
M  V30 END CTAB
M  END
>  <Dataset>  (902) 
ChEMBL_Kinases

>  <Ligand_Instance>  (902) 
nan

>  <PDB_ID>  (902) 
nan

>  <Standardized_SMILES>  (902) 
COC(Cn1c(SCC#N)nc(-c2ccc(F)cc2)c1-c1ccnc(NC2CC2)c1)OC

>  <Name>  (902) 
nan

>  <Pocket>  (902) 
nan

>  <ATP_Site>  (902) 
nan

>  <Peripheral>  (902) 
nan

>  <Num_H_Atoms_ProtBoundConf>  (902) 
nan

>  <Num_Resolved_Atoms>  (902) 
nan

>  <Num_Not_Resolved_Atoms>  (902) 
nan

$$$$
CHEMBL3394120
     RDKit          3D

  0  0  0  0  0  0  0  0  0  0999 V3000
M  V30 BEGIN CTAB
M  V30 COUNTS 59 62 0 0 0
M  V30 BEGIN ATOM
M  V30 1 C 4.622202 -2.461159 3.774013 0
M  V30 2 O 3.754101 -3.004178 2.828808 0
M  V30 3 C 2.639239 -2.170908 2.766106 0
M  V30 4 C 2.461365 -1.567129 1.394721 0
M  V30 5 N 1.304195 -0.709122 1.358335 0
M  V30 6 C 1.422051 0.592208 1.718481 0
M  V30 7 S 2.859004 1.462562 2.313199 0
M  V30 8 C 3.845337 2.159113 1.012952 0
M  V30 9 C 3.507296 3.003073 0.065702 0
M  V30 10 C 2.148819 3.469193 0.026967 0
M  V30 11 O 1.825421 4.266528 -0.866587 0
M  V30 12 O 0.829027 3.842309 0.092089 0
M  V30 13 N 0.200732 1.128675 1.555387 0
M  V30 14 C -0.645587 0.200528 1.111397 0
M  V30 15 C -2.062395 0.421922 0.823743 0
M  V30 16 C -2.456473 1.332795 -0.163144 0
M  V30 17 C -3.804656 1.510439 -0.399006 0
M  V30 18 C -4.760549 0.799426 0.328083 0
M  V30 19 F -6.085246 0.913022 0.163229 0
M  V30 20 C -4.344936 -0.098986 1.302320 0
M  V30 21 C -3.005542 -0.292738 1.555175 0
M  V30 22 C 0.050997 -0.989243 0.979113 0
M  V30 23 C -0.586810 -2.197935 0.486449 0
M  V30 24 C -1.053601 -3.354226 1.066862 0
M  V30 25 C -1.621544 -4.360816 0.320312 0
M  V30 26 N -1.736433 -4.235764 -1.013645 0
M  V30 27 C -1.301973 -3.130045 -1.650999 0
M  V30 28 N -1.455603 -3.073650 -3.064231 0
M  V30 29 C -1.037507 -1.899605 -3.841284 0
M  V30 30 C -1.833285 -0.660313 -3.443453 0
M  V30 31 C -1.905984 -1.254704 -4.821385 0
M  V30 32 C -0.729740 -2.113810 -0.912156 0
M  V30 33 O 1.514730 -2.884872 3.138722 0
M  V30 34 C 0.833599 -2.350807 4.218976 0
M  V30 35 H 4.116621 -2.409956 4.778881 0
M  V30 36 H 4.899761 -1.445500 3.422308 0
M  V30 37 H 5.518551 -3.126730 3.867823 0
M  V30 38 H 2.724028 -1.299344 3.469320 0
M  V30 39 H 2.292170 -2.429051 0.683235 0
M  V30 40 H 3.364309 -1.012339 1.066410 0
M  V30 41 H 4.856162 1.762870 1.107016 0
M  V30 42 H 4.221748 3.341464 -0.662090 0
M  V30 43 H 0.348613 3.849767 1.003637 0
M  V30 44 H -1.731045 1.883761 -0.727075 0
M  V30 45 H -4.166402 2.199963 -1.146318 0
M  V30 46 H -5.023949 -0.697043 1.918806 0
M  V30 47 H -2.649814 -0.995428 2.318186 0
M  V30 48 H -0.917677 -3.334641 2.127502 0
M  V30 49 H -1.936578 -5.202550 0.921648 0
M  V30 50 H -1.864025 -3.847321 -3.601502 0
M  V30 51 H 0.064029 -1.706679 -3.807517 0
M  V30 52 H -2.758997 -0.773398 -2.847436 0
M  V30 53 H -1.310925 0.302624 -3.298121 0
M  V30 54 H -2.814985 -1.772160 -5.180900 0
M  V30 55 H -1.409943 -0.645243 -5.602864 0
M  V30 56 H -0.421953 -1.284666 -1.538162 0
M  V30 57 H 1.482035 -2.304473 5.117506 0
M  V30 58 H 0.420529 -1.352094 3.937118 0
M  V30 59 H -0.023643 -3.008554 4.456885 0
M  V30 END ATOM
M  V30 BEGIN BOND
M  V30 1 1 1 2
M  V30 2 1 2 3
M  V30 3 1 3 4
M  V30 4 1 4 5
M  V30 5 1 5 6
M  V30 6 1 6 7
M  V30 7 1 7 8
M  V30 8 2 8 9
M  V30 9 1 9 10
M  V30 10 2 10 11
M  V30 11 1 10 12
M  V30 12 2 6 13
M  V30 13 1 13 14
M  V30 14 1 14 15
M  V30 15 2 15 16
M  V30 16 1 16 17
M  V30 17 2 17 18
M  V30 18 1 18 19
M  V30 19 1 18 20
M  V30 20 2 20 21
M  V30 21 2 14 22
M  V30 22 1 22 23
M  V30 23 2 23 24
M  V30 24 1 24 25
M  V30 25 2 25 26
M  V30 26 1 26 27
M  V30 27 1 27 28
M  V30 28 1 28 29
M  V30 29 1 29 30
M  V30 30 1 30 31
M  V30 31 2 27 32
M  V30 32 1 3 33
M  V30 33 1 33 34
M  V30 34 1 22 5
M  V30 35 1 32 23
M  V30 36 1 21 15
M  V30 37 1 31 29
M  V30 38 1 1 35
M  V30 39 1 1 36
M  V30 40 1 1 37
M  V30 41 1 3 38
M  V30 42 1 4 39
M  V30 43 1 4 40
M  V30 44 1 8 41
M  V30 45 1 9 42
M  V30 46 1 12 43
M  V30 47 1 16 44
M  V30 48 1 17 45
M  V30 49 1 20 46
M  V30 50 1 21 47
M  V30 51 1 24 48
M  V30 52 1 25 49
M  V30 53 1 28 50
M  V30 54 1 29 51
M  V30 55 1 30 52
M  V30 56 1 30 53
M  V30 57 1 31 54
M  V30 58 1 31 55
M  V30 59 1 32 56
M  V30 60 1 34 57
M  V30 61 1 34 58
M  V30 62 1 34 59
M  V30 END BOND
M  V30 END CTAB
M  END
>  <Dataset>  (903) 
ChEMBL_Kinases

>  <Ligand_Instance>  (903) 
nan

>  <PDB_ID>  (903) 
nan

>  <Standardized_SMILES>  (903) 
COC(Cn1c(S/C=C\C(=O)O)nc(-c2ccc(F)cc2)c1-c1ccnc(NC2CC2)c1)OC

>  <Name>  (903) 
nan

>  <Pocket>  (903) 
nan

>  <ATP_Site>  (903) 
nan

>  <Peripheral>  (903) 
nan

>  <Num_H_Atoms_ProtBoundConf>  (903) 
nan

>  <Num_Resolved_Atoms>  (903) 
nan

>  <Num_Not_Resolved_Atoms>  (903) 
nan

$$$$
CHEMBL3394121
     RDKit          3D

  0  0  0  0  0  0  0  0  0  0999 V3000
M  V30 BEGIN CTAB
M  V30 COUNTS 64 66 0 0 0
M  V30 BEGIN ATOM
M  V30 1 C 5.343782 0.680304 0.562330 0
M  V30 2 C 5.192264 0.177946 -0.858126 0
M  V30 3 C 4.534500 -1.162766 -0.857819 0
M  V30 4 C 4.348973 -1.720807 -2.253971 0
M  V30 5 N 3.325120 -1.176596 -0.112895 0
M  V30 6 C 2.167761 -0.368947 -0.334253 0
M  V30 7 C 0.978026 -0.431772 0.344638 0
M  V30 8 C -0.062709 0.413740 0.032161 0
M  V30 9 C -1.330682 0.335243 0.750321 0
M  V30 10 C -1.489795 0.578466 2.093442 0
M  V30 11 C -0.544635 0.940235 3.138678 0
M  V30 12 C 0.385414 0.148240 3.784712 0
M  V30 13 C 1.215159 0.656962 4.760208 0
M  V30 14 C 1.087314 2.000839 5.076899 0
M  V30 15 F 1.950653 2.396655 6.049360 0
M  V30 16 C 0.179170 2.835713 4.466249 0
M  V30 17 C -0.651107 2.294981 3.479877 0
M  V30 18 N -2.796659 0.407116 2.369894 0
M  V30 19 C -3.475952 0.064627 1.258284 0
M  V30 20 S -5.211984 -0.222806 1.222115 0
M  V30 21 C -5.728411 -1.865804 1.537743 0
M  V30 22 C -5.150846 -2.949183 1.959517 0
M  V30 23 C -3.778739 -3.046504 2.302945 0
M  V30 24 O -3.099619 -3.986802 2.716102 0
M  V30 25 O -2.448137 -2.684850 2.510895 0
M  V30 26 N -2.561610 0.018470 0.242082 0
M  V30 27 C -2.825864 -0.302099 -1.129594 0
M  V30 28 C -2.714384 -1.762206 -1.456273 0
M  V30 29 O -1.448606 -2.289874 -1.202411 0
M  V30 30 C -0.846361 -2.682098 -2.415720 0
M  V30 31 O -3.749451 -2.533333 -0.939849 0
M  V30 32 C -4.510241 -3.094509 -1.983199 0
M  V30 33 C 0.033078 1.358673 -0.967232 0
M  V30 34 C 1.250305 1.392346 -1.630517 0
M  V30 35 N 2.281029 0.548812 -1.315902 0
M  V30 36 H 5.256637 1.796167 0.579967 0
M  V30 37 H 4.543076 0.311743 1.233842 0
M  V30 38 H 6.317307 0.401535 1.023682 0
M  V30 39 H 6.237625 0.096901 -1.247457 0
M  V30 40 H 4.618250 0.957575 -1.417378 0
M  V30 41 H 5.247105 -1.859905 -0.327934 0
M  V30 42 H 4.116589 -2.808527 -2.174631 0
M  V30 43 H 3.404486 -1.283901 -2.691736 0
M  V30 44 H 5.241436 -1.497825 -2.874651 0
M  V30 45 H 3.169082 -1.821103 0.714459 0
M  V30 46 H 0.913991 -1.172153 1.123216 0
M  V30 47 H 0.378508 -0.878736 3.443974 0
M  V30 48 H 1.903952 -0.056783 5.197338 0
M  V30 49 H 0.139291 3.886753 4.771283 0
M  V30 50 H -1.344775 2.993706 3.028902 0
M  V30 51 H -6.800367 -1.966054 1.316418 0
M  V30 52 H -5.652857 -3.891780 2.094868 0
M  V30 53 H -1.883560 -2.265427 1.756287 0
M  V30 54 H -3.869877 -0.000502 -1.440923 0
M  V30 55 H -2.176339 0.243030 -1.849114 0
M  V30 56 H -2.822422 -1.839628 -2.579708 0
M  V30 57 H -0.736160 -1.815529 -3.094803 0
M  V30 58 H 0.125146 -3.140910 -2.252491 0
M  V30 59 H -1.489731 -3.415744 -2.953485 0
M  V30 60 H -4.905280 -2.265208 -2.570187 0
M  V30 61 H -3.926412 -3.768301 -2.633291 0
M  V30 62 H -5.385218 -3.641081 -1.523486 0
M  V30 63 H -0.727736 2.061911 -1.278664 0
M  V30 64 H 1.471960 2.085981 -2.441271 0
M  V30 END ATOM
M  V30 BEGIN BOND
M  V30 1 1 1 2
M  V30 2 1 2 3
M  V30 3 1 3 4
M  V30 4 1 3 5
M  V30 5 1 5 6
M  V30 6 2 6 7
M  V30 7 1 7 8
M  V30 8 1 8 9
M  V30 9 2 9 10
M  V30 10 1 10 11
M  V30 11 2 11 12
M  V30 12 1 12 13
M  V30 13 2 13 14
M  V30 14 1 14 15
M  V30 15 1 14 16
M  V30 16 2 16 17
M  V30 17 1 10 18
M  V30 18 2 18 19
M  V30 19 1 19 20
M  V30 20 1 20 21
M  V30 21 2 21 22
M  V30 22 1 22 23
M  V30 23 2 23 24
M  V30 24 1 23 25
M  V30 25 1 19 26
M  V30 26 1 26 27
M  V30 27 1 27 28
M  V30 28 1 28 29
M  V30 29 1 29 30
M  V30 30 1 28 31
M  V30 31 1 31 32
M  V30 32 2 8 33
M  V30 33 1 33 34
M  V30 34 2 34 35
M  V30 35 1 35 6
M  V30 36 1 26 9
M  V30 37 1 17 11
M  V30 38 1 1 36
M  V30 39 1 1 37
M  V30 40 1 1 38
M  V30 41 1 2 39
M  V30 42 1 2 40
M  V30 43 1 3 41
M  V30 44 1 4 42
M  V30 45 1 4 43
M  V30 46 1 4 44
M  V30 47 1 5 45
M  V30 48 1 7 46
M  V30 49 1 12 47
M  V30 50 1 13 48
M  V30 51 1 16 49
M  V30 52 1 17 50
M  V30 53 1 21 51
M  V30 54 1 22 52
M  V30 55 1 25 53
M  V30 56 1 27 54
M  V30 57 1 27 55
M  V30 58 1 28 56
M  V30 59 1 30 57
M  V30 60 1 30 58
M  V30 61 1 30 59
M  V30 62 1 32 60
M  V30 63 1 32 61
M  V30 64 1 32 62
M  V30 65 1 33 63
M  V30 66 1 34 64
M  V30 END BOND
M  V30 END CTAB
M  END
>  <Dataset>  (904) 
ChEMBL_Kinases

>  <Ligand_Instance>  (904) 
nan

>  <PDB_ID>  (904) 
nan

>  <Standardized_SMILES>  (904) 
CCC(C)Nc1cc(-c2c(-c3ccc(F)cc3)nc(S/C=C\C(=O)O)n2CC(OC)OC)ccn1

>  <Name>  (904) 
nan

>  <Pocket>  (904) 
nan

>  <ATP_Site>  (904) 
nan

>  <Peripheral>  (904) 
nan

>  <Num_H_Atoms_ProtBoundConf>  (904) 
nan

>  <Num_Resolved_Atoms>  (904) 
nan

>  <Num_Not_Resolved_Atoms>  (904) 
nan

$$$$
CHEMBL3394122
     RDKit          3D

  0  0  0  0  0  0  0  0  0  0999 V3000
M  V30 BEGIN CTAB
M  V30 COUNTS 66 69 0 0 0
M  V30 BEGIN ATOM
M  V30 1 C 4.994145 1.975891 4.106441 0
M  V30 2 C 5.577943 0.712191 3.523159 0
M  V30 3 N 4.906008 0.234592 2.354540 0
M  V30 4 C 4.801895 1.011966 1.157514 0
M  V30 5 O 5.383361 2.141225 1.308582 0
M  V30 6 N 4.134389 0.579756 -0.048485 0
M  V30 7 C 3.513368 -0.744028 -0.057452 0
M  V30 8 C 2.414073 -0.790596 -1.118150 0
M  V30 9 C 1.953994 0.600965 -1.463862 0
M  V30 10 N 1.483518 1.380119 -0.370736 0
M  V30 11 C 0.358077 1.202599 0.451728 0
M  V30 12 C -0.556340 0.181472 0.305449 0
M  V30 13 C -1.666886 -0.028490 1.096479 0
M  V30 14 C -2.606154 -1.129433 0.898105 0
M  V30 15 C -3.425140 -1.408028 -0.179916 0
M  V30 16 C -3.507704 -0.606335 -1.395965 0
M  V30 17 C -3.975337 0.683726 -1.133430 0
M  V30 18 C -4.131625 1.614802 -2.143137 0
M  V30 19 C -3.814170 1.246207 -3.434546 0
M  V30 20 F -3.953929 2.131256 -4.453775 0
M  V30 21 C -3.356333 -0.023522 -3.676677 0
M  V30 22 C -3.193374 -0.966013 -2.686268 0
M  V30 23 N -4.094262 -2.529385 0.131436 0
M  V30 24 C -3.721286 -2.958107 1.362979 0
M  V30 25 S -4.327656 -4.405018 2.224824 0
M  V30 26 C -5.538126 -5.237591 1.207990 0
M  V30 27 C -5.325389 -6.402197 0.617953 0
M  V30 28 C -4.013255 -6.999554 0.840633 0
M  V30 29 O -3.154264 -6.406693 1.563144 0
M  V30 30 O -2.816830 -7.684648 0.961345 0
M  V30 31 N -2.803940 -2.094497 1.834624 0
M  V30 32 C -2.163169 -2.209576 3.119868 0
M  V30 33 C -1.898093 0.855430 2.132793 0
M  V30 34 C -0.978957 1.871471 2.269432 0
M  V30 35 N 0.086205 2.031769 1.472479 0
M  V30 36 C 3.121373 1.283310 -2.137464 0
M  V30 37 C 4.181273 1.558230 -1.115425 0
M  V30 38 H 5.813182 2.669412 4.454725 0
M  V30 39 H 4.422875 1.736928 5.038282 0
M  V30 40 H 4.371698 2.514400 3.370565 0
M  V30 41 H 6.663508 0.892850 3.354625 0
M  V30 42 H 5.539128 -0.078262 4.309998 0
M  V30 43 H 4.459276 -0.726439 2.342323 0
M  V30 44 H 3.029973 -0.925082 0.922877 0
M  V30 45 H 4.273556 -1.526223 -0.225793 0
M  V30 46 H 2.941219 -1.164803 -2.041804 0
M  V30 47 H 1.632205 -1.519872 -0.913286 0
M  V30 48 H 1.113450 0.556157 -2.217231 0
M  V30 49 H 2.064647 2.236646 -0.123664 0
M  V30 50 H -0.453829 -0.543297 -0.478552 0
M  V30 51 H -4.252972 1.069431 -0.142400 0
M  V30 52 H -4.495272 2.626814 -1.958060 0
M  V30 53 H -3.098553 -0.344029 -4.677675 0
M  V30 54 H -2.843893 -1.976431 -2.779133 0
M  V30 55 H -6.506712 -4.830255 1.023832 0
M  V30 56 H -6.033907 -6.932909 -0.002409 0
M  V30 57 H -2.658880 -8.583579 0.509749 0
M  V30 58 H -1.335447 -1.518453 3.266357 0
M  V30 59 H -1.723341 -3.238238 3.261092 0
M  V30 60 H -2.855561 -2.085705 3.980339 0
M  V30 61 H -2.728781 0.802246 2.821543 0
M  V30 62 H -1.121631 2.593762 3.074494 0
M  V30 63 H 2.758168 2.274547 -2.534547 0
M  V30 64 H 3.513254 0.688792 -2.991247 0
M  V30 65 H 3.987954 2.561167 -0.671319 0
M  V30 66 H 5.194066 1.522858 -1.582654 0
M  V30 END ATOM
M  V30 BEGIN BOND
M  V30 1 1 1 2
M  V30 2 1 2 3
M  V30 3 1 3 4
M  V30 4 2 4 5
M  V30 5 1 4 6
M  V30 6 1 6 7
M  V30 7 1 7 8
M  V30 8 1 8 9
M  V30 9 1 9 10
M  V30 10 1 10 11
M  V30 11 2 11 12
M  V30 12 1 12 13
M  V30 13 1 13 14
M  V30 14 2 14 15
M  V30 15 1 15 16
M  V30 16 2 16 17
M  V30 17 1 17 18
M  V30 18 2 18 19
M  V30 19 1 19 20
M  V30 20 1 19 21
M  V30 21 2 21 22
M  V30 22 1 15 23
M  V30 23 2 23 24
M  V30 24 1 24 25
M  V30 25 1 25 26
M  V30 26 2 26 27
M  V30 27 1 27 28
M  V30 28 2 28 29
M  V30 29 1 28 30
M  V30 30 1 24 31
M  V30 31 1 31 32
M  V30 32 2 13 33
M  V30 33 1 33 34
M  V30 34 2 34 35
M  V30 35 1 9 36
M  V30 36 1 36 37
M  V30 37 1 37 6
M  V30 38 1 35 11
M  V30 39 1 31 14
M  V30 40 1 22 16
M  V30 41 1 1 38
M  V30 42 1 1 39
M  V30 43 1 1 40
M  V30 44 1 2 41
M  V30 45 1 2 42
M  V30 46 1 3 43
M  V30 47 1 7 44
M  V30 48 1 7 45
M  V30 49 1 8 46
M  V30 50 1 8 47
M  V30 51 1 9 48
M  V30 52 1 10 49
M  V30 53 1 12 50
M  V30 54 1 17 51
M  V30 55 1 18 52
M  V30 56 1 21 53
M  V30 57 1 22 54
M  V30 58 1 26 55
M  V30 59 1 27 56
M  V30 60 1 30 57
M  V30 61 1 32 58
M  V30 62 1 32 59
M  V30 63 1 32 60
M  V30 64 1 33 61
M  V30 65 1 34 62
M  V30 66 1 36 63
M  V30 67 1 36 64
M  V30 68 1 37 65
M  V30 69 1 37 66
M  V30 END BOND
M  V30 END CTAB
M  END
>  <Dataset>  (905) 
ChEMBL_Kinases

>  <Ligand_Instance>  (905) 
nan

>  <PDB_ID>  (905) 
nan

>  <Standardized_SMILES>  (905) 
CCNC(=O)N1CCC(Nc2cc(-c3c(-c4ccc(F)cc4)nc(S/C=C\C(=O)O)n3C)ccn2)CC1

>  <Name>  (905) 
nan

>  <Pocket>  (905) 
nan

>  <ATP_Site>  (905) 
nan

>  <Peripheral>  (905) 
nan

>  <Num_H_Atoms_ProtBoundConf>  (905) 
nan

>  <Num_Resolved_Atoms>  (905) 
nan

>  <Num_Not_Resolved_Atoms>  (905) 
nan

$$$$
CHEMBL3394123
     RDKit          3D

  0  0  0  0  0  0  0  0  0  0999 V3000
M  V30 BEGIN CTAB
M  V30 COUNTS 58 62 0 0 0
M  V30 BEGIN ATOM
M  V30 1 O 6.064666 -6.016451 1.197433 0
M  V30 2 C 5.272686 -5.078446 0.935325 0
M  V30 3 O 5.260784 -4.549237 -0.327568 0
M  V30 4 C 4.354417 -4.528230 1.944370 0
M  V30 5 C 3.499461 -3.526182 1.687446 0
M  V30 6 S 3.459497 -2.812849 0.047011 0
M  V30 7 C 2.446519 -1.323367 0.125009 0
M  V30 8 N 2.911061 -0.084931 0.404179 0
M  V30 9 C 1.880931 0.795586 0.379533 0
M  V30 10 C 2.101329 2.210354 0.645673 0
M  V30 11 C 1.954534 3.298490 -0.187585 0
M  V30 12 C 2.209302 4.580179 0.244736 0
M  V30 13 C 2.626287 4.801778 1.551305 0
M  V30 14 F 2.845485 6.097865 1.860272 0
M  V30 15 C 2.776345 3.718544 2.392958 0
M  V30 16 C 2.521718 2.427897 1.964350 0
M  V30 17 C 0.761218 0.051292 0.074081 0
M  V30 18 C -0.567431 0.634080 -0.043882 0
M  V30 19 C -1.105241 1.539025 -0.926631 0
M  V30 20 C -2.419802 1.915996 -0.785486 0
M  V30 21 N -3.205547 1.427441 0.192903 0
M  V30 22 C -2.713612 0.530869 1.086146 0
M  V30 23 N -3.607574 0.065269 2.086579 0
M  V30 24 C -4.414939 -1.082315 1.855151 0
M  V30 25 C -4.316204 -1.725601 0.641003 0
M  V30 26 C -5.101593 -2.829176 0.434441 0
M  V30 27 C -5.957350 -3.259284 1.434221 0
M  V30 28 C -6.083715 -2.642778 2.660167 0
M  V30 29 C -5.272881 -1.521873 2.844325 0
M  V30 30 C -1.388530 0.127443 0.973677 0
M  V30 31 N 1.106120 -1.235230 -0.080376 0
M  V30 32 C 0.271689 -2.357206 -0.405087 0
M  V30 33 C 0.123338 -2.655423 -1.855997 0
M  V30 34 C -0.427293 -1.732841 -2.854296 0
M  V30 35 C 1.059206 -2.094758 -2.884992 0
M  V30 36 H 6.046903 -4.750741 -0.953718 0
M  V30 37 H 4.368455 -4.951011 2.940726 0
M  V30 38 H 2.848576 -3.171000 2.487269 0
M  V30 39 H 1.631820 3.032658 -1.175723 0
M  V30 40 H 2.045460 5.329433 -0.535794 0
M  V30 41 H 3.104516 4.022638 3.379979 0
M  V30 42 H 2.695112 1.719807 2.763175 0
M  V30 43 H -0.382765 1.846554 -1.651822 0
M  V30 44 H -2.749898 2.635451 -1.533058 0
M  V30 45 H -3.642963 0.596124 2.984426 0
M  V30 46 H -3.632642 -1.337999 -0.087162 0
M  V30 47 H -5.025186 -3.325715 -0.502840 0
M  V30 48 H -6.573360 -4.140737 1.246859 0
M  V30 49 H -6.771663 -3.046999 3.370983 0
M  V30 50 H -5.371648 -1.028774 3.820872 0
M  V30 51 H -1.128038 -0.592381 1.754652 0
M  V30 52 H 0.674502 -3.278493 0.099060 0
M  V30 53 H -0.726182 -2.212915 0.036255 0
M  V30 54 H -0.107234 -3.743393 -2.069033 0
M  V30 55 H -0.579468 -0.660999 -2.727490 0
M  V30 56 H -1.068516 -2.138539 -3.689554 0
M  V30 57 H 1.355418 -2.676358 -3.778011 0
M  V30 58 H 1.808527 -1.330391 -2.603183 0
M  V30 END ATOM
M  V30 BEGIN BOND
M  V30 1 2 1 2
M  V30 2 1 2 3
M  V30 3 1 2 4
M  V30 4 2 4 5
M  V30 5 1 5 6
M  V30 6 1 6 7
M  V30 7 2 7 8
M  V30 8 1 8 9
M  V30 9 1 9 10
M  V30 10 2 10 11
M  V30 11 1 11 12
M  V30 12 2 12 13
M  V30 13 1 13 14
M  V30 14 1 13 15
M  V30 15 2 15 16
M  V30 16 2 9 17
M  V30 17 1 17 18
M  V30 18 2 18 19
M  V30 19 1 19 20
M  V30 20 2 20 21
M  V30 21 1 21 22
M  V30 22 1 22 23
M  V30 23 1 23 24
M  V30 24 2 24 25
M  V30 25 1 25 26
M  V30 26 2 26 27
M  V30 27 1 27 28
M  V30 28 2 28 29
M  V30 29 2 22 30
M  V30 30 1 17 31
M  V30 31 1 31 32
M  V30 32 1 32 33
M  V30 33 1 33 34
M  V30 34 1 34 35
M  V30 35 1 31 7
M  V30 36 1 35 33
M  V30 37 1 16 10
M  V30 38 1 30 18
M  V30 39 1 29 24
M  V30 40 1 3 36
M  V30 41 1 4 37
M  V30 42 1 5 38
M  V30 43 1 11 39
M  V30 44 1 12 40
M  V30 45 1 15 41
M  V30 46 1 16 42
M  V30 47 1 19 43
M  V30 48 1 20 44
M  V30 49 1 23 45
M  V30 50 1 25 46
M  V30 51 1 26 47
M  V30 52 1 27 48
M  V30 53 1 28 49
M  V30 54 1 29 50
M  V30 55 1 30 51
M  V30 56 1 32 52
M  V30 57 1 32 53
M  V30 58 1 33 54
M  V30 59 1 34 55
M  V30 60 1 34 56
M  V30 61 1 35 57
M  V30 62 1 35 58
M  V30 END BOND
M  V30 END CTAB
M  END
>  <Dataset>  (906) 
ChEMBL_Kinases

>  <Ligand_Instance>  (906) 
nan

>  <PDB_ID>  (906) 
nan

>  <Standardized_SMILES>  (906) 
O=C(O)/C=C\Sc1nc(-c2ccc(F)cc2)c(-c2ccnc(Nc3ccccc3)c2)n1CC1CC1

>  <Name>  (906) 
nan

>  <Pocket>  (906) 
nan

>  <ATP_Site>  (906) 
nan

>  <Peripheral>  (906) 
nan

>  <Num_H_Atoms_ProtBoundConf>  (906) 
nan

>  <Num_Resolved_Atoms>  (906) 
nan

>  <Num_Not_Resolved_Atoms>  (906) 
nan

$$$$
CHEMBL3670404
     RDKit          3D

  0  0  0  0  0  0  0  0  0  0999 V3000
M  V30 BEGIN CTAB
M  V30 COUNTS 43 45 0 0 0
M  V30 BEGIN ATOM
M  V30 1 C 0.486769 -6.569357 2.158890 0
M  V30 2 C 0.574571 -5.266219 1.431581 0
M  V30 3 C 1.567646 -4.352103 1.809597 0
M  V30 4 C 1.592285 -3.171042 1.100696 0
M  V30 5 C 0.755212 -2.802440 0.075902 0
M  V30 6 C 0.813102 -1.505253 -0.666295 0
M  V30 7 C 1.892319 -1.526953 -1.754898 0
M  V30 8 N 1.835454 -0.224698 -2.380144 0
M  V30 9 N 0.940265 -0.422211 0.194128 0
M  V30 10 C 1.070592 0.679144 1.069725 0
M  V30 11 N 2.024223 1.065346 1.929711 0
M  V30 12 C 1.915207 2.177290 2.664896 0
M  V30 13 N 0.844426 2.956012 2.573255 0
M  V30 14 C -0.154828 2.654603 1.746537 0
M  V30 15 C -1.196995 3.553010 1.761566 0
M  V30 16 C -1.227131 4.743548 2.599668 0
M  V30 17 N -0.097355 4.961655 3.432002 0
M  V30 18 O -2.198091 5.513642 2.572885 0
M  V30 19 C -2.267351 3.266315 0.905614 0
M  V30 20 C -2.233479 2.139038 0.114120 0
M  V30 21 C -1.138705 1.307614 0.179267 0
M  V30 22 C -0.025852 1.507873 0.998694 0
M  V30 23 C -0.213000 -3.761640 -0.250584 0
M  V30 24 C -0.299368 -4.966346 0.413889 0
M  V30 25 H 0.968207 -6.451257 3.141413 0
M  V30 26 H -0.589090 -6.800585 2.382933 0
M  V30 27 H 0.882837 -7.394822 1.564826 0
M  V30 28 H 2.253383 -4.577302 2.601294 0
M  V30 29 H 2.372022 -2.498158 1.422342 0
M  V30 30 H -0.144384 -1.460934 -1.290229 0
M  V30 31 H 1.733560 -2.300474 -2.504761 0
M  V30 32 H 2.888261 -1.680024 -1.321833 0
M  V30 33 H 2.782901 0.185414 -2.491853 0
M  V30 34 H 1.418865 -0.321415 -3.324353 0
M  V30 35 H 1.892668 -0.834562 0.454016 0
M  V30 36 H 2.796124 2.305452 3.294541 0
M  V30 37 H 0.409754 4.569289 4.278342 0
M  V30 38 H 0.315484 5.828374 2.976494 0
M  V30 39 H -3.099285 3.942996 0.889316 0
M  V30 40 H -3.063159 1.928072 -0.541239 0
M  V30 41 H -1.175671 0.459535 -0.454603 0
M  V30 42 H -0.899372 -3.522655 -1.052312 0
M  V30 43 H -1.028054 -5.713151 0.183757 0
M  V30 END ATOM
M  V30 BEGIN BOND
M  V30 1 1 1 2
M  V30 2 2 2 3
M  V30 3 1 3 4
M  V30 4 2 4 5
M  V30 5 1 5 6
M  V30 6 1 6 7
M  V30 7 1 7 8
M  V30 8 1 6 9
M  V30 9 1 9 10
M  V30 10 2 10 11
M  V30 11 1 11 12
M  V30 12 2 12 13
M  V30 13 1 13 14
M  V30 14 2 14 15
M  V30 15 1 15 16
M  V30 16 1 16 17
M  V30 17 2 16 18
M  V30 18 1 15 19
M  V30 19 2 19 20
M  V30 20 1 20 21
M  V30 21 2 21 22
M  V30 22 1 5 23
M  V30 23 2 23 24
M  V30 24 1 24 2
M  V30 25 1 22 10
M  V30 26 1 22 14
M  V30 27 1 1 25
M  V30 28 1 1 26
M  V30 29 1 1 27
M  V30 30 1 3 28
M  V30 31 1 4 29
M  V30 32 1 6 30
M  V30 33 1 7 31
M  V30 34 1 7 32
M  V30 35 1 8 33
M  V30 36 1 8 34
M  V30 37 1 9 35
M  V30 38 1 12 36
M  V30 39 1 17 37
M  V30 40 1 17 38
M  V30 41 1 19 39
M  V30 42 1 20 40
M  V30 43 1 21 41
M  V30 44 1 23 42
M  V30 45 1 24 43
M  V30 END BOND
M  V30 END CTAB
M  END
>  <Dataset>  (907) 
ChEMBL_Kinases

>  <Ligand_Instance>  (907) 
nan

>  <PDB_ID>  (907) 
nan

>  <Standardized_SMILES>  (907) 
Cc1ccc(C(CN)Nc2ncnc3c(C(N)=O)cccc23)cc1

>  <Name>  (907) 
nan

>  <Pocket>  (907) 
nan

>  <ATP_Site>  (907) 
nan

>  <Peripheral>  (907) 
nan

>  <Num_H_Atoms_ProtBoundConf>  (907) 
nan

>  <Num_Resolved_Atoms>  (907) 
nan

>  <Num_Not_Resolved_Atoms>  (907) 
nan

$$$$
CHEMBL3394094
     RDKit          3D

  0  0  0  0  0  0  0  0  0  0999 V3000
M  V30 BEGIN CTAB
M  V30 COUNTS 48 50 0 0 0
M  V30 BEGIN ATOM
M  V30 1 C 0.080407 -4.879931 3.303128 0
M  V30 2 O 0.796323 -3.959890 4.088418 0
M  V30 3 C 1.694203 -3.061286 3.520189 0
M  V30 4 O 1.727397 -3.252092 2.285029 0
M  V30 5 C 2.508236 -2.021625 4.212110 0
M  V30 6 S 1.362762 -0.684684 4.741389 0
M  V30 7 C 0.760930 0.034472 3.186271 0
M  V30 8 N 1.383086 1.048338 2.498941 0
M  V30 9 C 0.623618 1.288190 1.380172 0
M  V30 10 C 1.242693 2.362675 0.633221 0
M  V30 11 C 2.261031 2.247402 -0.284831 0
M  V30 12 C 2.744461 3.404287 -0.856817 0
M  V30 13 C 2.255367 4.659419 -0.551479 0
M  V30 14 F 2.782058 5.764949 -1.158644 0
M  V30 15 C 1.233222 4.721995 0.373864 0
M  V30 16 C 0.716148 3.590318 0.972341 0
M  V30 17 C -0.424843 0.418748 1.429720 0
M  V30 18 C -1.405905 0.396683 0.368276 0
M  V30 19 C -2.293237 1.272225 -0.201803 0
M  V30 20 C -3.093188 0.877328 -1.243981 0
M  V30 21 N -3.073699 -0.362889 -1.771129 0
M  V30 22 C -2.220613 -1.310580 -1.266953 0
M  V30 23 N -2.145640 -2.651628 -1.800384 0
M  V30 24 C -1.068345 -2.700329 -2.760157 0
M  V30 25 C -0.776396 -3.989453 -3.460433 0
M  V30 26 O -0.463078 -1.614936 -2.911048 0
M  V30 27 C -1.426770 -0.881830 -0.219650 0
M  V30 28 N -0.345517 -0.348618 2.534163 0
M  V30 29 C -1.316640 -1.367913 2.915857 0
M  V30 30 H -0.939722 -4.993123 3.778043 0
M  V30 31 H -0.048384 -4.441182 2.286197 0
M  V30 32 H 0.668248 -5.814830 3.312920 0
M  V30 33 H 3.045529 -2.454316 5.057495 0
M  V30 34 H 3.182153 -1.580893 3.427064 0
M  V30 35 H 2.610505 1.249007 -0.485898 0
M  V30 36 H 3.557826 3.273468 -1.588156 0
M  V30 37 H 0.897030 5.743527 0.575544 0
M  V30 38 H -0.077336 3.843627 1.659318 0
M  V30 39 H -2.213150 2.225741 0.310584 0
M  V30 40 H -3.743098 1.636571 -1.623442 0
M  V30 41 H -2.721038 -3.499676 -1.605202 0
M  V30 42 H 0.334903 -4.109309 -3.429624 0
M  V30 43 H -1.061725 -3.875126 -4.502616 0
M  V30 44 H -1.192580 -4.839108 -2.922601 0
M  V30 45 H -0.799477 -1.708964 0.095832 0
M  V30 46 H -1.245445 -1.561100 4.032693 0
M  V30 47 H -1.258635 -2.297031 2.352611 0
M  V30 48 H -2.369648 -0.963838 2.808183 0
M  V30 END ATOM
M  V30 BEGIN BOND
M  V30 1 1 1 2
M  V30 2 1 2 3
M  V30 3 2 3 4
M  V30 4 1 3 5
M  V30 5 1 5 6
M  V30 6 1 6 7
M  V30 7 2 7 8
M  V30 8 1 8 9
M  V30 9 1 9 10
M  V30 10 2 10 11
M  V30 11 1 11 12
M  V30 12 2 12 13
M  V30 13 1 13 14
M  V30 14 1 13 15
M  V30 15 2 15 16
M  V30 16 2 9 17
M  V30 17 1 17 18
M  V30 18 2 18 19
M  V30 19 1 19 20
M  V30 20 2 20 21
M  V30 21 1 21 22
M  V30 22 1 22 23
M  V30 23 1 23 24
M  V30 24 1 24 25
M  V30 25 2 24 26
M  V30 26 2 22 27
M  V30 27 1 17 28
M  V30 28 1 28 29
M  V30 29 1 28 7
M  V30 30 1 16 10
M  V30 31 1 27 18
M  V30 32 1 1 30
M  V30 33 1 1 31
M  V30 34 1 1 32
M  V30 35 1 5 33
M  V30 36 1 5 34
M  V30 37 1 11 35
M  V30 38 1 12 36
M  V30 39 1 15 37
M  V30 40 1 16 38
M  V30 41 1 19 39
M  V30 42 1 20 40
M  V30 43 1 23 41
M  V30 44 1 25 42
M  V30 45 1 25 43
M  V30 46 1 25 44
M  V30 47 1 27 45
M  V30 48 1 29 46
M  V30 49 1 29 47
M  V30 50 1 29 48
M  V30 END BOND
M  V30 END CTAB
M  END
>  <Dataset>  (908) 
ChEMBL_Kinases

>  <Ligand_Instance>  (908) 
nan

>  <PDB_ID>  (908) 
nan

>  <Standardized_SMILES>  (908) 
COC(=O)CSc1nc(-c2ccc(F)cc2)c(-c2ccnc(NC(C)=O)c2)n1C

>  <Name>  (908) 
nan

>  <Pocket>  (908) 
nan

>  <ATP_Site>  (908) 
nan

>  <Peripheral>  (908) 
nan

>  <Num_H_Atoms_ProtBoundConf>  (908) 
nan

>  <Num_Resolved_Atoms>  (908) 
nan

>  <Num_Not_Resolved_Atoms>  (908) 
nan

$$$$
CHEMBL3394095
     RDKit          3D

  0  0  0  0  0  0  0  0  0  0999 V3000
M  V30 BEGIN CTAB
M  V30 COUNTS 52 54 0 0 0
M  V30 BEGIN ATOM
M  V30 1 C -0.830866 -5.958043 3.919286 0
M  V30 2 C 0.047540 -5.241817 2.953520 0
M  V30 3 O 0.048907 -5.616249 1.728285 0
M  V30 4 N 0.940251 -4.139547 3.193330 0
M  V30 5 C 1.682419 -3.625791 2.062028 0
M  V30 6 C 1.147500 -2.616413 1.283696 0
M  V30 7 C 1.857212 -2.113748 0.187254 0
M  V30 8 C 1.087317 -1.062300 -0.474928 0
M  V30 9 C 1.257306 0.266349 -0.163319 0
M  V30 10 C 2.151344 0.909070 0.778287 0
M  V30 11 C 3.482971 0.888570 0.422507 0
M  V30 12 C 4.439790 1.475448 1.258626 0
M  V30 13 C 3.974117 2.055094 2.421752 0
M  V30 14 F 4.917834 2.614671 3.206556 0
M  V30 15 C 2.637260 2.080701 2.787523 0
M  V30 16 C 1.720380 1.497278 1.948315 0
M  V30 17 N 0.375846 0.887222 -0.961805 0
M  V30 18 C -0.290728 -0.034980 -1.716995 0
M  V30 19 S -1.554527 0.456488 -2.881524 0
M  V30 20 C -3.145083 0.412582 -1.970119 0
M  V30 21 C -3.189590 1.405197 -0.881707 0
M  V30 22 O -2.130696 1.130118 -0.261048 0
M  V30 23 N -4.067790 2.445292 -0.475194 0
M  V30 24 C -5.340186 2.937712 -1.023389 0
M  V30 25 C -3.663264 3.191843 0.687094 0
M  V30 26 N 0.149627 -1.245779 -1.416370 0
M  V30 27 C -0.293301 -2.496705 -1.983921 0
M  V30 28 C 3.101290 -2.633311 -0.113896 0
M  V30 29 C 3.612271 -3.642326 0.682102 0
M  V30 30 N 2.890535 -4.089805 1.721652 0
M  V30 31 H -0.402503 -5.845154 4.922008 0
M  V30 32 H -0.842671 -7.034951 3.601195 0
M  V30 33 H -1.904293 -5.633669 3.848413 0
M  V30 34 H 0.935962 -3.832757 4.212116 0
M  V30 35 H 0.167522 -2.278084 1.604188 0
M  V30 36 H 3.835677 0.434756 -0.491557 0
M  V30 37 H 5.477065 1.451582 0.965091 0
M  V30 38 H 2.326036 2.552770 3.720259 0
M  V30 39 H 0.647220 1.481778 2.175291 0
M  V30 40 H -3.946825 0.591401 -2.726657 0
M  V30 41 H -3.343161 -0.588329 -1.554318 0
M  V30 42 H -5.508230 2.491643 -2.025552 0
M  V30 43 H -6.167585 2.592037 -0.371913 0
M  V30 44 H -5.334322 4.045156 -1.041559 0
M  V30 45 H -2.668274 2.856484 1.098364 0
M  V30 46 H -4.359093 3.117849 1.543962 0
M  V30 47 H -3.462761 4.276790 0.426808 0
M  V30 48 H -0.904075 -2.377881 -2.877227 0
M  V30 49 H -0.927644 -3.018869 -1.225144 0
M  V30 50 H 0.607629 -3.155721 -2.149839 0
M  V30 51 H 3.534978 -2.157748 -0.980428 0
M  V30 52 H 4.588003 -4.002447 0.392590 0
M  V30 END ATOM
M  V30 BEGIN BOND
M  V30 1 1 1 2
M  V30 2 2 2 3
M  V30 3 1 2 4
M  V30 4 1 4 5
M  V30 5 2 5 6
M  V30 6 1 6 7
M  V30 7 1 7 8
M  V30 8 2 8 9
M  V30 9 1 9 10
M  V30 10 2 10 11
M  V30 11 1 11 12
M  V30 12 2 12 13
M  V30 13 1 13 14
M  V30 14 1 13 15
M  V30 15 2 15 16
M  V30 16 1 9 17
M  V30 17 2 17 18
M  V30 18 1 18 19
M  V30 19 1 19 20
M  V30 20 1 20 21
M  V30 21 2 21 22
M  V30 22 1 21 23
M  V30 23 1 23 24
M  V30 24 1 23 25
M  V30 25 1 18 26
M  V30 26 1 26 27
M  V30 27 2 7 28
M  V30 28 1 28 29
M  V30 29 2 29 30
M  V30 30 1 30 5
M  V30 31 1 26 8
M  V30 32 1 16 10
M  V30 33 1 1 31
M  V30 34 1 1 32
M  V30 35 1 1 33
M  V30 36 1 4 34
M  V30 37 1 6 35
M  V30 38 1 11 36
M  V30 39 1 12 37
M  V30 40 1 15 38
M  V30 41 1 16 39
M  V30 42 1 20 40
M  V30 43 1 20 41
M  V30 44 1 24 42
M  V30 45 1 24 43
M  V30 46 1 24 44
M  V30 47 1 25 45
M  V30 48 1 25 46
M  V30 49 1 25 47
M  V30 50 1 27 48
M  V30 51 1 27 49
M  V30 52 1 27 50
M  V30 53 1 28 51
M  V30 54 1 29 52
M  V30 END BOND
M  V30 END CTAB
M  END
>  <Dataset>  (909) 
ChEMBL_Kinases

>  <Ligand_Instance>  (909) 
nan

>  <PDB_ID>  (909) 
nan

>  <Standardized_SMILES>  (909) 
CC(=O)Nc1cc(-c2c(-c3ccc(F)cc3)nc(SCC(=O)N(C)C)n2C)ccn1

>  <Name>  (909) 
nan

>  <Pocket>  (909) 
nan

>  <ATP_Site>  (909) 
nan

>  <Peripheral>  (909) 
nan

>  <Num_H_Atoms_ProtBoundConf>  (909) 
nan

>  <Num_Resolved_Atoms>  (909) 
nan

>  <Num_Not_Resolved_Atoms>  (909) 
nan

$$$$
CHEMBL3394096
     RDKit          3D

  0  0  0  0  0  0  0  0  0  0999 V3000
M  V30 BEGIN CTAB
M  V30 COUNTS 45 47 0 0 0
M  V30 BEGIN ATOM
M  V30 1 C -0.354317 -6.644275 2.190249 0
M  V30 2 C 0.016755 -5.390211 1.459287 0
M  V30 3 O -1.060797 -4.822003 1.074555 0
M  V30 4 N 1.292007 -4.792943 1.158330 0
M  V30 5 C 0.972449 -3.593993 0.430424 0
M  V30 6 C 0.783832 -2.425475 1.168131 0
M  V30 7 C 0.484673 -1.332040 0.410237 0
M  V30 8 C 0.257273 -0.031009 1.028021 0
M  V30 9 C 0.858557 1.221396 0.957503 0
M  V30 10 C 2.016291 1.404176 0.079656 0
M  V30 11 C 1.832375 2.330011 -0.926733 0
M  V30 12 C 2.867824 2.593423 -1.831794 0
M  V30 13 C 4.032316 1.861999 -1.616576 0
M  V30 14 F 5.064640 2.099352 -2.488723 0
M  V30 15 C 4.242562 0.931738 -0.619955 0
M  V30 16 C 3.194354 0.700838 0.253448 0
M  V30 17 N 0.176176 2.053138 1.787888 0
M  V30 18 C -0.817939 1.353233 2.360888 0
M  V30 19 S -1.876758 2.222770 3.508978 0
M  V30 20 C -3.246807 2.930628 2.567788 0
M  V30 21 C -2.693139 3.973836 1.659212 0
M  V30 22 O -2.633371 5.153539 2.123908 0
M  V30 23 O -2.234676 3.817954 0.369203 0
M  V30 24 N -0.761004 0.096129 1.896025 0
M  V30 25 C -1.744941 -0.880660 2.368449 0
M  V30 26 C 0.386060 -1.415362 -0.964080 0
M  V30 27 C 0.578612 -2.583229 -1.653290 0
M  V30 28 N 0.876180 -3.673789 -0.907722 0
M  V30 29 H 0.525249 -7.165470 2.593702 0
M  V30 30 H -0.996882 -6.321095 3.061094 0
M  V30 31 H -0.952579 -7.339330 1.591639 0
M  V30 32 H 2.043732 -5.403194 1.554311 0
M  V30 33 H 0.868720 -2.398888 2.236740 0
M  V30 34 H 0.912618 2.888945 -1.074370 0
M  V30 35 H 2.817927 3.296787 -2.647571 0
M  V30 36 H 5.183378 0.421595 -0.543118 0
M  V30 37 H 3.286090 -0.004320 1.047585 0
M  V30 38 H -3.701492 2.115662 1.963646 0
M  V30 39 H -4.025715 3.383289 3.225534 0
M  V30 40 H -2.251383 4.560462 -0.323932 0
M  V30 41 H -1.882271 -1.676232 1.612692 0
M  V30 42 H -2.733861 -0.419979 2.509979 0
M  V30 43 H -1.426486 -1.263370 3.362788 0
M  V30 44 H 0.148357 -0.546954 -1.569923 0
M  V30 45 H 0.504243 -2.660082 -2.723958 0
M  V30 END ATOM
M  V30 BEGIN BOND
M  V30 1 1 1 2
M  V30 2 2 2 3
M  V30 3 1 2 4
M  V30 4 1 4 5
M  V30 5 2 5 6
M  V30 6 1 6 7
M  V30 7 1 7 8
M  V30 8 2 8 9
M  V30 9 1 9 10
M  V30 10 2 10 11
M  V30 11 1 11 12
M  V30 12 2 12 13
M  V30 13 1 13 14
M  V30 14 1 13 15
M  V30 15 2 15 16
M  V30 16 1 9 17
M  V30 17 2 17 18
M  V30 18 1 18 19
M  V30 19 1 19 20
M  V30 20 1 20 21
M  V30 21 2 21 22
M  V30 22 1 21 23
M  V30 23 1 18 24
M  V30 24 1 24 25
M  V30 25 2 7 26
M  V30 26 1 26 27
M  V30 27 2 27 28
M  V30 28 1 28 5
M  V30 29 1 24 8
M  V30 30 1 16 10
M  V30 31 1 1 29
M  V30 32 1 1 30
M  V30 33 1 1 31
M  V30 34 1 4 32
M  V30 35 1 6 33
M  V30 36 1 11 34
M  V30 37 1 12 35
M  V30 38 1 15 36
M  V30 39 1 16 37
M  V30 40 1 20 38
M  V30 41 1 20 39
M  V30 42 1 23 40
M  V30 43 1 25 41
M  V30 44 1 25 42
M  V30 45 1 25 43
M  V30 46 1 26 44
M  V30 47 1 27 45
M  V30 END BOND
M  V30 END CTAB
M  END
>  <Dataset>  (910) 
ChEMBL_Kinases

>  <Ligand_Instance>  (910) 
nan

>  <PDB_ID>  (910) 
nan

>  <Standardized_SMILES>  (910) 
CC(=O)Nc1cc(-c2c(-c3ccc(F)cc3)nc(SCC(=O)O)n2C)ccn1

>  <Name>  (910) 
nan

>  <Pocket>  (910) 
nan

>  <ATP_Site>  (910) 
nan

>  <Peripheral>  (910) 
nan

>  <Num_H_Atoms_ProtBoundConf>  (910) 
nan

>  <Num_Resolved_Atoms>  (910) 
nan

>  <Num_Not_Resolved_Atoms>  (910) 
nan

$$$$
CHEMBL3394097
     RDKit          3D

  0  0  0  0  0  0  0  0  0  0999 V3000
M  V30 BEGIN CTAB
M  V30 COUNTS 47 49 0 0 0
M  V30 BEGIN ATOM
M  V30 1 C 2.040717 -3.506954 -1.033460 0
M  V30 2 C 3.024988 -4.054100 -0.045791 0
M  V30 3 O 2.782805 -5.158888 0.447997 0
M  V30 4 C 4.236975 -3.263175 0.297407 0
M  V30 5 S 4.005843 -2.230845 1.766636 0
M  V30 6 C 2.788133 -0.954655 1.507547 0
M  V30 7 N 2.959455 0.279445 1.027846 0
M  V30 8 C 1.751765 0.896822 1.018432 0
M  V30 9 C 1.400551 2.255949 0.586381 0
M  V30 10 C 0.518670 2.556515 -0.448252 0
M  V30 11 C 0.292688 3.887567 -0.734670 0
M  V30 12 C 0.892606 4.910561 -0.051510 0
M  V30 13 F 0.664340 6.202217 -0.337731 0
M  V30 14 C 1.767390 4.606326 0.975246 0
M  V30 15 C 2.018184 3.285168 1.290938 0
M  V30 16 C 0.843707 -0.014104 1.512425 0
M  V30 17 C -0.605406 0.240500 1.678652 0
M  V30 18 C -1.142011 1.218937 2.512343 0
M  V30 19 C -2.526019 1.348617 2.577246 0
M  V30 20 N -3.308103 0.534090 1.840507 0
M  V30 21 C -2.823126 -0.419282 1.026576 0
M  V30 22 N -3.641258 -1.284517 0.242193 0
M  V30 23 C -3.970198 -2.472441 0.960298 0
M  V30 24 C -4.792097 -3.595941 0.485859 0
M  V30 25 O -3.503876 -2.572527 2.136074 0
M  V30 26 C -1.451635 -0.556615 0.954644 0
M  V30 27 N 1.487552 -1.178489 1.821388 0
M  V30 28 C 0.777700 -2.319506 2.368611 0
M  V30 29 H 2.666623 -2.911418 -1.761636 0
M  V30 30 H 1.302387 -2.876957 -0.518274 0
M  V30 31 H 1.537359 -4.315676 -1.617136 0
M  V30 32 H 5.139436 -3.907184 0.398986 0
M  V30 33 H 4.425232 -2.547848 -0.557242 0
M  V30 34 H 0.081313 1.701772 -0.944130 0
M  V30 35 H -0.401157 4.084483 -1.547321 0
M  V30 36 H 2.273191 5.393348 1.551342 0
M  V30 37 H 2.699892 3.086730 2.090624 0
M  V30 38 H -0.436705 1.816562 3.058029 0
M  V30 39 H -2.931226 2.113043 3.228110 0
M  V30 40 H -4.035210 -1.228917 -0.719048 0
M  V30 41 H -5.006380 -3.569417 -0.593268 0
M  V30 42 H -5.745742 -3.684486 1.028634 0
M  V30 43 H -4.202763 -4.530969 0.658579 0
M  V30 44 H -1.057401 -1.322120 0.303173 0
M  V30 45 H 0.220486 -2.896624 1.606656 0
M  V30 46 H 1.479034 -3.012644 2.871214 0
M  V30 47 H 0.091376 -1.976621 3.200475 0
M  V30 END ATOM
M  V30 BEGIN BOND
M  V30 1 1 1 2
M  V30 2 2 2 3
M  V30 3 1 2 4
M  V30 4 1 4 5
M  V30 5 1 5 6
M  V30 6 2 6 7
M  V30 7 1 7 8
M  V30 8 1 8 9
M  V30 9 2 9 10
M  V30 10 1 10 11
M  V30 11 2 11 12
M  V30 12 1 12 13
M  V30 13 1 12 14
M  V30 14 2 14 15
M  V30 15 2 8 16
M  V30 16 1 16 17
M  V30 17 2 17 18
M  V30 18 1 18 19
M  V30 19 2 19 20
M  V30 20 1 20 21
M  V30 21 1 21 22
M  V30 22 1 22 23
M  V30 23 1 23 24
M  V30 24 2 23 25
M  V30 25 2 21 26
M  V30 26 1 16 27
M  V30 27 1 27 28
M  V30 28 1 27 6
M  V30 29 1 15 9
M  V30 30 1 26 17
M  V30 31 1 1 29
M  V30 32 1 1 30
M  V30 33 1 1 31
M  V30 34 1 4 32
M  V30 35 1 4 33
M  V30 36 1 10 34
M  V30 37 1 11 35
M  V30 38 1 14 36
M  V30 39 1 15 37
M  V30 40 1 18 38
M  V30 41 1 19 39
M  V30 42 1 22 40
M  V30 43 1 24 41
M  V30 44 1 24 42
M  V30 45 1 24 43
M  V30 46 1 26 44
M  V30 47 1 28 45
M  V30 48 1 28 46
M  V30 49 1 28 47
M  V30 END BOND
M  V30 END CTAB
M  END
>  <Dataset>  (911) 
ChEMBL_Kinases

>  <Ligand_Instance>  (911) 
nan

>  <PDB_ID>  (911) 
nan

>  <Standardized_SMILES>  (911) 
CC(=O)CSc1nc(-c2ccc(F)cc2)c(-c2ccnc(NC(C)=O)c2)n1C

>  <Name>  (911) 
nan

>  <Pocket>  (911) 
nan

>  <ATP_Site>  (911) 
nan

>  <Peripheral>  (911) 
nan

>  <Num_H_Atoms_ProtBoundConf>  (911) 
nan

>  <Num_Resolved_Atoms>  (911) 
nan

>  <Num_Not_Resolved_Atoms>  (911) 
nan

$$$$
CHEMBL3670411
     RDKit          3D

  0  0  0  0  0  0  0  0  0  0999 V3000
M  V30 BEGIN CTAB
M  V30 COUNTS 44 46 0 0 0
M  V30 BEGIN ATOM
M  V30 1 C -0.225019 -5.390524 -0.050682 0
M  V30 2 O -0.235653 -4.041160 -0.411337 0
M  V30 3 C 0.907866 -3.281684 -0.609429 0
M  V30 4 C 2.142319 -3.851258 -0.452199 0
M  V30 5 C 3.252400 -3.065392 -0.657519 0
M  V30 6 C 3.129817 -1.741424 -1.011562 0
M  V30 7 C 1.914953 -1.120969 -1.181680 0
M  V30 8 C 1.613399 0.289436 -1.591207 0
M  V30 9 C 2.919273 1.075250 -1.712592 0
M  V30 10 N 3.580915 1.109439 -0.456849 0
M  V30 11 N 0.660912 0.960116 -0.776918 0
M  V30 12 C -0.303487 1.639516 0.047143 0
M  V30 13 N -1.028957 2.712826 -0.300148 0
M  V30 14 C -1.970658 3.306704 0.422438 0
M  V30 15 N -2.179781 2.743561 1.604220 0
M  V30 16 C -1.517134 1.681636 2.045100 0
M  V30 17 C -1.851652 1.239641 3.303947 0
M  V30 18 C -2.890973 1.918392 4.055809 0
M  V30 19 N -3.272733 1.514037 5.351715 0
M  V30 20 O -3.742208 2.826166 4.123309 0
M  V30 21 C -1.239112 0.164584 3.898886 0
M  V30 22 C -0.263152 -0.431251 3.129368 0
M  V30 23 C 0.049721 0.027468 1.881134 0
M  V30 24 C -0.549357 1.085141 1.284101 0
M  V30 25 C 0.825656 -1.973406 -0.958914 0
M  V30 26 H -1.219323 -5.851964 -0.293563 0
M  V30 27 H 0.516700 -5.945527 -0.675887 0
M  V30 28 H 0.004267 -5.486976 1.026804 0
M  V30 29 H 2.269050 -4.876530 -0.177830 0
M  V30 30 H 4.280477 -3.435411 -0.554625 0
M  V30 31 H 4.003224 -1.135326 -1.183484 0
M  V30 32 H 1.243669 0.165715 -2.650590 0
M  V30 33 H 2.704534 2.061949 -2.153558 0
M  V30 34 H 3.581528 0.548684 -2.428371 0
M  V30 35 H 3.098754 0.512674 0.226957 0
M  V30 36 H 4.584161 1.056766 -0.550640 0
M  V30 37 H 0.663453 1.685448 -1.552675 0
M  V30 38 H -2.450086 4.168318 -0.031388 0
M  V30 39 H -3.489780 0.652341 5.924880 0
M  V30 40 H -3.545815 1.296380 6.297751 0
M  V30 41 H -1.500214 -0.180806 4.880733 0
M  V30 42 H 0.264327 -1.290012 3.540522 0
M  V30 43 H 0.832818 -0.449575 1.328922 0
M  V30 44 H -0.171214 -1.563814 -1.072508 0
M  V30 END ATOM
M  V30 BEGIN BOND
M  V30 1 1 1 2
M  V30 2 1 2 3
M  V30 3 2 3 4
M  V30 4 1 4 5
M  V30 5 2 5 6
M  V30 6 1 6 7
M  V30 7 1 7 8
M  V30 8 1 8 9
M  V30 9 1 9 10
M  V30 10 1 8 11
M  V30 11 1 11 12
M  V30 12 2 12 13
M  V30 13 1 13 14
M  V30 14 2 14 15
M  V30 15 1 15 16
M  V30 16 2 16 17
M  V30 17 1 17 18
M  V30 18 1 18 19
M  V30 19 2 18 20
M  V30 20 1 17 21
M  V30 21 2 21 22
M  V30 22 1 22 23
M  V30 23 2 23 24
M  V30 24 2 7 25
M  V30 25 1 25 3
M  V30 26 1 24 12
M  V30 27 1 24 16
M  V30 28 1 1 26
M  V30 29 1 1 27
M  V30 30 1 1 28
M  V30 31 1 4 29
M  V30 32 1 5 30
M  V30 33 1 6 31
M  V30 34 1 8 32
M  V30 35 1 9 33
M  V30 36 1 9 34
M  V30 37 1 10 35
M  V30 38 1 10 36
M  V30 39 1 11 37
M  V30 40 1 14 38
M  V30 41 1 19 39
M  V30 42 1 19 40
M  V30 43 1 21 41
M  V30 44 1 22 42
M  V30 45 1 23 43
M  V30 46 1 25 44
M  V30 END BOND
M  V30 END CTAB
M  END
>  <Dataset>  (912) 
ChEMBL_Kinases

>  <Ligand_Instance>  (912) 
nan

>  <PDB_ID>  (912) 
nan

>  <Standardized_SMILES>  (912) 
COc1cccc(C(CN)Nc2ncnc3c(C(N)=O)cccc23)c1

>  <Name>  (912) 
nan

>  <Pocket>  (912) 
nan

>  <ATP_Site>  (912) 
nan

>  <Peripheral>  (912) 
nan

>  <Num_H_Atoms_ProtBoundConf>  (912) 
nan

>  <Num_Resolved_Atoms>  (912) 
nan

>  <Num_Not_Resolved_Atoms>  (912) 
nan

$$$$
CHEMBL3394098
     RDKit          3D

  0  0  0  0  0  0  0  0  0  0999 V3000
M  V30 BEGIN CTAB
M  V30 COUNTS 48 50 0 0 0
M  V30 BEGIN ATOM
M  V30 1 C -3.559641 -5.389533 1.334740 0
M  V30 2 C -3.097956 -4.030604 1.796470 0
M  V30 3 O -3.748726 -3.049477 1.360155 0
M  V30 4 N -2.003788 -3.752815 2.673651 0
M  V30 5 C -2.003912 -2.316842 2.777392 0
M  V30 6 C -1.250610 -1.657082 1.842020 0
M  V30 7 C -1.149018 -0.264990 1.801479 0
M  V30 8 C -0.352472 0.368498 0.766228 0
M  V30 9 C 0.780516 1.139454 0.714040 0
M  V30 10 C 1.572614 1.561089 1.850103 0
M  V30 11 C 2.890069 1.076905 1.858584 0
M  V30 12 C 3.731226 1.448738 2.911751 0
M  V30 13 C 3.309588 2.262978 3.924750 0
M  V30 14 F 4.142268 2.621766 4.947560 0
M  V30 15 C 2.007757 2.763033 3.951947 0
M  V30 16 C 1.210518 2.371685 2.892254 0
M  V30 17 N 1.003545 1.425926 -0.576107 0
M  V30 18 C 0.036598 0.856909 -1.362703 0
M  V30 19 S 0.050247 1.070218 -3.098138 0
M  V30 20 C 0.916651 -0.219075 -3.963671 0
M  V30 21 C 2.377608 -0.228249 -3.617596 0
M  V30 22 C 2.653029 -0.628430 -2.223175 0
M  V30 23 O 1.604585 -1.230303 -1.905043 0
M  V30 24 O 3.759444 -0.408750 -1.456673 0
M  V30 25 N -0.803020 0.199008 -0.510544 0
M  V30 26 C -1.946967 -0.519437 -1.060543 0
M  V30 27 C -1.880054 0.386024 2.795148 0
M  V30 28 C -2.636120 -0.278527 3.735504 0
M  V30 29 N -2.690920 -1.644054 3.715701 0
M  V30 30 H -4.667289 -5.422838 1.377247 0
M  V30 31 H -3.260205 -5.566485 0.263401 0
M  V30 32 H -3.136270 -6.207641 1.941739 0
M  V30 33 H -1.504058 -4.606942 3.004220 0
M  V30 34 H -0.686525 -2.209021 1.072144 0
M  V30 35 H 3.381411 0.433123 1.142736 0
M  V30 36 H 4.765401 1.117599 2.988560 0
M  V30 37 H 1.601797 3.405489 4.710867 0
M  V30 38 H 0.177753 2.731627 2.852895 0
M  V30 39 H 0.758919 -0.188738 -5.071475 0
M  V30 40 H 0.481020 -1.200634 -3.567408 0
M  V30 41 H 2.846263 0.787186 -3.813952 0
M  V30 42 H 2.963673 -0.904322 -4.278684 0
M  V30 43 H 3.909992 -1.053275 -0.659493 0
M  V30 44 H -1.629762 -1.336775 -1.739647 0
M  V30 45 H -2.564251 0.221898 -1.646414 0
M  V30 46 H -2.607294 -0.861014 -0.231639 0
M  V30 47 H -1.828015 1.462807 2.789955 0
M  V30 48 H -3.181594 0.296683 4.484393 0
M  V30 END ATOM
M  V30 BEGIN BOND
M  V30 1 1 1 2
M  V30 2 2 2 3
M  V30 3 1 2 4
M  V30 4 1 4 5
M  V30 5 2 5 6
M  V30 6 1 6 7
M  V30 7 1 7 8
M  V30 8 2 8 9
M  V30 9 1 9 10
M  V30 10 2 10 11
M  V30 11 1 11 12
M  V30 12 2 12 13
M  V30 13 1 13 14
M  V30 14 1 13 15
M  V30 15 2 15 16
M  V30 16 1 9 17
M  V30 17 2 17 18
M  V30 18 1 18 19
M  V30 19 1 19 20
M  V30 20 1 20 21
M  V30 21 1 21 22
M  V30 22 2 22 23
M  V30 23 1 22 24
M  V30 24 1 18 25
M  V30 25 1 25 26
M  V30 26 2 7 27
M  V30 27 1 27 28
M  V30 28 2 28 29
M  V30 29 1 29 5
M  V30 30 1 25 8
M  V30 31 1 16 10
M  V30 32 1 1 30
M  V30 33 1 1 31
M  V30 34 1 1 32
M  V30 35 1 4 33
M  V30 36 1 6 34
M  V30 37 1 11 35
M  V30 38 1 12 36
M  V30 39 1 15 37
M  V30 40 1 16 38
M  V30 41 1 20 39
M  V30 42 1 20 40
M  V30 43 1 21 41
M  V30 44 1 21 42
M  V30 45 1 24 43
M  V30 46 1 26 44
M  V30 47 1 26 45
M  V30 48 1 26 46
M  V30 49 1 27 47
M  V30 50 1 28 48
M  V30 END BOND
M  V30 END CTAB
M  END
>  <Dataset>  (913) 
ChEMBL_Kinases

>  <Ligand_Instance>  (913) 
nan

>  <PDB_ID>  (913) 
nan

>  <Standardized_SMILES>  (913) 
CC(=O)Nc1cc(-c2c(-c3ccc(F)cc3)nc(SCCC(=O)O)n2C)ccn1

>  <Name>  (913) 
nan

>  <Pocket>  (913) 
nan

>  <ATP_Site>  (913) 
nan

>  <Peripheral>  (913) 
nan

>  <Num_H_Atoms_ProtBoundConf>  (913) 
nan

>  <Num_Resolved_Atoms>  (913) 
nan

>  <Num_Not_Resolved_Atoms>  (913) 
nan

$$$$
CHEMBL3394099
     RDKit          3D

  0  0  0  0  0  0  0  0  0  0999 V3000
M  V30 BEGIN CTAB
M  V30 COUNTS 59 61 0 0 0
M  V30 BEGIN ATOM
M  V30 1 C -2.967949 0.852697 -0.409261 0
M  V30 2 O -2.553255 -0.478150 -0.395413 0
M  V30 3 C -2.528259 -0.922316 -1.726346 0
M  V30 4 C -1.099529 -1.385575 -2.050160 0
M  V30 5 N -0.164275 -0.307397 -1.889050 0
M  V30 6 C 0.177467 0.539773 -2.875463 0
M  V30 7 S -0.338232 0.636249 -4.582390 0
M  V30 8 C -1.781011 1.659426 -4.817509 0
M  V30 9 C -1.554733 3.126769 -4.511270 0
M  V30 10 C -2.784399 3.911831 -4.727472 0
M  V30 11 O -3.180436 4.362696 -5.815759 0
M  V30 12 O -3.645387 4.229202 -3.683254 0
M  V30 13 N 1.076397 1.416764 -2.343025 0
M  V30 14 C 1.274929 1.108224 -1.064036 0
M  V30 15 C 2.201749 1.894936 -0.244418 0
M  V30 16 C 2.026680 3.242249 0.005133 0
M  V30 17 C 2.914438 3.960800 0.779006 0
M  V30 18 C 4.031156 3.341863 1.341276 0
M  V30 19 F 4.908633 4.049668 2.105471 0
M  V30 20 C 4.227180 1.981353 1.101931 0
M  V30 21 C 3.314808 1.299877 0.322025 0
M  V30 22 C 0.491051 0.014697 -0.767396 0
M  V30 23 C 0.449858 -0.606740 0.552334 0
M  V30 24 C -0.021882 0.199686 1.575315 0
M  V30 25 C -0.121266 -0.245550 2.896416 0
M  V30 26 N 0.267862 -1.526824 3.161107 0
M  V30 27 C 0.726231 -2.311309 2.168751 0
M  V30 28 N 1.121126 -3.640857 2.492728 0
M  V30 29 C -0.026850 -4.502984 2.357097 0
M  V30 30 C -0.025904 -5.986018 2.610973 0
M  V30 31 O -1.144475 -4.038900 2.002462 0
M  V30 32 C 0.834409 -1.897250 0.856933 0
M  V30 33 O -3.417119 -1.984371 -1.803287 0
M  V30 34 C -4.461432 -1.750732 -2.683714 0
M  V30 35 H -2.984615 1.196616 0.646930 0
M  V30 36 H -3.958702 0.986703 -0.896775 0
M  V30 37 H -2.267092 1.510673 -0.984345 0
M  V30 38 H -2.840606 -0.101889 -2.391732 0
M  V30 39 H -1.171028 -1.732633 -3.111221 0
M  V30 40 H -0.842312 -2.194601 -1.347083 0
M  V30 41 H -2.007905 1.633303 -5.919466 0
M  V30 42 H -2.712175 1.280823 -4.348393 0
M  V30 43 H -0.732699 3.505208 -5.150467 0
M  V30 44 H -1.185200 3.220109 -3.472250 0
M  V30 45 H -4.639162 4.334960 -3.823297 0
M  V30 46 H 1.145584 3.728678 -0.439375 0
M  V30 47 H 2.765175 5.026925 0.969589 0
M  V30 48 H 5.088330 1.495461 1.532397 0
M  V30 49 H 3.522800 0.239675 0.172365 0
M  V30 50 H -0.350885 1.234048 1.440065 0
M  V30 51 H -0.488338 0.374811 3.703771 0
M  V30 52 H 1.954465 -4.226538 2.797412 0
M  V30 53 H -0.207557 -6.542584 1.682936 0
M  V30 54 H -0.909808 -6.177159 3.269016 0
M  V30 55 H 0.907812 -6.321821 3.099189 0
M  V30 56 H 1.196311 -2.497343 0.038829 0
M  V30 57 H -5.173959 -2.615451 -2.739400 0
M  V30 58 H -4.048335 -1.658912 -3.723076 0
M  V30 59 H -5.001749 -0.808740 -2.497589 0
M  V30 END ATOM
M  V30 BEGIN BOND
M  V30 1 1 1 2
M  V30 2 1 2 3
M  V30 3 1 3 4
M  V30 4 1 4 5
M  V30 5 1 5 6
M  V30 6 1 6 7
M  V30 7 1 7 8
M  V30 8 1 8 9
M  V30 9 1 9 10
M  V30 10 2 10 11
M  V30 11 1 10 12
M  V30 12 2 6 13
M  V30 13 1 13 14
M  V30 14 1 14 15
M  V30 15 2 15 16
M  V30 16 1 16 17
M  V30 17 2 17 18
M  V30 18 1 18 19
M  V30 19 1 18 20
M  V30 20 2 20 21
M  V30 21 2 14 22
M  V30 22 1 22 23
M  V30 23 2 23 24
M  V30 24 1 24 25
M  V30 25 2 25 26
M  V30 26 1 26 27
M  V30 27 1 27 28
M  V30 28 1 28 29
M  V30 29 1 29 30
M  V30 30 2 29 31
M  V30 31 2 27 32
M  V30 32 1 3 33
M  V30 33 1 33 34
M  V30 34 1 22 5
M  V30 35 1 32 23
M  V30 36 1 21 15
M  V30 37 1 1 35
M  V30 38 1 1 36
M  V30 39 1 1 37
M  V30 40 1 3 38
M  V30 41 1 4 39
M  V30 42 1 4 40
M  V30 43 1 8 41
M  V30 44 1 8 42
M  V30 45 1 9 43
M  V30 46 1 9 44
M  V30 47 1 12 45
M  V30 48 1 16 46
M  V30 49 1 17 47
M  V30 50 1 20 48
M  V30 51 1 21 49
M  V30 52 1 24 50
M  V30 53 1 25 51
M  V30 54 1 28 52
M  V30 55 1 30 53
M  V30 56 1 30 54
M  V30 57 1 30 55
M  V30 58 1 32 56
M  V30 59 1 34 57
M  V30 60 1 34 58
M  V30 61 1 34 59
M  V30 END BOND
M  V30 END CTAB
M  END
>  <Dataset>  (914) 
ChEMBL_Kinases

>  <Ligand_Instance>  (914) 
nan

>  <PDB_ID>  (914) 
nan

>  <Standardized_SMILES>  (914) 
COC(Cn1c(SCCC(=O)O)nc(-c2ccc(F)cc2)c1-c1ccnc(NC(C)=O)c1)OC

>  <Name>  (914) 
nan

>  <Pocket>  (914) 
nan

>  <ATP_Site>  (914) 
nan

>  <Peripheral>  (914) 
nan

>  <Num_H_Atoms_ProtBoundConf>  (914) 
nan

>  <Num_Resolved_Atoms>  (914) 
nan

>  <Num_Not_Resolved_Atoms>  (914) 
nan

$$$$
CHEMBL3670410
     RDKit          3D

  0  0  0  0  0  0  0  0  0  0999 V3000
M  V30 BEGIN CTAB
M  V30 COUNTS 41 43 0 0 0
M  V30 BEGIN ATOM
M  V30 1 N -2.006455 -5.333158 2.389129 0
M  V30 2 C -0.609527 -5.628961 2.192014 0
M  V30 3 O -0.170178 -6.793866 2.371663 0
M  V30 4 C 0.322725 -4.586983 1.781020 0
M  V30 5 C 1.641673 -4.955950 1.616715 0
M  V30 6 C 2.506362 -3.943498 1.226007 0
M  V30 7 C 2.020517 -2.680215 1.032139 0
M  V30 8 C 0.708722 -2.313111 1.195633 0
M  V30 9 C 0.263333 -1.027422 0.988221 0
M  V30 10 N 1.120262 0.012139 0.594543 0
M  V30 11 C 1.329755 1.352653 0.218232 0 CFG=1
M  V30 12 C 0.616385 1.765777 -1.073465 0
M  V30 13 C 1.354424 2.992409 -1.586650 0
M  V30 14 C 1.560138 3.993305 -0.492326 0
M  V30 15 N 0.693997 3.654981 0.621958 0
M  V30 16 C 1.069174 2.409122 1.249386 0
M  V30 17 C -1.089268 -0.903660 1.214156 0
M  V30 18 C -1.744063 0.383909 1.088956 0
M  V30 19 O -2.996116 0.550481 1.274072 0
M  V30 20 O -2.313652 1.620240 0.958633 0
M  V30 21 C -1.973277 -1.878646 1.599281 0
M  V30 22 N -1.430134 -3.089650 1.771088 0
M  V30 23 C -0.131593 -3.308445 1.577894 0
M  V30 24 H -2.817203 -5.643731 1.813212 0
M  V30 25 H -2.622203 -4.814988 3.031640 0
M  V30 26 H 1.987101 -5.965081 1.779713 0
M  V30 27 H 3.539522 -4.242230 1.099398 0
M  V30 28 H 2.784467 -1.996662 0.732658 0
M  V30 29 H 2.099107 -0.330875 0.555494 0
M  V30 30 H 2.428679 1.496645 -0.053840 0
M  V30 31 H 0.704720 0.922932 -1.759381 0
M  V30 32 H -0.422520 2.039038 -0.867087 0
M  V30 33 H 2.349334 2.670583 -1.971512 0
M  V30 34 H 0.798731 3.479044 -2.412492 0
M  V30 35 H 2.622021 4.094622 -0.196369 0
M  V30 36 H 1.255672 4.990972 -0.860682 0
M  V30 37 H 0.606800 4.430599 1.293966 0
M  V30 38 H 0.316550 2.100159 1.985220 0
M  V30 39 H 2.013253 2.635847 1.814609 0
M  V30 40 H -1.814682 2.516348 0.991851 0
M  V30 41 H -3.019718 -1.770723 1.770384 0
M  V30 END ATOM
M  V30 BEGIN BOND
M  V30 1 1 1 2
M  V30 2 2 2 3
M  V30 3 1 2 4
M  V30 4 2 4 5
M  V30 5 1 5 6
M  V30 6 2 6 7
M  V30 7 1 7 8
M  V30 8 2 8 9
M  V30 9 1 9 10
M  V30 10 1 10 11
M  V30 11 1 11 12
M  V30 12 1 12 13
M  V30 13 1 13 14
M  V30 14 1 14 15
M  V30 15 1 15 16
M  V30 16 1 9 17
M  V30 17 1 17 18
M  V30 18 2 18 19
M  V30 19 1 18 20
M  V30 20 2 17 21
M  V30 21 1 21 22
M  V30 22 2 22 23
M  V30 23 1 23 4
M  V30 24 1 23 8
M  V30 25 1 16 11
M  V30 26 1 1 24
M  V30 27 1 1 25
M  V30 28 1 5 26
M  V30 29 1 6 27
M  V30 30 1 7 28
M  V30 31 1 10 29
M  V30 32 1 11 30 CFG=3
M  V30 33 1 12 31
M  V30 34 1 12 32
M  V30 35 1 13 33
M  V30 36 1 13 34
M  V30 37 1 14 35
M  V30 38 1 14 36
M  V30 39 1 15 37
M  V30 40 1 16 38
M  V30 41 1 16 39
M  V30 42 1 20 40
M  V30 43 1 21 41
M  V30 END BOND
M  V30 END CTAB
M  END
>  <Dataset>  (915) 
ChEMBL_Kinases

>  <Ligand_Instance>  (915) 
nan

>  <PDB_ID>  (915) 
nan

>  <Standardized_SMILES>  (915) 
NC(=O)c1cccc2c(N[C@H]3CCCNC3)c(C(=O)O)cnc12

>  <Name>  (915) 
nan

>  <Pocket>  (915) 
nan

>  <ATP_Site>  (915) 
nan

>  <Peripheral>  (915) 
nan

>  <Num_H_Atoms_ProtBoundConf>  (915) 
nan

>  <Num_Resolved_Atoms>  (915) 
nan

>  <Num_Not_Resolved_Atoms>  (915) 
nan

$$$$
CHEMBL3394100
     RDKit          3D

  0  0  0  0  0  0  0  0  0  0999 V3000
M  V30 BEGIN CTAB
M  V30 COUNTS 46 48 0 0 0
M  V30 BEGIN ATOM
M  V30 1 C -1.771085 -4.913768 4.459421 0
M  V30 2 C -1.064030 -3.587605 4.377648 0
M  V30 3 O -1.068152 -2.510138 5.037094 0
M  V30 4 N -0.171982 -3.567182 3.270944 0
M  V30 5 C 0.732613 -2.623345 2.709157 0
M  V30 6 C 0.386432 -1.711662 1.740842 0
M  V30 7 C 1.274798 -0.800603 1.203515 0
M  V30 8 C 0.891701 0.156642 0.180430 0
M  V30 9 C 0.855084 1.537347 0.055609 0
M  V30 10 C 1.298364 2.332944 1.194745 0
M  V30 11 C 2.380755 3.193284 1.061138 0
M  V30 12 C 2.833358 3.963388 2.112047 0
M  V30 13 C 2.195149 3.880023 3.334244 0
M  V30 14 F 2.584059 4.606037 4.410414 0
M  V30 15 C 1.116167 3.041994 3.520290 0
M  V30 16 C 0.714862 2.300455 2.429928 0
M  V30 17 N 0.384222 1.803074 -1.180173 0
M  V30 18 C 0.129885 0.627614 -1.819991 0
M  V30 19 S -0.507700 0.718925 -3.488683 0
M  V30 20 C -2.282023 0.771964 -3.413074 0
M  V30 21 C -3.074852 -0.205754 -3.809887 0
M  V30 22 C -2.364527 -1.360473 -4.327575 0
M  V30 23 O -1.104500 -1.396386 -4.380506 0
M  V30 24 O -2.684861 -2.600891 -4.851281 0
M  V30 25 N 0.440613 -0.381897 -0.986718 0
M  V30 26 C 0.252977 -1.742584 -1.448436 0
M  V30 27 C 2.581586 -0.830328 1.686818 0
M  V30 28 C 2.907437 -1.757042 2.662097 0
M  V30 29 N 2.007700 -2.632926 3.162697 0
M  V30 30 H -2.466644 -4.825489 5.308176 0
M  V30 31 H -2.262249 -5.081191 3.483567 0
M  V30 32 H -1.022074 -5.719175 4.630510 0
M  V30 33 H 0.006494 -4.345204 2.574563 0
M  V30 34 H -0.635302 -1.725005 1.397075 0
M  V30 35 H 2.918604 3.293594 0.111179 0
M  V30 36 H 3.671381 4.645416 2.050938 0
M  V30 37 H 0.577959 2.936072 4.455169 0
M  V30 38 H -0.130755 1.632621 2.546426 0
M  V30 39 H -2.781278 1.662185 -3.015475 0
M  V30 40 H -4.152189 -0.221337 -3.784531 0
M  V30 41 H -2.546030 -3.446841 -4.313235 0
M  V30 42 H 0.637092 -2.488256 -0.723334 0
M  V30 43 H 0.768744 -1.873460 -2.424759 0
M  V30 44 H -0.826391 -1.871930 -1.665053 0
M  V30 45 H 3.330446 -0.139361 1.305424 0
M  V30 46 H 3.926439 -1.790217 3.048505 0
M  V30 END ATOM
M  V30 BEGIN BOND
M  V30 1 1 1 2
M  V30 2 2 2 3
M  V30 3 1 2 4
M  V30 4 1 4 5
M  V30 5 2 5 6
M  V30 6 1 6 7
M  V30 7 1 7 8
M  V30 8 2 8 9
M  V30 9 1 9 10
M  V30 10 2 10 11
M  V30 11 1 11 12
M  V30 12 2 12 13
M  V30 13 1 13 14
M  V30 14 1 13 15
M  V30 15 2 15 16
M  V30 16 1 9 17
M  V30 17 2 17 18
M  V30 18 1 18 19
M  V30 19 1 19 20
M  V30 20 2 20 21
M  V30 21 1 21 22
M  V30 22 2 22 23
M  V30 23 1 22 24
M  V30 24 1 18 25
M  V30 25 1 25 26
M  V30 26 2 7 27
M  V30 27 1 27 28
M  V30 28 2 28 29
M  V30 29 1 29 5
M  V30 30 1 25 8
M  V30 31 1 16 10
M  V30 32 1 1 30
M  V30 33 1 1 31
M  V30 34 1 1 32
M  V30 35 1 4 33
M  V30 36 1 6 34
M  V30 37 1 11 35
M  V30 38 1 12 36
M  V30 39 1 15 37
M  V30 40 1 16 38
M  V30 41 1 20 39
M  V30 42 1 21 40
M  V30 43 1 24 41
M  V30 44 1 26 42
M  V30 45 1 26 43
M  V30 46 1 26 44
M  V30 47 1 27 45
M  V30 48 1 28 46
M  V30 END BOND
M  V30 END CTAB
M  END
>  <Dataset>  (916) 
ChEMBL_Kinases

>  <Ligand_Instance>  (916) 
nan

>  <PDB_ID>  (916) 
nan

>  <Standardized_SMILES>  (916) 
CC(=O)Nc1cc(-c2c(-c3ccc(F)cc3)nc(S/C=C\C(=O)O)n2C)ccn1

>  <Name>  (916) 
nan

>  <Pocket>  (916) 
nan

>  <ATP_Site>  (916) 
nan

>  <Peripheral>  (916) 
nan

>  <Num_H_Atoms_ProtBoundConf>  (916) 
nan

>  <Num_Resolved_Atoms>  (916) 
nan

>  <Num_Not_Resolved_Atoms>  (916) 
nan

$$$$
CHEMBL3670408
     RDKit          3D

  0  0  0  0  0  0  0  0  0  0999 V3000
M  V30 BEGIN CTAB
M  V30 COUNTS 37 39 0 0 0
M  V30 BEGIN ATOM
M  V30 1 N -2.482610 -5.052556 -1.326713 0
M  V30 2 C -1.550245 -5.223812 -0.255455 0
M  V30 3 O -2.100439 -6.328927 -0.415767 0
M  V30 4 C -0.693587 -4.183389 0.260070 0
M  V30 5 C 0.152850 -4.480767 1.304353 0
M  V30 6 C 0.954783 -3.423474 1.749882 0
M  V30 7 C 0.825316 -2.217432 1.119109 0
M  V30 8 C -0.022843 -1.930760 0.078492 0
M  V30 9 C -0.047345 -0.666495 -0.469296 0
M  V30 10 N 0.722236 0.428419 -0.032906 0
M  V30 11 C 1.658850 1.060330 0.825134 0
M  V30 12 C 1.130388 1.261871 2.251738 0
M  V30 13 C 0.259303 2.501558 2.245207 0
M  V30 14 N 1.015618 3.715712 2.060992 0
M  V30 15 C 2.289523 3.413534 1.428211 0
M  V30 16 C 2.119418 2.408371 0.312202 0
M  V30 17 N -0.923646 -0.563598 -1.478323 0
M  V30 18 C -1.708030 -1.528628 -1.944589 0
M  V30 19 N -1.622325 -2.723699 -1.356231 0
M  V30 20 C -0.804509 -2.973125 -0.351808 0
M  V30 21 H -3.263620 -4.401726 -1.630256 0
M  V30 22 H -3.278231 -4.485648 -1.749618 0
M  V30 23 H 0.130017 -5.485525 1.686392 0
M  V30 24 H 1.618571 -3.644069 2.561829 0
M  V30 25 H 1.471134 -1.460274 1.501874 0
M  V30 26 H 0.498780 1.245537 -0.669396 0
M  V30 27 H 2.607767 0.455910 0.954824 0
M  V30 28 H 1.957143 1.324921 2.969047 0
M  V30 29 H 0.470160 0.421756 2.482949 0
M  V30 30 H -0.451715 2.401861 1.421692 0
M  V30 31 H -0.297028 2.618095 3.197211 0
M  V30 32 H 1.163937 4.246556 2.931445 0
M  V30 33 H 2.655526 4.358029 0.950614 0
M  V30 34 H 3.057139 3.078846 2.159382 0
M  V30 35 H 1.345248 2.833093 -0.366328 0
M  V30 36 H 3.096118 2.304188 -0.193626 0
M  V30 37 H -2.356005 -1.261108 -2.769366 0
M  V30 END ATOM
M  V30 BEGIN BOND
M  V30 1 1 1 2
M  V30 2 2 2 3
M  V30 3 1 2 4
M  V30 4 2 4 5
M  V30 5 1 5 6
M  V30 6 2 6 7
M  V30 7 1 7 8
M  V30 8 2 8 9
M  V30 9 1 9 10
M  V30 10 1 10 11
M  V30 11 1 11 12
M  V30 12 1 12 13
M  V30 13 1 13 14
M  V30 14 1 14 15
M  V30 15 1 15 16
M  V30 16 1 9 17
M  V30 17 2 17 18
M  V30 18 1 18 19
M  V30 19 2 19 20
M  V30 20 1 20 4
M  V30 21 1 20 8
M  V30 22 1 16 11
M  V30 23 1 1 21
M  V30 24 1 1 22
M  V30 25 1 5 23
M  V30 26 1 6 24
M  V30 27 1 7 25
M  V30 28 1 10 26
M  V30 29 1 11 27
M  V30 30 1 12 28
M  V30 31 1 12 29
M  V30 32 1 13 30
M  V30 33 1 13 31
M  V30 34 1 14 32
M  V30 35 1 15 33
M  V30 36 1 15 34
M  V30 37 1 16 35
M  V30 38 1 16 36
M  V30 39 1 18 37
M  V30 END BOND
M  V30 END CTAB
M  END
>  <Dataset>  (917) 
ChEMBL_Kinases

>  <Ligand_Instance>  (917) 
nan

>  <PDB_ID>  (917) 
nan

>  <Standardized_SMILES>  (917) 
NC(=O)c1cccc2c(NC3CCNCC3)ncnc12

>  <Name>  (917) 
nan

>  <Pocket>  (917) 
nan

>  <ATP_Site>  (917) 
nan

>  <Peripheral>  (917) 
nan

>  <Num_H_Atoms_ProtBoundConf>  (917) 
nan

>  <Num_Resolved_Atoms>  (917) 
nan

>  <Num_Not_Resolved_Atoms>  (917) 
nan

$$$$
CHEMBL3394102
     RDKit          3D

  0  0  0  0  0  0  0  0  0  0999 V3000
M  V30 BEGIN CTAB
M  V30 COUNTS 50 53 0 0 0
M  V30 BEGIN ATOM
M  V30 1 C 5.911290 -0.350286 2.902470 0
M  V30 2 C 4.990490 -0.868563 1.849339 0
M  V30 3 O 4.930258 -2.094697 1.624747 0
M  V30 4 N 4.197155 0.083699 1.124704 0
M  V30 5 C 3.249375 -0.120978 0.083065 0
M  V30 6 C 1.913085 -0.332430 0.321804 0
M  V30 7 C 1.007583 -0.529283 -0.727586 0
M  V30 8 C -0.366920 -0.736512 -0.256376 0
M  V30 9 C -1.054991 0.225833 0.439998 0
M  V30 10 C -0.615360 1.562920 0.839658 0
M  V30 11 C -0.496482 2.105408 2.101551 0
M  V30 12 C -0.053931 3.405119 2.233060 0
M  V30 13 C 0.267371 4.159025 1.124112 0
M  V30 14 F 0.702684 5.445863 1.305048 0
M  V30 15 C 0.155420 3.633900 -0.154355 0
M  V30 16 C -0.289193 2.329201 -0.279074 0
M  V30 17 N -2.281841 -0.260325 0.730432 0
M  V30 18 C -2.349610 -1.505455 0.220274 0
M  V30 19 S -3.748787 -2.583758 0.327166 0
M  V30 20 C -3.730547 -3.612782 1.785013 0
M  V30 21 C -4.224058 -3.342236 2.978983 0
M  V30 22 C -4.859100 -2.040419 3.109293 0
M  V30 23 O -4.923242 -1.242782 2.140319 0
M  V30 24 O -5.407376 -1.660691 4.317901 0
M  V30 25 N -1.179566 -1.827271 -0.396078 0
M  V30 26 C -0.767366 -3.021071 -1.080508 0
M  V30 27 C -1.645042 -4.106595 -1.448972 0
M  V30 28 C -1.135152 -3.179183 -2.554267 0
M  V30 29 C 1.484344 -0.506642 -2.005557 0
M  V30 30 C 2.831694 -0.292170 -2.217553 0
M  V30 31 N 3.695330 -0.103624 -1.199371 0
M  V30 32 H 5.422258 0.512186 3.408125 0
M  V30 33 H 6.058040 -1.150968 3.677539 0
M  V30 34 H 6.892166 -0.089070 2.483926 0
M  V30 35 H 4.240347 1.129688 1.308564 0
M  V30 36 H 1.649524 -0.329619 1.385630 0
M  V30 37 H -0.779140 1.411282 2.880930 0
M  V30 38 H 0.014885 3.763869 3.249337 0
M  V30 39 H 0.419788 4.266359 -0.989000 0
M  V30 40 H -0.341647 2.013693 -1.322903 0
M  V30 41 H -3.227803 -4.567007 1.565954 0
M  V30 42 H -4.159455 -4.029688 3.784511 0
M  V30 43 H -5.458196 -0.679564 4.617250 0
M  V30 44 H 0.297177 -3.299101 -0.900653 0
M  V30 45 H -2.740896 -4.144216 -1.410879 0
M  V30 46 H -1.227223 -5.144634 -1.537378 0
M  V30 47 H -1.851298 -2.442108 -2.990448 0
M  V30 48 H -0.407137 -3.548157 -3.277061 0
M  V30 49 H 0.728778 -0.665198 -2.754159 0
M  V30 50 H 3.163837 -0.282400 -3.249264 0
M  V30 END ATOM
M  V30 BEGIN BOND
M  V30 1 1 1 2
M  V30 2 2 2 3
M  V30 3 1 2 4
M  V30 4 1 4 5
M  V30 5 2 5 6
M  V30 6 1 6 7
M  V30 7 1 7 8
M  V30 8 2 8 9
M  V30 9 1 9 10
M  V30 10 2 10 11
M  V30 11 1 11 12
M  V30 12 2 12 13
M  V30 13 1 13 14
M  V30 14 1 13 15
M  V30 15 2 15 16
M  V30 16 1 9 17
M  V30 17 2 17 18
M  V30 18 1 18 19
M  V30 19 1 19 20
M  V30 20 2 20 21
M  V30 21 1 21 22
M  V30 22 2 22 23
M  V30 23 1 22 24
M  V30 24 1 18 25
M  V30 25 1 25 26
M  V30 26 1 26 27
M  V30 27 1 27 28
M  V30 28 2 7 29
M  V30 29 1 29 30
M  V30 30 2 30 31
M  V30 31 1 31 5
M  V30 32 1 25 8
M  V30 33 1 28 26
M  V30 34 1 16 10
M  V30 35 1 1 32
M  V30 36 1 1 33
M  V30 37 1 1 34
M  V30 38 1 4 35
M  V30 39 1 6 36
M  V30 40 1 11 37
M  V30 41 1 12 38
M  V30 42 1 15 39
M  V30 43 1 16 40
M  V30 44 1 20 41
M  V30 45 1 21 42
M  V30 46 1 24 43
M  V30 47 1 26 44
M  V30 48 1 27 45
M  V30 49 1 27 46
M  V30 50 1 28 47
M  V30 51 1 28 48
M  V30 52 1 29 49
M  V30 53 1 30 50
M  V30 END BOND
M  V30 END CTAB
M  END
>  <Dataset>  (918) 
ChEMBL_Kinases

>  <Ligand_Instance>  (918) 
nan

>  <PDB_ID>  (918) 
nan

>  <Standardized_SMILES>  (918) 
CC(=O)Nc1cc(-c2c(-c3ccc(F)cc3)nc(S/C=C\C(=O)O)n2C2CC2)ccn1

>  <Name>  (918) 
nan

>  <Pocket>  (918) 
nan

>  <ATP_Site>  (918) 
nan

>  <Peripheral>  (918) 
nan

>  <Num_H_Atoms_ProtBoundConf>  (918) 
nan

>  <Num_Resolved_Atoms>  (918) 
nan

>  <Num_Not_Resolved_Atoms>  (918) 
nan

$$$$
CHEMBL3394103
     RDKit          3D

  0  0  0  0  0  0  0  0  0  0999 V3000
M  V30 BEGIN CTAB
M  V30 COUNTS 53 56 0 0 0
M  V30 BEGIN ATOM
M  V30 1 C 3.211116 -1.937964 6.155686 0
M  V30 2 C 2.519467 -2.323891 4.888929 0
M  V30 3 O 1.773652 -3.291199 5.120977 0
M  V30 4 N 2.792674 -1.590105 3.703729 0
M  V30 5 C 2.248503 -1.789514 2.405093 0
M  V30 6 C 1.125562 -1.229400 1.879473 0
M  V30 7 C 0.723537 -1.534223 0.571401 0
M  V30 8 C -0.481373 -0.864184 0.147136 0
M  V30 9 C -0.458749 0.531745 0.067170 0
M  V30 10 C 0.498946 1.600104 0.303979 0
M  V30 11 C 0.130382 2.503766 1.292753 0
M  V30 12 C 0.933761 3.580401 1.638970 0
M  V30 13 C 2.126810 3.744798 0.975278 0
M  V30 14 F 2.930104 4.788891 1.294664 0
M  V30 15 C 2.517135 2.846012 -0.024015 0
M  V30 16 C 1.692616 1.786660 -0.341913 0
M  V30 17 N -1.712696 0.877575 -0.351938 0
M  V30 18 C -2.432647 -0.248238 -0.509899 0
M  V30 19 S -4.133791 -0.339550 -1.043623 0
M  V30 20 C -4.814367 1.257371 -1.358329 0
M  V30 21 C -4.546953 1.964999 -2.442917 0
M  V30 22 C -3.633819 1.324706 -3.379978 0
M  V30 23 O -3.145910 0.167537 -3.144431 0
M  V30 24 O -2.787210 0.875047 -4.378825 0
M  V30 25 N -1.677067 -1.331077 -0.202763 0
M  V30 26 C -2.112209 -2.685027 -0.256022 0
M  V30 27 C -1.581315 -3.659717 0.741307 0
M  V30 28 C -1.196973 -4.566511 -0.414196 0
M  V30 29 C -1.665096 -3.537204 -1.408017 0
M  V30 30 C 1.533597 -2.418317 -0.113563 0
M  V30 31 C 2.654618 -2.979066 0.407710 0
M  V30 32 N 3.003336 -2.655733 1.673072 0
M  V30 33 H 3.721810 -2.820987 6.603185 0
M  V30 34 H 4.033007 -1.211778 5.927974 0
M  V30 35 H 2.434154 -1.521111 6.828868 0
M  V30 36 H 3.474260 -0.801980 3.769485 0
M  V30 37 H 0.597273 -0.557100 2.538396 0
M  V30 38 H -0.790362 2.472939 1.883858 0
M  V30 39 H 0.674170 4.303324 2.406211 0
M  V30 40 H 3.458321 2.993679 -0.532652 0
M  V30 41 H 1.944908 1.074018 -1.096079 0
M  V30 42 H -5.481109 1.707936 -0.658776 0
M  V30 43 H -4.915499 2.942133 -2.715163 0
M  V30 44 H -2.392916 1.596472 -5.003472 0
M  V30 45 H -3.246134 -2.746643 -0.219109 0
M  V30 46 H -2.349078 -4.204525 1.368869 0
M  V30 47 H -0.755423 -3.358568 1.382497 0
M  V30 48 H -0.112998 -4.781080 -0.416331 0
M  V30 49 H -1.751571 -5.546638 -0.449944 0
M  V30 50 H -2.491748 -3.987879 -2.032832 0
M  V30 51 H -0.921518 -3.146802 -2.097053 0
M  V30 52 H 1.193061 -2.625964 -1.112944 0
M  V30 53 H 3.227817 -3.662119 -0.204282 0
M  V30 END ATOM
M  V30 BEGIN BOND
M  V30 1 1 1 2
M  V30 2 2 2 3
M  V30 3 1 2 4
M  V30 4 1 4 5
M  V30 5 2 5 6
M  V30 6 1 6 7
M  V30 7 1 7 8
M  V30 8 2 8 9
M  V30 9 1 9 10
M  V30 10 2 10 11
M  V30 11 1 11 12
M  V30 12 2 12 13
M  V30 13 1 13 14
M  V30 14 1 13 15
M  V30 15 2 15 16
M  V30 16 1 9 17
M  V30 17 2 17 18
M  V30 18 1 18 19
M  V30 19 1 19 20
M  V30 20 2 20 21
M  V30 21 1 21 22
M  V30 22 2 22 23
M  V30 23 1 22 24
M  V30 24 1 18 25
M  V30 25 1 25 26
M  V30 26 1 26 27
M  V30 27 1 27 28
M  V30 28 1 28 29
M  V30 29 2 7 30
M  V30 30 1 30 31
M  V30 31 2 31 32
M  V30 32 1 32 5
M  V30 33 1 25 8
M  V30 34 1 29 26
M  V30 35 1 16 10
M  V30 36 1 1 33
M  V30 37 1 1 34
M  V30 38 1 1 35
M  V30 39 1 4 36
M  V30 40 1 6 37
M  V30 41 1 11 38
M  V30 42 1 12 39
M  V30 43 1 15 40
M  V30 44 1 16 41
M  V30 45 1 20 42
M  V30 46 1 21 43
M  V30 47 1 24 44
M  V30 48 1 26 45
M  V30 49 1 27 46
M  V30 50 1 27 47
M  V30 51 1 28 48
M  V30 52 1 28 49
M  V30 53 1 29 50
M  V30 54 1 29 51
M  V30 55 1 30 52
M  V30 56 1 31 53
M  V30 END BOND
M  V30 END CTAB
M  END
>  <Dataset>  (919) 
ChEMBL_Kinases

>  <Ligand_Instance>  (919) 
nan

>  <PDB_ID>  (919) 
nan

>  <Standardized_SMILES>  (919) 
CC(=O)Nc1cc(-c2c(-c3ccc(F)cc3)nc(S/C=C\C(=O)O)n2C2CCC2)ccn1

>  <Name>  (919) 
nan

>  <Pocket>  (919) 
nan

>  <ATP_Site>  (919) 
nan

>  <Peripheral>  (919) 
nan

>  <Num_H_Atoms_ProtBoundConf>  (919) 
nan

>  <Num_Resolved_Atoms>  (919) 
nan

>  <Num_Not_Resolved_Atoms>  (919) 
nan

$$$$
CHEMBL3394104
     RDKit          3D

  0  0  0  0  0  0  0  0  0  0999 V3000
M  V30 BEGIN CTAB
M  V30 COUNTS 56 59 0 0 0
M  V30 BEGIN ATOM
M  V30 1 C 4.870501 -3.922663 2.933995 0
M  V30 2 C 3.807120 -3.812160 1.882740 0
M  V30 3 O 2.989983 -4.705783 1.556677 0
M  V30 4 N 3.752579 -2.573557 1.221738 0
M  V30 5 C 2.915231 -2.074505 0.190779 0
M  V30 6 C 1.724139 -1.415942 0.380324 0
M  V30 7 C 0.941331 -0.946588 -0.662940 0
M  V30 8 C -0.247508 -0.281951 -0.217035 0
M  V30 9 C -0.212605 1.036778 0.213167 0
M  V30 10 C 0.837543 2.048109 0.344879 0
M  V30 11 C 0.758658 3.204791 -0.436751 0
M  V30 12 C 1.720169 4.192447 -0.351329 0
M  V30 13 C 2.797254 4.071439 0.512539 0
M  V30 14 F 3.775246 4.988746 0.653951 0
M  V30 15 C 2.888025 2.935224 1.290086 0
M  V30 16 C 1.919911 1.958813 1.192831 0
M  V30 17 N -1.486968 1.319517 0.556476 0
M  V30 18 C -2.235491 0.249547 0.348702 0
M  V30 19 S -4.006172 0.290835 0.712171 0
M  V30 20 C -4.470683 1.874470 1.330865 0
M  V30 21 C -4.644622 1.884200 2.659148 0
M  V30 22 C -4.475036 0.723960 3.527848 0
M  V30 23 O -4.636502 0.717973 4.789018 0
M  V30 24 O -4.110182 -0.533651 3.067922 0
M  V30 25 N -1.478349 -0.750433 -0.130893 0
M  V30 26 C -2.079728 -1.991464 -0.415263 0
M  V30 27 C -1.237995 -3.105564 -0.895740 0
M  V30 28 C -2.309735 -4.186362 -1.170841 0
M  V30 29 C -3.543482 -3.425974 -1.554160 0
M  V30 30 C -3.149459 -1.943080 -1.516373 0
M  V30 31 C 1.439853 -1.184410 -1.949830 0
M  V30 32 C 2.636719 -1.846844 -2.119403 0
M  V30 33 N 3.348190 -2.276716 -1.066749 0
M  V30 34 H 5.890748 -3.868910 2.515351 0
M  V30 35 H 4.704325 -3.018217 3.586871 0
M  V30 36 H 4.661251 -4.796792 3.556910 0
M  V30 37 H 4.367943 -1.739077 1.387635 0
M  V30 38 H 1.481009 -1.313665 1.447883 0
M  V30 39 H -0.054409 3.377035 -1.139530 0
M  V30 40 H 1.724434 5.110900 -0.922995 0
M  V30 41 H 3.709143 2.799124 1.976216 0
M  V30 42 H 2.008028 1.077428 1.811130 0
M  V30 43 H -4.644320 2.838861 0.861639 0
M  V30 44 H -4.935748 2.795801 3.199360 0
M  V30 45 H -3.428695 -1.069569 3.581654 0
M  V30 46 H -2.627074 -2.356513 0.487994 0
M  V30 47 H -0.784625 -2.962640 -1.898665 0
M  V30 48 H -0.561768 -3.563967 -0.148181 0
M  V30 49 H -1.972400 -4.877753 -1.972397 0
M  V30 50 H -2.473150 -4.827459 -0.283152 0
M  V30 51 H -4.285689 -3.538676 -0.712407 0
M  V30 52 H -3.987589 -3.707660 -2.516029 0
M  V30 53 H -3.997072 -1.312630 -1.257214 0
M  V30 54 H -2.609874 -1.638714 -2.445061 0
M  V30 55 H 0.770259 -0.787074 -2.707673 0
M  V30 56 H 2.870838 -1.944899 -3.165046 0
M  V30 END ATOM
M  V30 BEGIN BOND
M  V30 1 1 1 2
M  V30 2 2 2 3
M  V30 3 1 2 4
M  V30 4 1 4 5
M  V30 5 2 5 6
M  V30 6 1 6 7
M  V30 7 1 7 8
M  V30 8 2 8 9
M  V30 9 1 9 10
M  V30 10 2 10 11
M  V30 11 1 11 12
M  V30 12 2 12 13
M  V30 13 1 13 14
M  V30 14 1 13 15
M  V30 15 2 15 16
M  V30 16 1 9 17
M  V30 17 2 17 18
M  V30 18 1 18 19
M  V30 19 1 19 20
M  V30 20 2 20 21
M  V30 21 1 21 22
M  V30 22 2 22 23
M  V30 23 1 22 24
M  V30 24 1 18 25
M  V30 25 1 25 26
M  V30 26 1 26 27
M  V30 27 1 27 28
M  V30 28 1 28 29
M  V30 29 1 29 30
M  V30 30 2 7 31
M  V30 31 1 31 32
M  V30 32 2 32 33
M  V30 33 1 33 5
M  V30 34 1 25 8
M  V30 35 1 30 26
M  V30 36 1 16 10
M  V30 37 1 1 34
M  V30 38 1 1 35
M  V30 39 1 1 36
M  V30 40 1 4 37
M  V30 41 1 6 38
M  V30 42 1 11 39
M  V30 43 1 12 40
M  V30 44 1 15 41
M  V30 45 1 16 42
M  V30 46 1 20 43
M  V30 47 1 21 44
M  V30 48 1 24 45
M  V30 49 1 26 46
M  V30 50 1 27 47
M  V30 51 1 27 48
M  V30 52 1 28 49
M  V30 53 1 28 50
M  V30 54 1 29 51
M  V30 55 1 29 52
M  V30 56 1 30 53
M  V30 57 1 30 54
M  V30 58 1 31 55
M  V30 59 1 32 56
M  V30 END BOND
M  V30 END CTAB
M  END
>  <Dataset>  (920) 
ChEMBL_Kinases

>  <Ligand_Instance>  (920) 
nan

>  <PDB_ID>  (920) 
nan

>  <Standardized_SMILES>  (920) 
CC(=O)Nc1cc(-c2c(-c3ccc(F)cc3)nc(S/C=C\C(=O)O)n2C2CCCC2)ccn1

>  <Name>  (920) 
nan

>  <Pocket>  (920) 
nan

>  <ATP_Site>  (920) 
nan

>  <Peripheral>  (920) 
nan

>  <Num_H_Atoms_ProtBoundConf>  (920) 
nan

>  <Num_Resolved_Atoms>  (920) 
nan

>  <Num_Not_Resolved_Atoms>  (920) 
nan

$$$$
CHEMBL3394105
     RDKit          3D

  0  0  0  0  0  0  0  0  0  0999 V3000
M  V30 BEGIN CTAB
M  V30 COUNTS 59 62 0 0 0
M  V30 BEGIN ATOM
M  V30 1 C 2.578501 -4.179889 4.596767 0
M  V30 2 C 2.558108 -3.246898 3.431645 0
M  V30 3 O 2.266119 -3.665210 2.267107 0
M  V30 4 N 2.849106 -1.847242 3.488399 0
M  V30 5 C 2.744753 -1.230875 2.209572 0
M  V30 6 C 1.503119 -0.744832 1.799229 0
M  V30 7 C 1.210490 -0.118330 0.601286 0
M  V30 8 C -0.104888 0.358655 0.226447 0
M  V30 9 C -0.402441 1.703897 0.257066 0
M  V30 10 C 0.471757 2.812403 0.637994 0
M  V30 11 C 0.611770 3.688931 -0.445714 0
M  V30 12 C 1.402158 4.824030 -0.313689 0
M  V30 13 C 2.050712 5.097181 0.873493 0
M  V30 14 F 2.836883 6.212102 1.027068 0
M  V30 15 C 1.886970 4.201566 1.928648 0
M  V30 16 C 1.107354 3.071762 1.814869 0
M  V30 17 N -1.681819 1.732229 -0.150953 0
M  V30 18 C -2.115746 0.486048 -0.407127 0
M  V30 19 S -3.814705 0.509473 -0.947652 0
M  V30 20 C -4.538151 -1.006155 -1.322082 0
M  V30 21 C -5.237909 -1.964054 -0.712838 0
M  V30 22 C -5.480487 -1.675371 0.692966 0
M  V30 23 O -5.036180 -0.601743 1.211210 0
M  V30 24 O -5.961160 -1.888079 1.967743 0
M  V30 25 N -1.108743 -0.416691 -0.168949 0
M  V30 26 C -1.400753 -1.770491 -0.402916 0
M  V30 27 C -0.598704 -2.847063 0.178819 0
M  V30 28 C 0.610979 -3.324137 -0.539079 0
M  V30 29 C 0.374089 -3.566044 -2.037239 0
M  V30 30 C -0.109452 -2.202575 -2.520806 0
M  V30 31 C -1.501838 -2.057761 -1.915946 0
M  V30 32 C 2.304234 0.025390 -0.266003 0
M  V30 33 C 3.540411 -0.449975 0.124188 0
M  V30 34 N 3.732320 -1.049011 1.313507 0
M  V30 35 H 3.479588 -4.053429 5.235477 0
M  V30 36 H 1.646050 -4.176347 5.158180 0
M  V30 37 H 2.694655 -5.211079 4.158118 0
M  V30 38 H 3.094786 -1.476374 4.440559 0
M  V30 39 H 0.669821 -0.871996 2.498507 0
M  V30 40 H 0.161431 3.602988 -1.441564 0
M  V30 41 H 1.546727 5.535445 -1.114176 0
M  V30 42 H 2.374423 4.371832 2.880052 0
M  V30 43 H 0.923395 2.332465 2.563280 0
M  V30 44 H -4.356913 -1.227146 -2.384359 0
M  V30 45 H -5.577872 -2.836580 -1.204020 0
M  V30 46 H -5.537269 -2.597096 2.586323 0
M  V30 47 H -2.474624 -1.960895 -0.061403 0
M  V30 48 H -0.370124 -2.798218 1.260073 0
M  V30 49 H -1.288738 -3.767787 0.152409 0
M  V30 50 H 1.514084 -2.732467 -0.494609 0
M  V30 51 H 0.866906 -4.331482 -0.125894 0
M  V30 52 H 1.341540 -3.858206 -2.468156 0
M  V30 53 H -0.438698 -4.279869 -2.154017 0
M  V30 54 H 0.520040 -1.425031 -2.047564 0
M  V30 55 H -0.168564 -2.132822 -3.601369 0
M  V30 56 H -1.929623 -1.196815 -2.470544 0
M  V30 57 H -2.100546 -2.981643 -2.047307 0
M  V30 58 H 2.167373 0.512193 -1.241493 0
M  V30 59 H 4.364167 -0.325817 -0.563985 0
M  V30 END ATOM
M  V30 BEGIN BOND
M  V30 1 1 1 2
M  V30 2 2 2 3
M  V30 3 1 2 4
M  V30 4 1 4 5
M  V30 5 2 5 6
M  V30 6 1 6 7
M  V30 7 1 7 8
M  V30 8 2 8 9
M  V30 9 1 9 10
M  V30 10 2 10 11
M  V30 11 1 11 12
M  V30 12 2 12 13
M  V30 13 1 13 14
M  V30 14 1 13 15
M  V30 15 2 15 16
M  V30 16 1 9 17
M  V30 17 2 17 18
M  V30 18 1 18 19
M  V30 19 1 19 20
M  V30 20 2 20 21
M  V30 21 1 21 22
M  V30 22 2 22 23
M  V30 23 1 22 24
M  V30 24 1 18 25
M  V30 25 1 25 26
M  V30 26 1 26 27
M  V30 27 1 27 28
M  V30 28 1 28 29
M  V30 29 1 29 30
M  V30 30 1 30 31
M  V30 31 2 7 32
M  V30 32 1 32 33
M  V30 33 2 33 34
M  V30 34 1 34 5
M  V30 35 1 25 8
M  V30 36 1 31 26
M  V30 37 1 16 10
M  V30 38 1 1 35
M  V30 39 1 1 36
M  V30 40 1 1 37
M  V30 41 1 4 38
M  V30 42 1 6 39
M  V30 43 1 11 40
M  V30 44 1 12 41
M  V30 45 1 15 42
M  V30 46 1 16 43
M  V30 47 1 20 44
M  V30 48 1 21 45
M  V30 49 1 24 46
M  V30 50 1 26 47
M  V30 51 1 27 48
M  V30 52 1 27 49
M  V30 53 1 28 50
M  V30 54 1 28 51
M  V30 55 1 29 52
M  V30 56 1 29 53
M  V30 57 1 30 54
M  V30 58 1 30 55
M  V30 59 1 31 56
M  V30 60 1 31 57
M  V30 61 1 32 58
M  V30 62 1 33 59
M  V30 END BOND
M  V30 END CTAB
M  END
>  <Dataset>  (921) 
ChEMBL_Kinases

>  <Ligand_Instance>  (921) 
nan

>  <PDB_ID>  (921) 
nan

>  <Standardized_SMILES>  (921) 
CC(=O)Nc1cc(-c2c(-c3ccc(F)cc3)nc(S/C=C\C(=O)O)n2C2CCCCC2)ccn1

>  <Name>  (921) 
nan

>  <Pocket>  (921) 
nan

>  <ATP_Site>  (921) 
nan

>  <Peripheral>  (921) 
nan

>  <Num_H_Atoms_ProtBoundConf>  (921) 
nan

>  <Num_Resolved_Atoms>  (921) 
nan

>  <Num_Not_Resolved_Atoms>  (921) 
nan

$$$$
CHEMBL3394106
     RDKit          3D

  0  0  0  0  0  0  0  0  0  0999 V3000
M  V30 BEGIN CTAB
M  V30 COUNTS 53 56 0 0 0
M  V30 BEGIN ATOM
M  V30 1 C -5.444075 -4.073448 -0.526008 0
M  V30 2 C -4.428235 -3.269752 0.230169 0
M  V30 3 O -3.842607 -3.693223 1.252059 0
M  V30 4 N -4.226487 -1.993922 -0.357246 0
M  V30 5 C -3.430341 -0.873631 -0.089091 0
M  V30 6 C -2.158244 -0.718837 -0.611243 0
M  V30 7 C -1.347888 0.390792 -0.358591 0
M  V30 8 C -0.013818 0.521344 -0.930121 0
M  V30 9 C 0.421650 1.539658 -1.757340 0
M  V30 10 C -0.376138 2.677491 -2.199270 0
M  V30 11 C -1.463923 2.314726 -2.955965 0
M  V30 12 C -2.365203 3.244019 -3.483264 0
M  V30 13 C -2.118957 4.592191 -3.209356 0
M  V30 14 F -2.954385 5.566758 -3.688754 0
M  V30 15 C -1.019672 4.970397 -2.443792 0
M  V30 16 C -0.155092 4.018763 -1.942854 0
M  V30 17 N 1.709260 1.181368 -2.007326 0
M  V30 18 C 2.007797 0.049444 -1.381433 0
M  V30 19 S 3.677939 -0.538668 -1.624919 0
M  V30 20 C 3.665992 -1.596478 -3.070428 0
M  V30 21 C 4.216213 -2.777994 -3.026874 0
M  V30 22 C 4.850673 -3.289968 -1.842554 0
M  V30 23 O 5.371604 -4.436434 -1.838038 0
M  V30 24 O 4.926869 -2.571394 -0.660960 0
M  V30 25 N 0.934737 -0.392117 -0.690512 0
M  V30 26 C 1.064292 -1.611325 0.042041 0
M  V30 27 C 1.579969 -1.436045 1.448674 0
M  V30 28 C 0.833937 -0.602539 2.452553 0
M  V30 29 C 2.139280 -0.142546 1.905277 0
M  V30 30 C -1.932557 1.347266 0.476376 0
M  V30 31 C -3.195079 1.213529 1.006222 0
M  V30 32 N -3.904872 0.103784 0.705195 0
M  V30 33 H -6.440653 -3.617452 -0.420782 0
M  V30 34 H -5.148962 -4.037102 -1.615113 0
M  V30 35 H -5.418833 -5.131609 -0.214710 0
M  V30 36 H -4.702803 -1.621630 -1.206174 0
M  V30 37 H -1.800361 -1.520364 -1.247457 0
M  V30 38 H -1.731682 1.302628 -3.217004 0
M  V30 39 H -3.217154 2.992864 -4.073206 0
M  V30 40 H -0.803148 5.994328 -2.215920 0
M  V30 41 H 0.725891 4.217133 -1.337772 0
M  V30 42 H 3.188807 -1.235218 -3.993875 0
M  V30 43 H 4.180228 -3.373288 -3.927555 0
M  V30 44 H 5.768732 -2.725798 -0.085595 0
M  V30 45 H 0.047200 -2.096992 0.168505 0
M  V30 46 H 1.674946 -2.373969 -0.507955 0
M  V30 47 H 2.082332 -2.331339 1.870567 0
M  V30 48 H 0.845429 -0.912240 3.526685 0
M  V30 49 H -0.059434 -0.030094 2.180199 0
M  V30 50 H 3.016051 -0.147416 2.593318 0
M  V30 51 H 2.118558 0.751660 1.271975 0
M  V30 52 H -1.365705 2.227874 0.713125 0
M  V30 53 H -3.639303 1.950271 1.646520 0
M  V30 END ATOM
M  V30 BEGIN BOND
M  V30 1 1 1 2
M  V30 2 2 2 3
M  V30 3 1 2 4
M  V30 4 1 4 5
M  V30 5 2 5 6
M  V30 6 1 6 7
M  V30 7 1 7 8
M  V30 8 2 8 9
M  V30 9 1 9 10
M  V30 10 2 10 11
M  V30 11 1 11 12
M  V30 12 2 12 13
M  V30 13 1 13 14
M  V30 14 1 13 15
M  V30 15 2 15 16
M  V30 16 1 9 17
M  V30 17 2 17 18
M  V30 18 1 18 19
M  V30 19 1 19 20
M  V30 20 2 20 21
M  V30 21 1 21 22
M  V30 22 2 22 23
M  V30 23 1 22 24
M  V30 24 1 18 25
M  V30 25 1 25 26
M  V30 26 1 26 27
M  V30 27 1 27 28
M  V30 28 1 28 29
M  V30 29 2 7 30
M  V30 30 1 30 31
M  V30 31 2 31 32
M  V30 32 1 32 5
M  V30 33 1 25 8
M  V30 34 1 29 27
M  V30 35 1 16 10
M  V30 36 1 1 33
M  V30 37 1 1 34
M  V30 38 1 1 35
M  V30 39 1 4 36
M  V30 40 1 6 37
M  V30 41 1 11 38
M  V30 42 1 12 39
M  V30 43 1 15 40
M  V30 44 1 16 41
M  V30 45 1 20 42
M  V30 46 1 21 43
M  V30 47 1 24 44
M  V30 48 1 26 45
M  V30 49 1 26 46
M  V30 50 1 27 47
M  V30 51 1 28 48
M  V30 52 1 28 49
M  V30 53 1 29 50
M  V30 54 1 29 51
M  V30 55 1 30 52
M  V30 56 1 31 53
M  V30 END BOND
M  V30 END CTAB
M  END
>  <Dataset>  (922) 
ChEMBL_Kinases

>  <Ligand_Instance>  (922) 
nan

>  <PDB_ID>  (922) 
nan

>  <Standardized_SMILES>  (922) 
CC(=O)Nc1cc(-c2c(-c3ccc(F)cc3)nc(S/C=C\C(=O)O)n2CC2CC2)ccn1

>  <Name>  (922) 
nan

>  <Pocket>  (922) 
nan

>  <ATP_Site>  (922) 
nan

>  <Peripheral>  (922) 
nan

>  <Num_H_Atoms_ProtBoundConf>  (922) 
nan

>  <Num_Resolved_Atoms>  (922) 
nan

>  <Num_Not_Resolved_Atoms>  (922) 
nan

$$$$
CHEMBL3394107
     RDKit          3D

  0  0  0  0  0  0  0  0  0  0999 V3000
M  V30 BEGIN CTAB
M  V30 COUNTS 62 65 0 0 0
M  V30 BEGIN ATOM
M  V30 1 C 4.848432 -3.396417 2.685017 0
M  V30 2 C 3.674906 -2.494167 2.730470 0
M  V30 3 O 2.486726 -2.950659 2.866346 0
M  V30 4 N 3.671187 -1.069656 2.637023 0
M  V30 5 C 2.287583 -0.658268 2.728541 0
M  V30 6 C 1.590144 -0.553364 1.548516 0
M  V30 7 C 0.268971 -0.168891 1.548516 0
M  V30 8 C -0.651711 0.021128 0.445108 0
M  V30 9 C -0.571527 1.104447 -0.428305 0
M  V30 10 C 0.381841 2.223880 -0.440168 0
M  V30 11 C 1.746259 2.189078 -0.645832 0
M  V30 12 C 2.445404 3.379451 -0.609584 0
M  V30 13 C 1.804369 4.574409 -0.375222 0
M  V30 14 F 2.550181 5.703880 -0.355036 0
M  V30 15 C 0.440275 4.619102 -0.168490 0
M  V30 16 C -0.272706 3.428262 -0.202481 0
M  V30 17 N -1.586972 0.940476 -1.318551 0
M  V30 18 C -2.252799 -0.193943 -0.996491 0
M  V30 19 S -3.614190 -0.640581 -1.987718 0
M  V30 20 C -5.192928 -0.069646 -1.575897 0
M  V30 21 C -5.754383 0.566495 -0.604107 0
M  V30 22 C -4.842911 0.922639 0.464710 0
M  V30 23 O -5.321490 1.535732 1.447826 0
M  V30 24 O -3.810425 1.158849 1.352281 0
M  V30 25 N -1.680688 -0.783317 0.105762 0
M  V30 26 C -2.140222 -1.979027 0.689595 0
M  V30 27 C -1.590229 -3.290867 0.262961 0
M  V30 28 C -1.757500 -3.658157 -1.178209 0
M  V30 29 C -0.694326 -3.203806 -2.119129 0
M  V30 30 C 0.646834 -2.972271 -1.507206 0
M  V30 31 C 0.865680 -3.714322 -0.220191 0
M  V30 32 C -0.242600 -3.667402 0.748358 0
M  V30 33 C -0.302625 0.098350 2.799476 0
M  V30 34 C 0.432415 -0.019654 3.962353 0
M  V30 35 N 1.722183 -0.396965 3.920740 0
M  V30 36 H 4.493957 -4.436137 2.497223 0
M  V30 37 H 5.421509 -3.400048 3.634692 0
M  V30 38 H 5.464623 -3.112975 1.814359 0
M  V30 39 H 4.617287 -0.607349 2.526340 0
M  V30 40 H 1.972384 -0.749365 0.561831 0
M  V30 41 H 2.136766 1.196381 -0.821265 0
M  V30 42 H 3.509359 3.275996 -0.775647 0
M  V30 43 H 0.027540 5.600406 0.008708 0
M  V30 44 H -1.335986 3.570861 -0.029193 0
M  V30 45 H -5.793878 -0.388402 -2.436792 0
M  V30 46 H -6.787286 0.835133 -0.533537 0
M  V30 47 H -2.945348 1.674803 1.105597 0
M  V30 48 H -3.265760 -2.036080 0.552407 0
M  V30 49 H -2.042492 -1.951107 1.814578 0
M  V30 50 H -2.300412 -4.024614 0.786709 0
M  V30 51 H -1.736216 -4.790695 -1.249268 0
M  V30 52 H -2.794844 -3.428684 -1.470181 0
M  V30 53 H -0.566866 -3.905748 -2.969900 0
M  V30 54 H -1.032838 -2.260178 -2.587588 0
M  V30 55 H 1.453274 -3.286609 -2.203794 0
M  V30 56 H 0.817951 -1.891213 -1.334630 0
M  V30 57 H 1.802409 -3.371160 0.263227 0
M  V30 58 H 1.096999 -4.798082 -0.453450 0
M  V30 59 H 0.041540 -3.023694 1.611467 0
M  V30 60 H -0.319266 -4.689051 1.228808 0
M  V30 61 H -1.340480 0.411592 2.979296 0
M  V30 62 H 0.021735 0.178981 4.952729 0
M  V30 END ATOM
M  V30 BEGIN BOND
M  V30 1 1 1 2
M  V30 2 2 2 3
M  V30 3 1 2 4
M  V30 4 1 4 5
M  V30 5 2 5 6
M  V30 6 1 6 7
M  V30 7 1 7 8
M  V30 8 2 8 9
M  V30 9 1 9 10
M  V30 10 2 10 11
M  V30 11 1 11 12
M  V30 12 2 12 13
M  V30 13 1 13 14
M  V30 14 1 13 15
M  V30 15 2 15 16
M  V30 16 1 9 17
M  V30 17 2 17 18
M  V30 18 1 18 19
M  V30 19 1 19 20
M  V30 20 2 20 21
M  V30 21 1 21 22
M  V30 22 2 22 23
M  V30 23 1 22 24
M  V30 24 1 18 25
M  V30 25 1 25 26
M  V30 26 1 26 27
M  V30 27 1 27 28
M  V30 28 1 28 29
M  V30 29 1 29 30
M  V30 30 1 30 31
M  V30 31 1 31 32
M  V30 32 2 7 33
M  V30 33 1 33 34
M  V30 34 2 34 35
M  V30 35 1 35 5
M  V30 36 1 25 8
M  V30 37 1 32 27
M  V30 38 1 16 10
M  V30 39 1 1 36
M  V30 40 1 1 37
M  V30 41 1 1 38
M  V30 42 1 4 39
M  V30 43 1 6 40
M  V30 44 1 11 41
M  V30 45 1 12 42
M  V30 46 1 15 43
M  V30 47 1 16 44
M  V30 48 1 20 45
M  V30 49 1 21 46
M  V30 50 1 24 47
M  V30 51 1 26 48
M  V30 52 1 26 49
M  V30 53 1 27 50
M  V30 54 1 28 51
M  V30 55 1 28 52
M  V30 56 1 29 53
M  V30 57 1 29 54
M  V30 58 1 30 55
M  V30 59 1 30 56
M  V30 60 1 31 57
M  V30 61 1 31 58
M  V30 62 1 32 59
M  V30 63 1 32 60
M  V30 64 1 33 61
M  V30 65 1 34 62
M  V30 END BOND
M  V30 END CTAB
M  END
>  <Dataset>  (923) 
ChEMBL_Kinases

>  <Ligand_Instance>  (923) 
nan

>  <PDB_ID>  (923) 
nan

>  <Standardized_SMILES>  (923) 
CC(=O)Nc1cc(-c2c(-c3ccc(F)cc3)nc(S/C=C\C(=O)O)n2CC2CCCCC2)ccn1

>  <Name>  (923) 
nan

>  <Pocket>  (923) 
nan

>  <ATP_Site>  (923) 
nan

>  <Peripheral>  (923) 
nan

>  <Num_H_Atoms_ProtBoundConf>  (923) 
nan

>  <Num_Resolved_Atoms>  (923) 
nan

>  <Num_Not_Resolved_Atoms>  (923) 
nan

$$$$
CHEMBL3394108
     RDKit          3D

  0  0  0  0  0  0  0  0  0  0999 V3000
M  V30 BEGIN CTAB
M  V30 COUNTS 57 60 0 0 0
M  V30 BEGIN ATOM
M  V30 1 C 3.944264 -2.785579 4.846461 0
M  V30 2 C 3.509942 -2.347268 3.478024 0
M  V30 3 O 2.707970 -3.044567 2.770411 0
M  V30 4 N 3.910537 -1.155971 2.813273 0
M  V30 5 C 3.245746 -1.163845 1.537878 0
M  V30 6 C 2.005186 -0.619344 1.298483 0
M  V30 7 C 1.455411 -0.687841 0.010765 0
M  V30 8 C 0.143757 -0.058083 -0.056038 0
M  V30 9 C 0.062777 1.312160 0.111651 0
M  V30 10 C 1.103358 2.303701 0.351368 0
M  V30 11 C 2.117121 2.546286 -0.553468 0
M  V30 12 C 3.126104 3.475674 -0.373058 0
M  V30 13 C 3.102733 4.208338 0.807635 0
M  V30 14 F 4.060757 5.142118 1.058589 0
M  V30 15 C 2.100591 3.981964 1.722509 0
M  V30 16 C 1.098577 3.050155 1.529712 0
M  V30 17 N -1.250915 1.669172 0.017222 0
M  V30 18 C -1.961642 0.538469 -0.204173 0
M  V30 19 S -3.731631 0.527869 -0.393649 0
M  V30 20 C -4.557964 0.330817 1.174225 0
M  V30 21 C -5.377937 -0.493503 1.794480 0
M  V30 22 C -5.774075 -1.628826 0.996557 0
M  V30 23 O -5.379520 -1.808826 -0.161525 0
M  V30 24 O -6.417685 -2.808630 0.691557 0
M  V30 25 N -1.105943 -0.499143 -0.246414 0
M  V30 26 C -1.431034 -1.871447 -0.450617 0
M  V30 27 C -1.460943 -2.337935 -1.866379 0
M  V30 28 C -1.822218 -3.808129 -1.866299 0
M  V30 29 C -3.197743 -3.774841 -2.493857 0
M  V30 30 C -3.045554 -2.592904 -3.421472 0
M  V30 31 O -2.403613 -1.668688 -2.627590 0
M  V30 32 C 2.208852 -1.311276 -0.961907 0
M  V30 33 C 3.443418 -1.836343 -0.660332 0
M  V30 34 N 3.970204 -1.769432 0.578903 0
M  V30 35 H 5.036426 -2.926007 4.856349 0
M  V30 36 H 3.399301 -3.721246 5.056964 0
M  V30 37 H 3.686380 -2.039048 5.605624 0
M  V30 38 H 4.579714 -0.531675 3.353328 0
M  V30 39 H 1.577961 -0.171284 2.208062 0
M  V30 40 H 2.068693 1.940361 -1.443320 0
M  V30 41 H 3.901779 3.631544 -1.111790 0
M  V30 42 H 2.110680 4.561580 2.621817 0
M  V30 43 H 0.312993 2.870415 2.242906 0
M  V30 44 H -4.212227 1.208833 1.702704 0
M  V30 45 H -5.663129 -0.251753 2.797246 0
M  V30 46 H -6.241760 -3.674081 1.205762 0
M  V30 47 H -0.817251 -2.587389 0.133441 0
M  V30 48 H -2.476832 -2.017785 -0.049853 0
M  V30 49 H -0.439220 -2.257909 -2.287655 0
M  V30 50 H -1.148543 -4.392994 -2.521174 0
M  V30 51 H -1.871256 -4.224385 -0.834992 0
M  V30 52 H -3.433115 -4.711520 -3.036329 0
M  V30 53 H -3.905465 -3.556124 -1.681658 0
M  V30 54 H -4.020116 -2.145710 -3.707782 0
M  V30 55 H -2.484676 -2.905950 -4.302014 0
M  V30 56 H 1.715185 -1.317067 -1.917340 0
M  V30 57 H 3.987601 -2.308859 -1.452134 0
M  V30 END ATOM
M  V30 BEGIN BOND
M  V30 1 1 1 2
M  V30 2 2 2 3
M  V30 3 1 2 4
M  V30 4 1 4 5
M  V30 5 2 5 6
M  V30 6 1 6 7
M  V30 7 1 7 8
M  V30 8 2 8 9
M  V30 9 1 9 10
M  V30 10 2 10 11
M  V30 11 1 11 12
M  V30 12 2 12 13
M  V30 13 1 13 14
M  V30 14 1 13 15
M  V30 15 2 15 16
M  V30 16 1 9 17
M  V30 17 2 17 18
M  V30 18 1 18 19
M  V30 19 1 19 20
M  V30 20 2 20 21
M  V30 21 1 21 22
M  V30 22 2 22 23
M  V30 23 1 22 24
M  V30 24 1 18 25
M  V30 25 1 25 26
M  V30 26 1 26 27
M  V30 27 1 27 28
M  V30 28 1 28 29
M  V30 29 1 29 30
M  V30 30 1 30 31
M  V30 31 2 7 32
M  V30 32 1 32 33
M  V30 33 2 33 34
M  V30 34 1 34 5
M  V30 35 1 25 8
M  V30 36 1 31 27
M  V30 37 1 16 10
M  V30 38 1 1 35
M  V30 39 1 1 36
M  V30 40 1 1 37
M  V30 41 1 4 38
M  V30 42 1 6 39
M  V30 43 1 11 40
M  V30 44 1 12 41
M  V30 45 1 15 42
M  V30 46 1 16 43
M  V30 47 1 20 44
M  V30 48 1 21 45
M  V30 49 1 24 46
M  V30 50 1 26 47
M  V30 51 1 26 48
M  V30 52 1 27 49
M  V30 53 1 28 50
M  V30 54 1 28 51
M  V30 55 1 29 52
M  V30 56 1 29 53
M  V30 57 1 30 54
M  V30 58 1 30 55
M  V30 59 1 32 56
M  V30 60 1 33 57
M  V30 END BOND
M  V30 END CTAB
M  END
>  <Dataset>  (924) 
ChEMBL_Kinases

>  <Ligand_Instance>  (924) 
nan

>  <PDB_ID>  (924) 
nan

>  <Standardized_SMILES>  (924) 
CC(=O)Nc1cc(-c2c(-c3ccc(F)cc3)nc(S/C=C\C(=O)O)n2CC2CCCO2)ccn1

>  <Name>  (924) 
nan

>  <Pocket>  (924) 
nan

>  <ATP_Site>  (924) 
nan

>  <Peripheral>  (924) 
nan

>  <Num_H_Atoms_ProtBoundConf>  (924) 
nan

>  <Num_Resolved_Atoms>  (924) 
nan

>  <Num_Not_Resolved_Atoms>  (924) 
nan

$$$$
CHEMBL3670409
     RDKit          3D

  0  0  0  0  0  0  0  0  0  0999 V3000
M  V30 BEGIN CTAB
M  V30 COUNTS 40 42 0 0 0
M  V30 BEGIN ATOM
M  V30 1 N -3.748649 -4.104846 2.022878 0
M  V30 2 C -2.567636 -4.855018 2.247081 0
M  V30 3 O -2.629695 -5.970399 2.803492 0
M  V30 4 C -1.293993 -4.293500 1.813810 0
M  V30 5 C -0.115231 -4.983659 2.008643 0
M  V30 6 C 1.122507 -4.496772 1.617356 0
M  V30 7 C 1.127053 -3.261089 1.008824 0
M  V30 8 C -0.007378 -2.546214 0.796390 0
M  V30 9 C 0.070936 -1.313621 0.180244 0
M  V30 10 N 1.277431 -0.714342 -0.268277 0
M  V30 11 C 1.258692 0.567610 -0.893485 0
M  V30 12 C 0.754642 1.695580 -0.024943 0
M  V30 13 C 0.762686 3.016273 -0.743920 0
M  V30 14 C 1.210592 4.178156 0.115186 0
M  V30 15 N 2.579881 4.021333 0.563063 0
M  V30 16 C 2.888879 2.634691 0.854170 0
M  V30 17 C 1.642534 1.855140 1.215631 0
M  V30 18 N -1.099903 -0.677549 0.011132 0
M  V30 19 C -2.293282 -1.161072 0.395569 0
M  V30 20 N -2.389592 -2.380142 1.007035 0
M  V30 21 C -1.234795 -3.052204 1.195940 0
M  V30 22 H -3.895731 -3.726356 2.989910 0
M  V30 23 H -4.573112 -3.667452 1.565267 0
M  V30 24 H -0.258592 -5.936164 2.494306 0
M  V30 25 H 1.969683 -5.144098 1.832105 0
M  V30 26 H 2.098790 -2.896837 0.710404 0
M  V30 27 H 2.222977 -1.117460 -0.191538 0
M  V30 28 H 2.211806 0.896376 -1.334213 0
M  V30 29 H 0.540412 0.493485 -1.755425 0
M  V30 30 H -0.278595 1.514642 0.333186 0
M  V30 31 H 1.387018 2.946852 -1.662861 0
M  V30 32 H -0.272422 3.236545 -1.074932 0
M  V30 33 H 1.176981 5.076003 -0.534200 0
M  V30 34 H 0.571119 4.304787 1.008961 0
M  V30 35 H 3.277519 4.462488 -0.078704 0
M  V30 36 H 3.591492 2.608391 1.703560 0
M  V30 37 H 3.357649 2.189840 -0.034344 0
M  V30 38 H 1.022991 2.447857 1.926660 0
M  V30 39 H 1.929246 0.886504 1.660498 0
M  V30 40 H -3.191433 -0.582204 0.221367 0
M  V30 END ATOM
M  V30 BEGIN BOND
M  V30 1 1 1 2
M  V30 2 2 2 3
M  V30 3 1 2 4
M  V30 4 2 4 5
M  V30 5 1 5 6
M  V30 6 2 6 7
M  V30 7 1 7 8
M  V30 8 2 8 9
M  V30 9 1 9 10
M  V30 10 1 10 11
M  V30 11 1 11 12
M  V30 12 1 12 13
M  V30 13 1 13 14
M  V30 14 1 14 15
M  V30 15 1 15 16
M  V30 16 1 16 17
M  V30 17 1 9 18
M  V30 18 2 18 19
M  V30 19 1 19 20
M  V30 20 2 20 21
M  V30 21 1 21 4
M  V30 22 1 21 8
M  V30 23 1 17 12
M  V30 24 1 1 22
M  V30 25 1 1 23
M  V30 26 1 5 24
M  V30 27 1 6 25
M  V30 28 1 7 26
M  V30 29 1 10 27
M  V30 30 1 11 28
M  V30 31 1 11 29
M  V30 32 1 12 30
M  V30 33 1 13 31
M  V30 34 1 13 32
M  V30 35 1 14 33
M  V30 36 1 14 34
M  V30 37 1 15 35
M  V30 38 1 16 36
M  V30 39 1 16 37
M  V30 40 1 17 38
M  V30 41 1 17 39
M  V30 42 1 19 40
M  V30 END BOND
M  V30 END CTAB
M  END
>  <Dataset>  (925) 
ChEMBL_Kinases

>  <Ligand_Instance>  (925) 
nan

>  <PDB_ID>  (925) 
nan

>  <Standardized_SMILES>  (925) 
NC(=O)c1cccc2c(NCC3CCNCC3)ncnc12

>  <Name>  (925) 
nan

>  <Pocket>  (925) 
nan

>  <ATP_Site>  (925) 
nan

>  <Peripheral>  (925) 
nan

>  <Num_H_Atoms_ProtBoundConf>  (925) 
nan

>  <Num_Resolved_Atoms>  (925) 
nan

>  <Num_Not_Resolved_Atoms>  (925) 
nan

$$$$
CHEMBL3394109
     RDKit          3D

  0  0  0  0  0  0  0  0  0  0999 V3000
M  V30 BEGIN CTAB
M  V30 COUNTS 54 56 0 0 0
M  V30 BEGIN ATOM
M  V30 1 C 4.971142 -3.863940 3.447281 0
M  V30 2 C 4.103784 -3.367282 2.320570 0
M  V30 3 O 3.182489 -4.131811 1.932364 0
M  V30 4 N 4.260574 -2.121460 1.688447 0
M  V30 5 C 3.281416 -1.968570 0.671409 0
M  V30 6 C 2.034266 -1.412867 0.866101 0
M  V30 7 C 1.105470 -1.279086 -0.146188 0
M  V30 8 C -0.207172 -0.684776 0.062437 0
M  V30 9 C -0.192075 0.705917 0.221770 0
M  V30 10 C 0.751686 1.806722 0.244047 0
M  V30 11 C 0.615049 2.741927 -0.789124 0
M  V30 12 C 1.465626 3.824885 -0.856209 0
M  V30 13 C 2.457408 4.007433 0.081892 0
M  V30 14 F 3.335871 5.056278 0.077456 0
M  V30 15 C 2.614165 3.102393 1.109242 0
M  V30 16 C 1.755020 2.025573 1.161401 0
M  V30 17 N -1.494518 1.074572 0.409392 0
M  V30 18 C -2.265347 -0.033924 0.366816 0
M  V30 19 S -4.030807 -0.155333 0.557339 0
M  V30 20 C -4.814523 1.408755 0.835044 0
M  V30 21 C -5.223667 1.659014 2.058073 0
M  V30 22 C -5.045497 0.695229 3.153293 0
M  V30 23 O -5.426880 0.910466 4.327947 0
M  V30 24 O -4.420789 -0.513022 2.858122 0
M  V30 25 N -1.500309 -1.117559 0.156116 0
M  V30 26 C -1.731176 -2.514646 0.019490 0
M  V30 27 C -1.969297 -3.040810 -1.338757 0
M  V30 28 O -2.165219 -4.441735 -1.235409 0
M  V30 29 C -3.167676 -2.520424 -2.060818 0
M  V30 30 O -4.381180 -2.777918 -1.441512 0
M  V30 31 C 1.560694 -1.757874 -1.357887 0
M  V30 32 C 2.792104 -2.314668 -1.583896 0
M  V30 33 N 3.635778 -2.407052 -0.543117 0
M  V30 34 H 5.990129 -3.469241 3.316946 0
M  V30 35 H 4.918071 -4.954632 3.523567 0
M  V30 36 H 4.567767 -3.360036 4.362390 0
M  V30 37 H 5.015040 -1.499126 2.008643 0
M  V30 38 H 1.806563 -1.080376 1.868339 0
M  V30 39 H -0.132963 2.707919 -1.594125 0
M  V30 40 H 1.429023 4.595130 -1.622067 0
M  V30 41 H 3.369154 3.191697 1.870261 0
M  V30 42 H 1.847261 1.301125 1.949306 0
M  V30 43 H -4.965702 2.150292 0.050182 0
M  V30 44 H -5.714589 2.618008 2.270634 0
M  V30 45 H -3.934480 -0.992798 3.593919 0
M  V30 46 H -0.954094 -3.147400 0.503976 0
M  V30 47 H -2.662770 -2.745348 0.617669 0
M  V30 48 H -1.101587 -2.952384 -2.024935 0
M  V30 49 H -2.147191 -4.743178 -0.285291 0
M  V30 50 H -3.189598 -3.012470 -3.062876 0
M  V30 51 H -3.086640 -1.428720 -2.300237 0
M  V30 52 H -5.065130 -2.922058 -2.137597 0
M  V30 53 H 0.912861 -1.698904 -2.221602 0
M  V30 54 H 3.103426 -2.675359 -2.551531 0
M  V30 END ATOM
M  V30 BEGIN BOND
M  V30 1 1 1 2
M  V30 2 2 2 3
M  V30 3 1 2 4
M  V30 4 1 4 5
M  V30 5 2 5 6
M  V30 6 1 6 7
M  V30 7 1 7 8
M  V30 8 2 8 9
M  V30 9 1 9 10
M  V30 10 2 10 11
M  V30 11 1 11 12
M  V30 12 2 12 13
M  V30 13 1 13 14
M  V30 14 1 13 15
M  V30 15 2 15 16
M  V30 16 1 9 17
M  V30 17 2 17 18
M  V30 18 1 18 19
M  V30 19 1 19 20
M  V30 20 2 20 21
M  V30 21 1 21 22
M  V30 22 2 22 23
M  V30 23 1 22 24
M  V30 24 1 18 25
M  V30 25 1 25 26
M  V30 26 1 26 27
M  V30 27 1 27 28
M  V30 28 1 27 29
M  V30 29 1 29 30
M  V30 30 2 7 31
M  V30 31 1 31 32
M  V30 32 2 32 33
M  V30 33 1 33 5
M  V30 34 1 25 8
M  V30 35 1 16 10
M  V30 36 1 1 34
M  V30 37 1 1 35
M  V30 38 1 1 36
M  V30 39 1 4 37
M  V30 40 1 6 38
M  V30 41 1 11 39
M  V30 42 1 12 40
M  V30 43 1 15 41
M  V30 44 1 16 42
M  V30 45 1 20 43
M  V30 46 1 21 44
M  V30 47 1 24 45
M  V30 48 1 26 46
M  V30 49 1 26 47
M  V30 50 1 27 48
M  V30 51 1 28 49
M  V30 52 1 29 50
M  V30 53 1 29 51
M  V30 54 1 30 52
M  V30 55 1 31 53
M  V30 56 1 32 54
M  V30 END BOND
M  V30 END CTAB
M  END
>  <Dataset>  (926) 
ChEMBL_Kinases

>  <Ligand_Instance>  (926) 
nan

>  <PDB_ID>  (926) 
nan

>  <Standardized_SMILES>  (926) 
CC(=O)Nc1cc(-c2c(-c3ccc(F)cc3)nc(S/C=C\C(=O)O)n2CC(O)CO)ccn1

>  <Name>  (926) 
nan

>  <Pocket>  (926) 
nan

>  <ATP_Site>  (926) 
nan

>  <Peripheral>  (926) 
nan

>  <Num_H_Atoms_ProtBoundConf>  (926) 
nan

>  <Num_Resolved_Atoms>  (926) 
nan

>  <Num_Not_Resolved_Atoms>  (926) 
nan

$$$$
CHEMBL3394101
     RDKit          3D

  0  0  0  0  0  0  0  0  0  0999 V3000
M  V30 BEGIN CTAB
M  V30 COUNTS 57 59 0 0 0
M  V30 BEGIN ATOM
M  V30 1 C 4.495949 -1.439806 2.399452 0
M  V30 2 O 3.131093 -1.266088 2.341906 0
M  V30 3 C 2.557722 -1.519360 1.134324 0
M  V30 4 C 1.746566 -0.475353 0.496254 0
M  V30 5 N 0.608118 0.006529 1.166184 0
M  V30 6 C 0.465594 1.040458 2.012970 0
M  V30 7 S 1.685738 2.208406 2.558286 0
M  V30 8 C 3.288235 1.975496 1.873846 0
M  V30 9 C 3.572671 2.999716 1.045832 0
M  V30 10 C 2.682231 4.143303 0.753802 0
M  V30 11 O 2.768035 5.180594 0.021154 0
M  V30 12 O 1.433422 4.225282 1.353446 0
M  V30 13 N -0.801432 1.135922 2.441292 0
M  V30 14 C -1.503458 0.149259 1.866557 0
M  V30 15 C -2.944971 -0.088898 2.086125 0
M  V30 16 C -3.639265 0.049082 0.896585 0
M  V30 17 C -5.016470 -0.131004 0.850036 0
M  V30 18 C -5.682551 -0.452320 2.021593 0
M  V30 19 F -7.027980 -0.635349 2.014180 0
M  V30 20 C -4.969673 -0.582789 3.185828 0
M  V30 21 C -3.602893 -0.408874 3.256855 0
M  V30 22 C -0.609926 -0.542816 1.076288 0
M  V30 23 C -1.106663 -1.697323 0.311420 0
M  V30 24 C -1.583254 -2.833524 0.944072 0
M  V30 25 C -2.020968 -3.835539 0.104938 0
M  V30 26 N -2.008722 -3.767814 -1.222887 0
M  V30 27 C -1.558853 -2.692885 -1.886066 0
M  V30 28 N -1.577738 -2.690102 -3.296601 0
M  V30 29 C -1.169762 -1.701823 -4.218870 0
M  V30 30 C -1.250327 -1.841115 -5.685652 0
M  V30 31 O -0.707184 -0.630632 -3.780169 0
M  V30 32 C -1.116122 -1.678830 -1.071938 0
M  V30 33 O 1.869161 -2.738188 1.298574 0
M  V30 34 C 2.432100 -3.765303 0.567715 0
M  V30 35 H 5.100297 -0.836504 1.732604 0
M  V30 36 H 4.705502 -2.511562 2.179215 0
M  V30 37 H 4.780549 -1.332964 3.485943 0
M  V30 38 H 3.371590 -1.800820 0.429268 0
M  V30 39 H 2.405768 0.376306 0.225227 0
M  V30 40 H 1.433969 -0.878916 -0.506639 0
M  V30 41 H 4.177913 1.364668 1.814924 0
M  V30 42 H 4.460581 3.222998 0.433641 0
M  V30 43 H 1.088500 5.047790 1.816463 0
M  V30 44 H -3.237045 0.295616 -0.078288 0
M  V30 45 H -5.619537 -0.041453 -0.030580 0
M  V30 46 H -5.441198 -0.833054 4.129165 0
M  V30 47 H -2.949073 -0.482812 4.091597 0
M  V30 48 H -1.602089 -2.908704 2.011492 0
M  V30 49 H -2.413604 -4.767891 0.512590 0
M  V30 50 H -1.946882 -3.538730 -3.788678 0
M  V30 51 H -1.406026 -2.867827 -6.037695 0
M  V30 52 H -0.364030 -1.394163 -6.212343 0
M  V30 53 H -2.164510 -1.264403 -6.007912 0
M  V30 54 H -0.736054 -0.772029 -1.514485 0
M  V30 55 H 2.437226 -3.549095 -0.531901 0
M  V30 56 H 1.731689 -4.627253 0.678798 0
M  V30 57 H 3.410056 -4.111261 0.941355 0
M  V30 END ATOM
M  V30 BEGIN BOND
M  V30 1 1 1 2
M  V30 2 1 2 3
M  V30 3 1 3 4
M  V30 4 1 4 5
M  V30 5 1 5 6
M  V30 6 1 6 7
M  V30 7 1 7 8
M  V30 8 2 8 9
M  V30 9 1 9 10
M  V30 10 2 10 11
M  V30 11 1 10 12
M  V30 12 2 6 13
M  V30 13 1 13 14
M  V30 14 1 14 15
M  V30 15 2 15 16
M  V30 16 1 16 17
M  V30 17 2 17 18
M  V30 18 1 18 19
M  V30 19 1 18 20
M  V30 20 2 20 21
M  V30 21 2 14 22
M  V30 22 1 22 23
M  V30 23 2 23 24
M  V30 24 1 24 25
M  V30 25 2 25 26
M  V30 26 1 26 27
M  V30 27 1 27 28
M  V30 28 1 28 29
M  V30 29 1 29 30
M  V30 30 2 29 31
M  V30 31 2 27 32
M  V30 32 1 3 33
M  V30 33 1 33 34
M  V30 34 1 22 5
M  V30 35 1 32 23
M  V30 36 1 21 15
M  V30 37 1 1 35
M  V30 38 1 1 36
M  V30 39 1 1 37
M  V30 40 1 3 38
M  V30 41 1 4 39
M  V30 42 1 4 40
M  V30 43 1 8 41
M  V30 44 1 9 42
M  V30 45 1 12 43
M  V30 46 1 16 44
M  V30 47 1 17 45
M  V30 48 1 20 46
M  V30 49 1 21 47
M  V30 50 1 24 48
M  V30 51 1 25 49
M  V30 52 1 28 50
M  V30 53 1 30 51
M  V30 54 1 30 52
M  V30 55 1 30 53
M  V30 56 1 32 54
M  V30 57 1 34 55
M  V30 58 1 34 56
M  V30 59 1 34 57
M  V30 END BOND
M  V30 END CTAB
M  END
>  <Dataset>  (927) 
ChEMBL_Kinases

>  <Ligand_Instance>  (927) 
nan

>  <PDB_ID>  (927) 
nan

>  <Standardized_SMILES>  (927) 
COC(Cn1c(S/C=C\C(=O)O)nc(-c2ccc(F)cc2)c1-c1ccnc(NC(C)=O)c1)OC

>  <Name>  (927) 
nan

>  <Pocket>  (927) 
nan

>  <ATP_Site>  (927) 
nan

>  <Peripheral>  (927) 
nan

>  <Num_H_Atoms_ProtBoundConf>  (927) 
nan

>  <Num_Resolved_Atoms>  (927) 
nan

>  <Num_Not_Resolved_Atoms>  (927) 
nan

$$$$
CHEMBL3793353
     RDKit          3D

  0  0  0  0  0  0  0  0  0  0999 V3000
M  V30 BEGIN CTAB
M  V30 COUNTS 43 45 0 0 0
M  V30 BEGIN ATOM
M  V30 1 C -0.789023 -4.615962 1.449214 0
M  V30 2 C 0.420478 -4.118733 0.710098 0 CFG=1
M  V30 3 N 0.415534 -4.478697 -0.686619 0
M  V30 4 C 0.535895 -2.596568 0.764669 0 CFG=1
M  V30 5 C 1.727847 -2.126438 0.034590 0
M  V30 6 C 1.505507 -1.400222 -1.247842 0
M  V30 7 C 0.349311 -0.450009 -1.247870 0 CFG=2
M  V30 8 C 0.643633 0.664620 -0.324571 0
M  V30 9 O 1.757091 0.663805 0.297736 0
M  V30 10 N -0.189601 1.768886 -0.039088 0
M  V30 11 C 0.470289 2.627670 0.914541 0
M  V30 12 C 1.277616 3.634801 0.427646 0
M  V30 13 C 1.881609 4.423742 1.411736 0
M  V30 14 N 1.696506 4.224850 2.740860 0
M  V30 15 C 0.885264 3.210478 3.140504 0
M  V30 16 N 0.565030 2.838980 4.396895 0
M  V30 17 C -0.275143 1.776514 4.356836 0
M  V30 18 C -0.463741 1.503008 3.017729 0
M  V30 19 C 0.239386 2.370622 2.232343 0
M  V30 20 C -0.864225 -1.231398 -0.847405 0
M  V30 21 C -0.756344 -1.950101 0.444886 0
M  V30 22 H -1.186308 -3.819141 2.119180 0
M  V30 23 H -1.544565 -4.946320 0.726871 0
M  V30 24 H -0.466913 -5.478671 2.100729 0
M  V30 25 H 1.357747 -4.493567 1.190775 0
M  V30 26 H -0.362098 -5.126019 -0.938067 0
M  V30 27 H 1.346488 -4.759673 -1.032529 0
M  V30 28 H 0.723141 -2.393247 1.861211 0
M  V30 29 H 2.443346 -1.537464 0.681607 0
M  V30 30 H 2.357464 -3.023384 -0.240319 0
M  V30 31 H 1.293800 -2.171018 -2.041864 0
M  V30 32 H 2.432254 -0.843371 -1.498899 0
M  V30 33 H 0.199171 -0.106133 -2.290052 0
M  V30 34 H -1.123537 1.792077 -0.545736 0
M  V30 35 H 1.453407 3.829557 -0.612311 0
M  V30 36 H 2.542309 5.251776 1.158557 0
M  V30 37 H 0.834674 3.204445 5.340213 0
M  V30 38 H -0.748842 1.198804 5.144346 0
M  V30 39 H -1.080705 0.713102 2.618745 0
M  V30 40 H -1.707252 -0.498456 -0.782470 0
M  V30 41 H -1.136666 -1.901791 -1.698764 0
M  V30 42 H -1.132867 -1.263711 1.258968 0
M  V30 43 H -1.552000 -2.747027 0.421711 0
M  V30 END ATOM
M  V30 BEGIN BOND
M  V30 1 1 1 2
M  V30 2 1 2 3
M  V30 3 1 2 4
M  V30 4 1 4 5
M  V30 5 1 5 6
M  V30 6 1 6 7
M  V30 7 1 7 8
M  V30 8 2 8 9
M  V30 9 1 8 10
M  V30 10 1 10 11
M  V30 11 2 11 12
M  V30 12 1 12 13
M  V30 13 2 13 14
M  V30 14 1 14 15
M  V30 15 1 15 16
M  V30 16 1 16 17
M  V30 17 2 17 18
M  V30 18 1 18 19
M  V30 19 1 7 20
M  V30 20 1 20 21
M  V30 21 1 21 4
M  V30 22 1 19 11
M  V30 23 2 19 15
M  V30 24 1 1 22
M  V30 25 1 1 23
M  V30 26 1 1 24
M  V30 27 1 2 25 CFG=1
M  V30 28 1 3 26
M  V30 29 1 3 27
M  V30 30 1 4 28 CFG=1
M  V30 31 1 5 29
M  V30 32 1 5 30
M  V30 33 1 6 31
M  V30 34 1 6 32
M  V30 35 1 7 33 CFG=3
M  V30 36 1 10 34
M  V30 37 1 12 35
M  V30 38 1 13 36
M  V30 39 1 16 37
M  V30 40 1 17 38
M  V30 41 1 18 39
M  V30 42 1 20 40
M  V30 43 1 20 41
M  V30 44 1 21 42
M  V30 45 1 21 43
M  V30 END BOND
M  V30 END CTAB
M  END
>  <Dataset>  (928) 
ChEMBL_Kinases

>  <Ligand_Instance>  (928) 
nan

>  <PDB_ID>  (928) 
nan

>  <Standardized_SMILES>  (928) 
C[C@@H](N)[C@H]1CC[C@H](C(=O)Nc2ccnc3[nH]ccc23)CC1

>  <Name>  (928) 
nan

>  <Pocket>  (928) 
nan

>  <ATP_Site>  (928) 
nan

>  <Peripheral>  (928) 
nan

>  <Num_H_Atoms_ProtBoundConf>  (928) 
nan

>  <Num_Resolved_Atoms>  (928) 
nan

>  <Num_Not_Resolved_Atoms>  (928) 
nan

$$$$
CHEMBL4101953
     RDKit          3D

  0  0  0  0  0  0  0  0  0  0999 V3000
M  V30 BEGIN CTAB
M  V30 COUNTS 69 73 0 0 0
M  V30 BEGIN ATOM
M  V30 1 C 3.195728 -11.634366 0.752933 0
M  V30 2 C 3.348627 -11.091837 -0.440706 0
M  V30 3 C 3.481376 -9.660406 -0.643707 0
M  V30 4 O 3.628272 -9.103625 -1.748211 0
M  V30 5 N 3.437930 -8.847761 0.517966 0
M  V30 6 C 3.533333 -7.441609 0.680548 0
M  V30 7 C 2.300310 -6.791145 0.622575 0
M  V30 8 C 2.223212 -5.421353 0.768594 0
M  V30 9 C 3.367512 -4.679421 0.973836 0
M  V30 10 C 3.492189 -3.238498 1.155827 0
M  V30 11 O 4.552555 -2.581699 1.348006 0
M  V30 12 N 2.304998 -2.442641 1.120798 0
M  V30 13 C 1.963364 -1.074564 1.248486 0
M  V30 14 C 1.804694 -0.161414 0.226815 0
M  V30 15 C 1.472953 1.150281 0.529435 0
M  V30 16 C 1.296260 1.569773 1.840316 0
M  V30 17 N 0.939906 2.917662 2.129346 0
M  V30 18 C 0.476696 3.654636 1.021575 0
M  V30 19 C -0.913388 3.582477 0.967485 0
M  V30 20 C -1.661163 4.215238 -0.032159 0
M  V30 21 C -3.138385 4.136720 -0.073562 0
M  V30 22 C -3.803301 2.909269 -0.179430 0
M  V30 23 C -3.156188 1.587633 -0.258155 0
M  V30 24 C -3.482781 0.732512 0.801773 0
M  V30 25 C -2.953539 -0.518413 0.852656 0
M  V30 26 C -2.081279 -1.010904 -0.115685 0
M  V30 27 F -1.521479 -2.240264 -0.124891 0
M  V30 28 C -1.778709 -0.139411 -1.151030 0
M  V30 29 C -2.295615 1.135512 -1.236486 0
M  V30 30 N -5.124209 3.207713 -0.189337 0
M  V30 31 C -5.301728 4.527186 -0.096920 0
M  V30 32 S -6.844189 5.419487 -0.065929 0
M  V30 33 C -7.410755 5.876646 -1.713663 0
M  V30 34 N -4.090108 5.106395 -0.025508 0
M  V30 35 C -3.767320 6.504958 0.083134 0
M  V30 36 C -0.973199 4.944880 -1.008617 0
M  V30 37 C 0.404565 4.990305 -0.917148 0
M  V30 38 N 1.103877 4.373758 0.053777 0
M  V30 39 C 1.458447 0.643667 2.863214 0
M  V30 40 C 1.789459 -0.670276 2.574089 0
M  V30 41 C 4.593764 -5.332738 1.030339 0
M  V30 42 C 4.680728 -6.703056 0.885370 0
M  V30 43 H 3.086715 -11.775570 1.816741 0
M  V30 44 H 3.090680 -12.683894 0.968364 0
M  V30 45 H 3.364827 -11.812096 -1.242415 0
M  V30 46 H 3.320062 -9.176055 1.511469 0
M  V30 47 H 1.323873 -7.243924 0.467788 0
M  V30 48 H 1.314900 -4.838874 0.737704 0
M  V30 49 H 1.340908 -2.815907 0.969309 0
M  V30 50 H 1.953914 -0.540210 -0.774283 0
M  V30 51 H 1.350913 1.854284 -0.272184 0
M  V30 52 H 1.025456 3.301874 3.093029 0
M  V30 53 H -1.563701 3.055373 1.655256 0
M  V30 54 H -4.152285 0.963715 1.643881 0
M  V30 55 H -3.167996 -1.224353 1.645943 0
M  V30 56 H -1.113753 -0.395325 -1.970110 0
M  V30 57 H -2.089816 1.845775 -2.020070 0
M  V30 58 H -8.195380 5.195371 -2.087355 0
M  V30 59 H -6.578849 5.989322 -2.434696 0
M  V30 60 H -7.917583 6.877035 -1.653742 0
M  V30 61 H -2.974358 6.714804 0.815484 0
M  V30 62 H -4.714552 7.033871 0.348416 0
M  V30 63 H -3.509979 6.878331 -0.951211 0
M  V30 64 H -1.497339 5.444461 -1.790506 0
M  V30 65 H 0.995224 5.532535 -1.633919 0
M  V30 66 H 1.310018 1.023600 3.861722 0
M  V30 67 H 1.887578 -1.295778 3.464651 0
M  V30 68 H 5.571053 -4.861225 1.187451 0
M  V30 69 H 5.594891 -7.254224 0.919858 0
M  V30 END ATOM
M  V30 BEGIN BOND
M  V30 1 2 1 2
M  V30 2 1 2 3
M  V30 3 2 3 4
M  V30 4 1 3 5
M  V30 5 1 5 6
M  V30 6 2 6 7
M  V30 7 1 7 8
M  V30 8 2 8 9
M  V30 9 1 9 10
M  V30 10 2 10 11
M  V30 11 1 10 12
M  V30 12 1 12 13
M  V30 13 2 13 14
M  V30 14 1 14 15
M  V30 15 2 15 16
M  V30 16 1 16 17
M  V30 17 1 17 18
M  V30 18 2 18 19
M  V30 19 1 19 20
M  V30 20 1 20 21
M  V30 21 2 21 22
M  V30 22 1 22 23
M  V30 23 2 23 24
M  V30 24 1 24 25
M  V30 25 2 25 26
M  V30 26 1 26 27
M  V30 27 1 26 28
M  V30 28 2 28 29
M  V30 29 1 22 30
M  V30 30 2 30 31
M  V30 31 1 31 32
M  V30 32 1 32 33
M  V30 33 1 31 34
M  V30 34 1 34 35
M  V30 35 2 20 36
M  V30 36 1 36 37
M  V30 37 2 37 38
M  V30 38 1 16 39
M  V30 39 2 39 40
M  V30 40 1 9 41
M  V30 41 2 41 42
M  V30 42 1 42 6
M  V30 43 1 40 13
M  V30 44 1 38 18
M  V30 45 1 34 21
M  V30 46 1 29 23
M  V30 47 1 1 43
M  V30 48 1 1 44
M  V30 49 1 2 45
M  V30 50 1 5 46
M  V30 51 1 7 47
M  V30 52 1 8 48
M  V30 53 1 12 49
M  V30 54 1 14 50
M  V30 55 1 15 51
M  V30 56 1 17 52
M  V30 57 1 19 53
M  V30 58 1 24 54
M  V30 59 1 25 55
M  V30 60 1 28 56
M  V30 61 1 29 57
M  V30 62 1 33 58
M  V30 63 1 33 59
M  V30 64 1 33 60
M  V30 65 1 35 61
M  V30 66 1 35 62
M  V30 67 1 35 63
M  V30 68 1 36 64
M  V30 69 1 37 65
M  V30 70 1 39 66
M  V30 71 1 40 67
M  V30 72 1 41 68
M  V30 73 1 42 69
M  V30 END BOND
M  V30 END CTAB
M  END
>  <Dataset>  (929) 
ChEMBL_Kinases

>  <Ligand_Instance>  (929) 
nan

>  <PDB_ID>  (929) 
nan

>  <Standardized_SMILES>  (929) 
C=CC(=O)Nc1ccc(C(=O)Nc2ccc(Nc3cc(-c4c(-c5ccc(F)cc5)nc(SC)n4C)ccn3)cc2)cc1

>  <Name>  (929) 
nan

>  <Pocket>  (929) 
nan

>  <ATP_Site>  (929) 
nan

>  <Peripheral>  (929) 
nan

>  <Num_H_Atoms_ProtBoundConf>  (929) 
nan

>  <Num_Resolved_Atoms>  (929) 
nan

>  <Num_Not_Resolved_Atoms>  (929) 
nan

$$$$
CHEMBL3793405
     RDKit          3D

  0  0  0  0  0  0  0  0  0  0999 V3000
M  V30 BEGIN CTAB
M  V30 COUNTS 52 56 0 0 0
M  V30 BEGIN ATOM
M  V30 1 C 7.098632 -4.352910 2.369474 0
M  V30 2 O 6.648630 -2.999751 2.428439 0
M  V30 3 C 5.857782 -2.416970 1.449263 0
M  V30 4 O 5.554685 -3.157877 0.492408 0
M  V30 5 C 5.442702 -1.019484 1.593729 0
M  V30 6 C 5.813372 -0.251351 2.680680 0
M  V30 7 C 5.409873 1.062517 2.794225 0
M  V30 8 C 4.613643 1.626767 1.794867 0
M  V30 9 C 4.240777 0.849636 0.698791 0
M  V30 10 N 3.418130 1.470164 -0.311057 0
M  V30 11 C 2.058542 1.279800 0.010647 0
M  V30 12 O 1.954423 0.622875 1.086916 0
M  V30 13 C 0.872652 1.720397 -0.701922 0
M  V30 14 C -0.355131 1.387184 -0.147333 0
M  V30 15 C -1.539648 1.745694 -0.725529 0
M  V30 16 N -2.762980 1.370971 -0.103020 0
M  V30 17 C -3.155500 0.075850 -0.057887 0
M  V30 18 C -4.365892 0.011037 0.598298 0
M  V30 19 C -5.175881 -1.169204 0.887806 0
M  V30 20 C -6.366152 -0.995967 1.564265 0
M  V30 21 C -7.086196 -2.145940 1.808354 0
M  V30 22 C -6.704198 -3.426277 1.430079 0
M  V30 23 C -5.500156 -3.511739 0.757607 0
M  V30 24 C -4.720542 -2.406287 0.474944 0
M  V30 25 O -5.336487 -4.881965 0.487400 0
M  V30 26 C -6.584548 -5.538819 0.713776 0
M  V30 27 O -7.289368 -4.675699 1.587011 0
M  V30 28 N -4.668038 1.279039 0.931088 0
M  V30 29 N -3.695796 2.085254 0.503252 0
M  V30 30 C -1.592814 2.464472 -1.901890 0
M  V30 31 C -0.378329 2.800463 -2.460929 0
M  V30 32 C 0.799343 2.423807 -1.852979 0
M  V30 33 O 1.955781 2.797237 -2.472882 0
M  V30 34 C 4.648759 -0.465755 0.591869 0
M  V30 35 H 8.106247 -4.357200 2.848231 0
M  V30 36 H 7.155313 -4.685964 1.321066 0
M  V30 37 H 6.468214 -5.010710 3.005902 0
M  V30 38 H 6.423495 -0.673173 3.452815 0
M  V30 39 H 5.711222 1.647484 3.654071 0
M  V30 40 H 4.289198 2.662132 1.873447 0
M  V30 41 H 3.631818 1.996852 -1.174920 0
M  V30 42 H -0.403213 0.813823 0.791705 0
M  V30 43 H -2.642664 -0.804660 -0.455395 0
M  V30 44 H -6.692524 -0.032676 1.870271 0
M  V30 45 H -8.044060 -2.080200 2.343038 0
M  V30 46 H -3.798281 -2.570233 -0.053115 0
M  V30 47 H -7.102325 -5.702447 -0.250198 0
M  V30 48 H -6.378727 -6.475673 1.264661 0
M  V30 49 H -2.495277 2.763010 -2.383984 0
M  V30 50 H -0.376612 3.364510 -3.384371 0
M  V30 51 H 2.081729 2.588446 -3.458793 0
M  V30 52 H 4.320720 -0.997033 -0.280504 0
M  V30 END ATOM
M  V30 BEGIN BOND
M  V30 1 1 1 2
M  V30 2 1 2 3
M  V30 3 2 3 4
M  V30 4 1 3 5
M  V30 5 2 5 6
M  V30 6 1 6 7
M  V30 7 2 7 8
M  V30 8 1 8 9
M  V30 9 1 9 10
M  V30 10 1 10 11
M  V30 11 2 11 12
M  V30 12 1 11 13
M  V30 13 2 13 14
M  V30 14 1 14 15
M  V30 15 1 15 16
M  V30 16 1 16 17
M  V30 17 2 17 18
M  V30 18 1 18 19
M  V30 19 2 19 20
M  V30 20 1 20 21
M  V30 21 2 21 22
M  V30 22 1 22 23
M  V30 23 2 23 24
M  V30 24 1 23 25
M  V30 25 1 25 26
M  V30 26 1 26 27
M  V30 27 1 18 28
M  V30 28 2 28 29
M  V30 29 2 15 30
M  V30 30 1 30 31
M  V30 31 2 31 32
M  V30 32 1 32 33
M  V30 33 2 9 34
M  V30 34 1 34 5
M  V30 35 1 32 13
M  V30 36 1 29 16
M  V30 37 1 24 19
M  V30 38 1 27 22
M  V30 39 1 1 35
M  V30 40 1 1 36
M  V30 41 1 1 37
M  V30 42 1 6 38
M  V30 43 1 7 39
M  V30 44 1 8 40
M  V30 45 1 10 41
M  V30 46 1 14 42
M  V30 47 1 17 43
M  V30 48 1 20 44
M  V30 49 1 21 45
M  V30 50 1 24 46
M  V30 51 1 26 47
M  V30 52 1 26 48
M  V30 53 1 30 49
M  V30 54 1 31 50
M  V30 55 1 33 51
M  V30 56 1 34 52
M  V30 END BOND
M  V30 END CTAB
M  END
>  <Dataset>  (930) 
ChEMBL_Kinases

>  <Ligand_Instance>  (930) 
nan

>  <PDB_ID>  (930) 
nan

>  <Standardized_SMILES>  (930) 
COC(=O)c1cccc(NC(=O)c2cc(-n3cc(-c4ccc5c(c4)OCO5)nn3)ccc2O)c1

>  <Name>  (930) 
nan

>  <Pocket>  (930) 
nan

>  <ATP_Site>  (930) 
nan

>  <Peripheral>  (930) 
nan

>  <Num_H_Atoms_ProtBoundConf>  (930) 
nan

>  <Num_Resolved_Atoms>  (930) 
nan

>  <Num_Not_Resolved_Atoms>  (930) 
nan

$$$$
CHEMBL4101739
     RDKit          3D

  0  0  0  0  0  0  0  0  0  0999 V3000
M  V30 BEGIN CTAB
M  V30 COUNTS 52 55 0 0 0
M  V30 BEGIN ATOM
M  V30 1 O 2.597839 -0.515526 1.593434 0
M  V30 2 C 1.413878 -0.312613 1.176644 0
M  V30 3 N 1.156406 -0.667597 -0.151158 0
M  V30 4 C 1.888892 -1.206657 -1.244519 0
M  V30 5 C 2.942350 -0.307727 -1.768900 0
M  V30 6 C 3.984909 0.142558 -0.854911 0
M  V30 7 C 5.110606 -0.580748 -0.481274 0
M  V30 8 C 6.117292 -0.124027 0.334102 0
M  V30 9 C 6.029783 1.142821 0.832992 0
M  V30 10 C 4.958326 1.954472 0.531093 0
M  V30 11 C 3.996080 1.427008 -0.287940 0
M  V30 12 C 0.520268 0.257036 2.153030 0
M  V30 13 C 0.995693 0.525900 3.409151 0
M  V30 14 C 0.159901 1.079641 4.387002 0
M  V30 15 C -1.154581 1.363215 4.102136 0
M  V30 16 C -1.690870 1.107674 2.833804 0
M  V30 17 N -3.031136 1.412448 2.566706 0
M  V30 18 C -3.804476 1.224007 1.362076 0
M  V30 19 C -3.991018 -0.199160 0.985440 0
M  V30 20 N -3.397754 -1.142015 0.234023 0
M  V30 21 C -4.059871 -2.307496 0.288017 0
M  V30 22 C -3.490412 -3.396582 -0.498395 0
M  V30 23 C -4.242630 -4.072920 -1.438020 0
M  V30 24 C -3.594682 -5.092417 -2.127319 0
M  V30 25 N -2.313154 -5.448561 -1.937549 0
M  V30 26 C -1.556688 -4.798181 -1.020474 0
M  V30 27 C -2.157237 -3.765636 -0.299628 0
M  V30 28 N -5.106311 -2.103157 1.097332 0
M  V30 29 N -5.068832 -0.831769 1.520747 0
M  V30 30 C -0.812319 0.571003 1.946100 0
M  V30 31 H 0.127631 -0.449196 -0.312782 0
M  V30 32 H 1.151943 -1.374155 -2.081864 0
M  V30 33 H 2.307846 -2.228115 -0.982730 0
M  V30 34 H 3.372902 -0.686795 -2.742278 0
M  V30 35 H 2.407626 0.640584 -2.105324 0
M  V30 36 H 5.196083 -1.597401 -0.872311 0
M  V30 37 H 6.959705 -0.763532 0.570871 0
M  V30 38 H 6.792087 1.550368 1.477333 0
M  V30 39 H 4.848803 2.959253 0.902225 0
M  V30 40 H 3.138464 2.074609 -0.530479 0
M  V30 41 H 2.012012 0.341959 3.739299 0
M  V30 42 H 0.539846 1.290205 5.377167 0
M  V30 43 H -1.794706 1.795449 4.876250 0
M  V30 44 H -3.598220 1.849897 3.345823 0
M  V30 45 H -3.163511 1.689240 0.547726 0
M  V30 46 H -4.755344 1.750380 1.353383 0
M  V30 47 H -5.278927 -3.821894 -1.626051 0
M  V30 48 H -4.131619 -5.657506 -2.875027 0
M  V30 49 H -0.536289 -5.088124 -0.875309 0
M  V30 50 H -1.543813 -3.258349 0.425227 0
M  V30 51 H -5.881400 -0.621366 2.167492 0
M  V30 52 H -1.207032 0.372950 0.961308 0
M  V30 END ATOM
M  V30 BEGIN BOND
M  V30 1 2 1 2
M  V30 2 1 2 3
M  V30 3 1 3 4
M  V30 4 1 4 5
M  V30 5 1 5 6
M  V30 6 2 6 7
M  V30 7 1 7 8
M  V30 8 2 8 9
M  V30 9 1 9 10
M  V30 10 2 10 11
M  V30 11 1 2 12
M  V30 12 2 12 13
M  V30 13 1 13 14
M  V30 14 2 14 15
M  V30 15 1 15 16
M  V30 16 1 16 17
M  V30 17 1 17 18
M  V30 18 1 18 19
M  V30 19 2 19 20
M  V30 20 1 20 21
M  V30 21 1 21 22
M  V30 22 2 22 23
M  V30 23 1 23 24
M  V30 24 2 24 25
M  V30 25 1 25 26
M  V30 26 2 26 27
M  V30 27 2 21 28
M  V30 28 1 28 29
M  V30 29 2 16 30
M  V30 30 1 11 6
M  V30 31 1 30 12
M  V30 32 1 29 19
M  V30 33 1 27 22
M  V30 34 1 3 31
M  V30 35 1 4 32
M  V30 36 1 4 33
M  V30 37 1 5 34
M  V30 38 1 5 35
M  V30 39 1 7 36
M  V30 40 1 8 37
M  V30 41 1 9 38
M  V30 42 1 10 39
M  V30 43 1 11 40
M  V30 44 1 13 41
M  V30 45 1 14 42
M  V30 46 1 15 43
M  V30 47 1 17 44
M  V30 48 1 18 45
M  V30 49 1 18 46
M  V30 50 1 23 47
M  V30 51 1 24 48
M  V30 52 1 26 49
M  V30 53 1 27 50
M  V30 54 1 29 51
M  V30 55 1 30 52
M  V30 END BOND
M  V30 END CTAB
M  END
>  <Dataset>  (931) 
ChEMBL_Kinases

>  <Ligand_Instance>  (931) 
nan

>  <PDB_ID>  (931) 
nan

>  <Standardized_SMILES>  (931) 
O=C(NCCc1ccccc1)c1cccc(NCc2nc(-c3ccncc3)n[nH]2)c1

>  <Name>  (931) 
nan

>  <Pocket>  (931) 
nan

>  <ATP_Site>  (931) 
nan

>  <Peripheral>  (931) 
nan

>  <Num_H_Atoms_ProtBoundConf>  (931) 
nan

>  <Num_Resolved_Atoms>  (931) 
nan

>  <Num_Not_Resolved_Atoms>  (931) 
nan

$$$$
CHEMBL4101554
     RDKit          3D

  0  0  0  0  0  0  0  0  0  0999 V3000
M  V30 BEGIN CTAB
M  V30 COUNTS 46 49 0 0 0
M  V30 BEGIN ATOM
M  V30 1 N 0.686375 -5.083091 3.347237 0
M  V30 2 C 1.870742 -4.712360 2.660268 0
M  V30 3 O 2.827040 -5.468870 2.907440 0
M  V30 4 C 1.984662 -3.573530 1.756402 0
M  V30 5 C 3.184075 -3.334748 1.164503 0
M  V30 6 C 3.243434 -2.250121 0.320349 0
M  V30 7 Cl 4.805704 -1.938142 -0.453486 0
M  V30 8 C 2.139862 -1.422987 0.069849 0
M  V30 9 C 1.971361 -0.310120 -0.726245 0
M  V30 10 Cl 3.339184 0.293583 -1.692402 0
M  V30 11 C 0.641291 0.084844 -0.575317 0
M  V30 12 C 0.215048 1.267717 -1.299050 0
M  V30 13 C -1.006219 1.704078 -1.522334 0
M  V30 14 C -1.618744 2.864436 -2.223778 0
M  V30 15 O -0.594436 3.675679 -2.751709 0
M  V30 16 C 0.538454 3.601192 -1.989838 0
M  V30 17 C 1.183189 2.250236 -1.885294 0
M  V30 18 N 0.058736 -0.764332 0.275953 0
M  V30 19 C -1.301725 -0.714319 0.734628 0
M  V30 20 C -1.636958 -1.933727 1.604958 0
M  V30 21 C -1.415009 -1.670086 3.047883 0
M  V30 22 C -0.462151 -0.563966 3.398865 0
M  V30 23 N -0.669809 0.628203 2.652596 0
M  V30 24 C -1.660667 0.435715 1.608429 0
M  V30 25 C 0.944000 -1.706281 0.694605 0
M  V30 26 N 0.980479 -2.772445 1.491779 0
M  V30 27 H 0.557331 -4.708945 4.306582 0
M  V30 28 H 0.301184 -4.863432 4.296603 0
M  V30 29 H 4.047582 -3.946774 1.333800 0
M  V30 30 H -1.842451 1.147993 -1.168190 0
M  V30 31 H -2.363358 2.604902 -2.973906 0
M  V30 32 H -2.102701 3.504186 -1.458288 0
M  V30 33 H 1.263201 4.393995 -2.241487 0
M  V30 34 H 0.215791 3.851180 -0.934756 0
M  V30 35 H 2.096122 2.305139 -1.237676 0
M  V30 36 H 1.523424 1.936688 -2.888296 0
M  V30 37 H -2.038682 -0.776458 -0.092487 0
M  V30 38 H -1.283029 -2.880983 1.200492 0
M  V30 39 H -2.776320 -2.032744 1.499424 0
M  V30 40 H -2.380780 -1.387380 3.577218 0
M  V30 41 H -1.119083 -2.606247 3.604326 0
M  V30 42 H 0.605584 -0.875800 3.449965 0
M  V30 43 H -0.689777 -0.288809 4.480312 0
M  V30 44 H -0.814229 1.495311 3.182803 0
M  V30 45 H -2.587366 0.133555 2.196088 0
M  V30 46 H -1.972063 1.361595 1.139080 0
M  V30 END ATOM
M  V30 BEGIN BOND
M  V30 1 1 1 2
M  V30 2 2 2 3
M  V30 3 1 2 4
M  V30 4 2 4 5
M  V30 5 1 5 6
M  V30 6 1 6 7
M  V30 7 2 6 8
M  V30 8 1 8 9
M  V30 9 1 9 10
M  V30 10 2 9 11
M  V30 11 1 11 12
M  V30 12 2 12 13
M  V30 13 1 13 14
M  V30 14 1 14 15
M  V30 15 1 15 16
M  V30 16 1 16 17
M  V30 17 1 11 18
M  V30 18 1 18 19
M  V30 19 1 19 20
M  V30 20 1 20 21
M  V30 21 1 21 22
M  V30 22 1 22 23
M  V30 23 1 23 24
M  V30 24 1 18 25
M  V30 25 2 25 26
M  V30 26 1 26 4
M  V30 27 1 25 8
M  V30 28 1 17 12
M  V30 29 1 24 19
M  V30 30 1 1 27
M  V30 31 1 1 28
M  V30 32 1 5 29
M  V30 33 1 13 30
M  V30 34 1 14 31
M  V30 35 1 14 32
M  V30 36 1 16 33
M  V30 37 1 16 34
M  V30 38 1 17 35
M  V30 39 1 17 36
M  V30 40 1 19 37
M  V30 41 1 20 38
M  V30 42 1 20 39
M  V30 43 1 21 40
M  V30 44 1 21 41
M  V30 45 1 22 42
M  V30 46 1 22 43
M  V30 47 1 23 44
M  V30 48 1 24 45
M  V30 49 1 24 46
M  V30 END BOND
M  V30 END CTAB
M  END
>  <Dataset>  (932) 
ChEMBL_Kinases

>  <Ligand_Instance>  (932) 
nan

>  <PDB_ID>  (932) 
nan

>  <Standardized_SMILES>  (932) 
NC(=O)c1cc(Cl)c2c(Cl)c(C3=CCOCC3)n(C3CCCNC3)c2n1

>  <Name>  (932) 
nan

>  <Pocket>  (932) 
nan

>  <ATP_Site>  (932) 
nan

>  <Peripheral>  (932) 
nan

>  <Num_H_Atoms_ProtBoundConf>  (932) 
nan

>  <Num_Resolved_Atoms>  (932) 
nan

>  <Num_Not_Resolved_Atoms>  (932) 
nan

$$$$
CHEMBL4101547
     RDKit          3D

  0  0  0  0  0  0  0  0  0  0999 V3000
M  V30 BEGIN CTAB
M  V30 COUNTS 51 55 0 0 0
M  V30 BEGIN ATOM
M  V30 1 C -1.329753 -2.376458 3.333755 0
M  V30 2 C -0.336035 -3.272941 2.573818 0 CFG=2
M  V30 3 C -0.061260 -2.601505 1.294777 0
M  V30 4 N 0.366969 -3.388349 0.191093 0
M  V30 5 C 0.563492 -2.944789 -1.146121 0
M  V30 6 O 0.962856 -3.779697 -2.002750 0
M  V30 7 C 0.269773 -1.529941 -1.391285 0
M  V30 8 N 0.956767 -0.389612 -1.649654 0
M  V30 9 C 0.276323 0.778606 -1.818499 0
M  V30 10 N 1.147626 1.871042 -2.059884 0
M  V30 11 C 1.340319 2.384193 -0.736900 0
M  V30 12 C 2.024867 1.808930 0.337335 0
M  V30 13 C 1.991045 2.648797 1.451804 0
M  V30 14 C 2.637498 2.242586 2.731331 0
M  V30 15 C 1.921542 1.144762 3.525407 0
M  V30 16 C 3.270651 0.925354 2.869282 0
M  V30 17 N 1.290793 3.709147 1.032455 0
M  V30 18 N 0.908029 3.574638 -0.224421 0
M  V30 19 C -1.092161 0.853016 -1.739679 0
M  V30 20 C -1.709612 2.075881 -1.917443 0
M  V30 21 C -3.069265 2.100853 -1.820600 0
M  V30 22 C -3.802155 0.966751 -1.558506 0
M  V30 23 C -3.181345 -0.241823 -1.385308 0
M  V30 24 C -1.787179 -0.310388 -1.477650 0
M  V30 25 N -1.059119 -1.429496 -1.319238 0
M  V30 26 C 0.583204 -4.784073 0.559171 0
M  V30 27 C -0.672249 -5.268448 1.278482 0
M  V30 28 N -0.799501 -4.613236 2.563942 0
M  V30 29 H -0.736064 -1.551216 3.773262 0
M  V30 30 H -1.863700 -2.976951 4.077908 0
M  V30 31 H -2.040545 -1.881787 2.609185 0
M  V30 32 H 0.599627 -3.265019 3.206562 0
M  V30 33 H -0.927186 -1.949235 0.992615 0
M  V30 34 H 0.763559 -1.848615 1.480918 0
M  V30 35 H 1.597383 2.300157 -2.879869 0
M  V30 36 H 2.471281 0.832968 0.175995 0
M  V30 37 H 2.947696 3.091748 3.366305 0
M  V30 38 H 1.972895 1.180738 4.627529 0
M  V30 39 H 1.009593 0.745520 3.028271 0
M  V30 40 H 3.249674 0.198844 2.002439 0
M  V30 41 H 4.151787 0.739806 3.501253 0
M  V30 42 H 1.118408 4.498611 1.700175 0
M  V30 43 H -1.114068 2.953798 -2.121338 0
M  V30 44 H -3.641583 2.999375 -1.941018 0
M  V30 45 H -4.870732 0.853778 -1.454813 0
M  V30 46 H -3.607013 -1.233038 -1.174505 0
M  V30 47 H 1.491835 -4.910178 1.159775 0
M  V30 48 H 0.680161 -5.400693 -0.354979 0
M  V30 49 H -0.564951 -6.351645 1.446719 0
M  V30 50 H -1.565604 -5.102495 0.652117 0
M  V30 51 H -0.486874 -5.204980 3.355436 0
M  V30 END ATOM
M  V30 BEGIN BOND
M  V30 1 1 1 2
M  V30 2 1 2 3
M  V30 3 1 3 4
M  V30 4 1 4 5
M  V30 5 2 5 6
M  V30 6 1 5 7
M  V30 7 2 7 8
M  V30 8 1 8 9
M  V30 9 1 9 10
M  V30 10 1 10 11
M  V30 11 1 11 12
M  V30 12 2 12 13
M  V30 13 1 13 14
M  V30 14 1 14 15
M  V30 15 1 15 16
M  V30 16 1 13 17
M  V30 17 1 17 18
M  V30 18 2 9 19
M  V30 19 1 19 20
M  V30 20 2 20 21
M  V30 21 1 21 22
M  V30 22 2 22 23
M  V30 23 1 23 24
M  V30 24 2 24 25
M  V30 25 1 4 26
M  V30 26 1 26 27
M  V30 27 1 27 28
M  V30 28 1 28 2
M  V30 29 1 25 7
M  V30 30 2 18 11
M  V30 31 1 24 19
M  V30 32 1 16 14
M  V30 33 1 1 29
M  V30 34 1 1 30
M  V30 35 1 1 31
M  V30 36 1 2 32 CFG=1
M  V30 37 1 3 33
M  V30 38 1 3 34
M  V30 39 1 10 35
M  V30 40 1 12 36
M  V30 41 1 14 37
M  V30 42 1 15 38
M  V30 43 1 15 39
M  V30 44 1 16 40
M  V30 45 1 16 41
M  V30 46 1 17 42
M  V30 47 1 20 43
M  V30 48 1 21 44
M  V30 49 1 22 45
M  V30 50 1 23 46
M  V30 51 1 26 47
M  V30 52 1 26 48
M  V30 53 1 27 49
M  V30 54 1 27 50
M  V30 55 1 28 51
M  V30 END BOND
M  V30 END CTAB
M  END
>  <Dataset>  (933) 
ChEMBL_Kinases

>  <Ligand_Instance>  (933) 
nan

>  <PDB_ID>  (933) 
nan

>  <Standardized_SMILES>  (933) 
C[C@@H]1CN(C(=O)c2nc(Nc3cc(C4CC4)[nH]n3)c3ccccc3n2)CCN1

>  <Name>  (933) 
nan

>  <Pocket>  (933) 
nan

>  <ATP_Site>  (933) 
nan

>  <Peripheral>  (933) 
nan

>  <Num_H_Atoms_ProtBoundConf>  (933) 
nan

>  <Num_Resolved_Atoms>  (933) 
nan

>  <Num_Not_Resolved_Atoms>  (933) 
nan

$$$$
CHEMBL4101411
     RDKit          3D

  0  0  0  0  0  0  0  0  0  0999 V3000
M  V30 BEGIN CTAB
M  V30 COUNTS 79 84 0 0 0
M  V30 BEGIN ATOM
M  V30 1 C 2.666555 -6.673406 -3.233395 0
M  V30 2 C 4.117678 -6.653916 -3.654738 0
M  V30 3 C 4.679147 -8.058381 -3.566870 0
M  V30 4 C 4.250247 -6.186937 -5.091357 0
M  V30 5 C 4.877523 -5.771160 -2.742009 0
M  V30 6 C 5.145189 -4.402733 -2.815896 0
M  V30 7 C 5.897245 -4.006693 -1.732220 0
M  V30 8 N 6.359743 -2.670679 -1.474291 0
M  V30 9 C 5.564074 -1.766173 -0.719751 0
M  V30 10 O 4.453882 -2.182497 -0.294149 0
M  V30 11 N 5.930776 -0.416934 -0.407712 0
M  V30 12 C 4.909651 0.239230 0.371206 0
M  V30 13 C 4.897933 0.229195 1.758820 0
M  V30 14 C 3.864582 0.885844 2.397563 0
M  V30 15 C 2.870002 1.534694 1.694544 0
M  V30 16 N 1.765901 2.231308 2.263645 0
M  V30 17 N 0.529887 2.011304 1.926288 0
M  V30 18 C -0.353197 2.790558 2.602103 0
M  V30 19 C -1.790346 2.697070 2.359395 0
M  V30 20 C -2.123623 2.768396 1.022553 0
M  V30 21 C -3.421095 2.675481 0.572965 0
M  V30 22 C -4.457009 2.503570 1.459782 0
M  V30 23 O -5.824307 2.373974 1.349524 0
M  V30 24 C -6.615810 2.368855 0.212625 0
M  V30 25 C -6.429544 1.274101 -0.773103 0
M  V30 26 N -6.761629 -0.011558 -0.228918 0
M  V30 27 C -5.945815 -0.546272 0.786114 0
M  V30 28 C -6.579350 -1.846588 1.303514 0
M  V30 29 O -6.678998 -2.737965 0.271419 0
M  V30 30 C -7.473862 -2.241762 -0.768733 0
M  V30 31 C -6.869754 -0.985761 -1.326361 0
M  V30 32 C -4.136400 2.429019 2.825044 0
M  V30 33 C -2.810817 2.525269 3.268560 0
M  V30 34 C 0.453541 3.548592 3.421559 0
M  V30 35 C 0.064205 4.515191 4.317968 0
M  V30 36 N -1.287934 4.885682 4.525763 0
M  V30 37 N 1.072380 5.126342 5.007492 0
M  V30 38 C 2.366073 4.768770 4.787857 0
M  V30 39 N 2.758862 3.808086 3.896323 0
M  V30 40 C 1.765657 3.189950 3.200741 0
M  V30 41 C 2.937982 1.508862 0.301804 0
M  V30 42 C 3.948006 0.867719 -0.390440 0
M  V30 43 N 6.052246 -5.152010 -1.050473 0
M  V30 44 O 5.475819 -6.138018 -1.625679 0
M  V30 45 H 2.213256 -7.686311 -3.289120 0
M  V30 46 H 2.079645 -5.927800 -3.822953 0
M  V30 47 H 2.617482 -6.355075 -2.176805 0
M  V30 48 H 3.810779 -8.763328 -3.692741 0
M  V30 49 H 5.397981 -8.223400 -4.421745 0
M  V30 50 H 5.178924 -8.171058 -2.599575 0
M  V30 51 H 3.429928 -6.655853 -5.673764 0
M  V30 52 H 5.201346 -6.551183 -5.490826 0
M  V30 53 H 4.091126 -5.094250 -5.194580 0
M  V30 54 H 4.780887 -3.796554 -3.638254 0
M  V30 55 H 7.238772 -2.233395 -1.770908 0
M  V30 56 H 6.858033 -0.074923 -0.763433 0
M  V30 57 H 5.673728 -0.276078 2.291451 0
M  V30 58 H 3.787186 0.922182 3.463229 0
M  V30 59 H -1.398748 2.902778 0.215912 0
M  V30 60 H -3.764949 2.731251 -0.443566 0
M  V30 61 H -7.699687 2.334483 0.527384 0
M  V30 62 H -6.512072 3.346336 -0.369034 0
M  V30 63 H -7.033350 1.483089 -1.699393 0
M  V30 64 H -5.375799 1.245312 -1.177821 0
M  V30 65 H -5.888489 0.139392 1.665389 0
M  V30 66 H -4.929018 -0.753093 0.369923 0
M  V30 67 H -7.566472 -1.563274 1.723491 0
M  V30 68 H -5.950192 -2.290586 2.088998 0
M  V30 69 H -8.516305 -2.069549 -0.430704 0
M  V30 70 H -7.524996 -3.059761 -1.518980 0
M  V30 71 H -7.464091 -0.596809 -2.159078 0
M  V30 72 H -5.852341 -1.223573 -1.720348 0
M  V30 73 H -4.802878 2.297640 3.685894 0
M  V30 74 H -2.502927 2.462486 4.299301 0
M  V30 75 H -1.847685 4.532985 5.335205 0
M  V30 76 H -1.379009 5.504152 3.691407 0
M  V30 77 H 3.130492 5.291344 5.367325 0
M  V30 78 H 2.172564 2.010694 -0.302003 0
M  V30 79 H 3.952038 0.877828 -1.474552 0
M  V30 END ATOM
M  V30 BEGIN BOND
M  V30 1 1 1 2
M  V30 2 1 2 3
M  V30 3 1 2 4
M  V30 4 1 2 5
M  V30 5 2 5 6
M  V30 6 1 6 7
M  V30 7 1 7 8
M  V30 8 1 8 9
M  V30 9 2 9 10
M  V30 10 1 9 11
M  V30 11 1 11 12
M  V30 12 2 12 13
M  V30 13 1 13 14
M  V30 14 2 14 15
M  V30 15 1 15 16
M  V30 16 1 16 17
M  V30 17 2 17 18
M  V30 18 1 18 19
M  V30 19 2 19 20
M  V30 20 1 20 21
M  V30 21 2 21 22
M  V30 22 1 22 23
M  V30 23 1 23 24
M  V30 24 1 24 25
M  V30 25 1 25 26
M  V30 26 1 26 27
M  V30 27 1 27 28
M  V30 28 1 28 29
M  V30 29 1 29 30
M  V30 30 1 30 31
M  V30 31 1 22 32
M  V30 32 2 32 33
M  V30 33 1 18 34
M  V30 34 2 34 35
M  V30 35 1 35 36
M  V30 36 1 35 37
M  V30 37 2 37 38
M  V30 38 1 38 39
M  V30 39 2 39 40
M  V30 40 1 15 41
M  V30 41 2 41 42
M  V30 42 2 7 43
M  V30 43 1 43 44
M  V30 44 1 44 5
M  V30 45 1 42 12
M  V30 46 1 40 16
M  V30 47 1 33 19
M  V30 48 1 40 34
M  V30 49 1 31 26
M  V30 50 1 1 45
M  V30 51 1 1 46
M  V30 52 1 1 47
M  V30 53 1 3 48
M  V30 54 1 3 49
M  V30 55 1 3 50
M  V30 56 1 4 51
M  V30 57 1 4 52
M  V30 58 1 4 53
M  V30 59 1 6 54
M  V30 60 1 8 55
M  V30 61 1 11 56
M  V30 62 1 13 57
M  V30 63 1 14 58
M  V30 64 1 20 59
M  V30 65 1 21 60
M  V30 66 1 24 61
M  V30 67 1 24 62
M  V30 68 1 25 63
M  V30 69 1 25 64
M  V30 70 1 27 65
M  V30 71 1 27 66
M  V30 72 1 28 67
M  V30 73 1 28 68
M  V30 74 1 30 69
M  V30 75 1 30 70
M  V30 76 1 31 71
M  V30 77 1 31 72
M  V30 78 1 32 73
M  V30 79 1 33 74
M  V30 80 1 36 75
M  V30 81 1 36 76
M  V30 82 1 38 77
M  V30 83 1 41 78
M  V30 84 1 42 79
M  V30 END BOND
M  V30 END CTAB
M  END
>  <Dataset>  (934) 
ChEMBL_Kinases

>  <Ligand_Instance>  (934) 
nan

>  <PDB_ID>  (934) 
nan

>  <Standardized_SMILES>  (934) 
CC(C)(C)c1cc(NC(=O)Nc2ccc(-n3nc(-c4ccc(OCCN5CCOCC5)cc4)c4c(N)ncnc43)cc2)no1

>  <Name>  (934) 
nan

>  <Pocket>  (934) 
nan

>  <ATP_Site>  (934) 
nan

>  <Peripheral>  (934) 
nan

>  <Num_H_Atoms_ProtBoundConf>  (934) 
nan

>  <Num_Resolved_Atoms>  (934) 
nan

>  <Num_Not_Resolved_Atoms>  (934) 
nan

$$$$
CHEMBL379346
     RDKit          3D

  0  0  0  0  0  0  0  0  0  0999 V3000
M  V30 BEGIN CTAB
M  V30 COUNTS 47 52 0 0 0
M  V30 BEGIN ATOM
M  V30 1 O 3.358014 -0.014392 1.839587 0
M  V30 2 C 2.451007 -0.874855 1.800767 0
M  V30 3 N 2.297357 -2.031327 2.633270 0
M  V30 4 C 1.126229 -2.717659 2.229347 0
M  V30 5 O 0.862081 -3.748020 2.865104 0
M  V30 6 C 0.491494 -2.033671 1.133704 0
M  V30 7 C 1.300283 -0.947755 0.904768 0
M  V30 8 C 0.990895 -0.049837 -0.102548 0
M  V30 9 C 1.695433 1.147105 -0.495975 0
M  V30 10 C 2.367650 1.253660 -1.690237 0
M  V30 11 C 3.031228 2.410717 -2.028759 0
M  V30 12 C 3.007277 3.462755 -1.142466 0
M  V30 13 C 2.337434 3.373435 0.060959 0
M  V30 14 C 1.664027 2.193952 0.400073 0
M  V30 15 C 0.999889 2.247825 1.695773 0
M  V30 16 C 1.578205 2.455447 2.926835 0
M  V30 17 C 0.851931 2.488494 4.097444 0
M  V30 18 C -0.515791 2.311249 4.086442 0
M  V30 19 C -1.129475 2.100595 2.869048 0
M  V30 20 C -0.371111 2.073240 1.713538 0
M  V30 21 C -0.153757 -0.267940 -0.878870 0
M  V30 22 C -0.950134 -1.375072 -0.621997 0
M  V30 23 N -2.094555 -1.803659 -1.222308 0
M  V30 24 C -2.437911 -2.934419 -0.566209 0
M  V30 25 C -3.545475 -3.710345 -0.845912 0
M  V30 26 C -3.796941 -4.847443 -0.108126 0
M  V30 27 C -2.902222 -5.159007 0.900303 0
M  V30 28 O -3.177371 -6.319297 1.637383 0
M  V30 29 C -1.822073 -4.344020 1.124673 0
M  V30 30 C -1.528859 -3.214821 0.428469 0
M  V30 31 C -0.605040 -2.241568 0.389560 0
M  V30 32 H 3.017347 -2.222171 3.390271 0
M  V30 33 H 2.322154 0.364794 -2.313000 0
M  V30 34 H 3.542258 2.430374 -2.985285 0
M  V30 35 H 3.552469 4.333577 -1.484002 0
M  V30 36 H 2.384896 4.274542 0.690987 0
M  V30 37 H 2.668769 2.593754 2.906573 0
M  V30 38 H 1.433059 2.662025 5.013178 0
M  V30 39 H -0.956226 2.360981 5.073607 0
M  V30 40 H -2.196398 1.969398 2.924592 0
M  V30 41 H -1.012744 1.897063 0.840671 0
M  V30 42 H -0.484252 0.385470 -1.701122 0
M  V30 43 H -2.588178 -1.332517 -2.029355 0
M  V30 44 H -4.244500 -3.481953 -1.621072 0
M  V30 45 H -4.657197 -5.456960 -0.319155 0
M  V30 46 H -2.363577 -6.922133 1.779412 0
M  V30 47 H -1.207515 -4.683882 1.921656 0
M  V30 END ATOM
M  V30 BEGIN BOND
M  V30 1 2 1 2
M  V30 2 1 2 3
M  V30 3 1 3 4
M  V30 4 2 4 5
M  V30 5 1 4 6
M  V30 6 2 6 7
M  V30 7 1 7 8
M  V30 8 1 8 9
M  V30 9 2 9 10
M  V30 10 1 10 11
M  V30 11 2 11 12
M  V30 12 1 12 13
M  V30 13 2 13 14
M  V30 14 1 14 15
M  V30 15 2 15 16
M  V30 16 1 16 17
M  V30 17 2 17 18
M  V30 18 1 18 19
M  V30 19 2 19 20
M  V30 20 2 8 21
M  V30 21 1 21 22
M  V30 22 1 22 23
M  V30 23 1 23 24
M  V30 24 2 24 25
M  V30 25 1 25 26
M  V30 26 2 26 27
M  V30 27 1 27 28
M  V30 28 1 27 29
M  V30 29 2 29 30
M  V30 30 1 30 31
M  V30 31 1 7 2
M  V30 32 1 14 9
M  V30 33 1 20 15
M  V30 34 2 31 22
M  V30 35 1 31 6
M  V30 36 1 30 24
M  V30 37 1 3 32
M  V30 38 1 10 33
M  V30 39 1 11 34
M  V30 40 1 12 35
M  V30 41 1 13 36
M  V30 42 1 16 37
M  V30 43 1 17 38
M  V30 44 1 18 39
M  V30 45 1 19 40
M  V30 46 1 20 41
M  V30 47 1 21 42
M  V30 48 1 23 43
M  V30 49 1 25 44
M  V30 50 1 26 45
M  V30 51 1 28 46
M  V30 52 1 29 47
M  V30 END BOND
M  V30 END CTAB
M  END
>  <Dataset>  (935) 
ChEMBL_Kinases

>  <Ligand_Instance>  (935) 
nan

>  <PDB_ID>  (935) 
nan

>  <Standardized_SMILES>  (935) 
O=C1NC(=O)c2c1c(-c1ccccc1-c1ccccc1)cc1[nH]c3ccc(O)cc3c21

>  <Name>  (935) 
nan

>  <Pocket>  (935) 
nan

>  <ATP_Site>  (935) 
nan

>  <Peripheral>  (935) 
nan

>  <Num_H_Atoms_ProtBoundConf>  (935) 
nan

>  <Num_Resolved_Atoms>  (935) 
nan

>  <Num_Not_Resolved_Atoms>  (935) 
nan

$$$$
CHEMBL3401118
     RDKit          3D

  0  0  0  0  0  0  0  0  0  0999 V3000
M  V30 BEGIN CTAB
M  V30 COUNTS 39 41 0 0 0
M  V30 BEGIN ATOM
M  V30 1 C 0.234854 -2.691316 -0.569808 0
M  V30 2 C 1.171465 -2.654711 0.583303 0 CFG=2
M  V30 3 C 1.390073 -4.006088 1.222378 0
M  V30 4 O 2.568529 -3.911119 1.948805 0
M  V30 5 C 2.735720 -2.711171 2.586265 0
M  V30 6 C 1.437963 -2.020927 2.932183 0
M  V30 7 N 0.748412 -1.768771 1.670429 0
M  V30 8 C -0.263521 -0.815651 1.284608 0
M  V30 9 N 0.267034 0.294939 0.732431 0
M  V30 10 C -0.537599 1.296864 0.308469 0
M  V30 11 C 0.013789 2.494491 -0.285191 0
M  V30 12 C -0.756088 3.561478 -0.765434 0
M  V30 13 C -0.129882 4.663068 -1.316143 0
M  V30 14 N 1.205956 4.739542 -1.404221 0
M  V30 15 C 1.994077 3.756078 -0.964808 0
M  V30 16 C 1.386584 2.650054 -0.412842 0
M  V30 17 F 2.227888 1.660907 0.030959 0
M  V30 18 C -1.880458 1.113402 0.472290 0
M  V30 19 C -2.419077 -0.006470 1.029320 0
M  V30 20 O -3.642590 -0.248236 1.214353 0
M  V30 21 N -1.578723 -0.972388 1.434577 0
M  V30 22 C -2.043926 -2.191207 2.036017 0
M  V30 23 H -0.282695 -3.678007 -0.654905 0
M  V30 24 H -0.540655 -1.906834 -0.464421 0
M  V30 25 H 0.718622 -2.472250 -1.556033 0
M  V30 26 H 2.142926 -2.230449 0.188136 0
M  V30 27 H 0.589866 -4.147109 1.989014 0
M  V30 28 H 1.405076 -4.792096 0.465176 0
M  V30 29 H 3.205856 -2.956077 3.580546 0
M  V30 30 H 3.473578 -2.030603 2.095077 0
M  V30 31 H 1.704736 -1.078107 3.424803 0
M  V30 32 H 0.866191 -2.693154 3.587731 0
M  V30 33 H -1.825861 3.502380 -0.695585 0
M  V30 34 H -0.783153 5.451646 -1.671205 0
M  V30 35 H 3.054443 3.884417 -1.067008 0
M  V30 36 H -2.610278 1.848026 0.167729 0
M  V30 37 H -1.862822 -3.079212 1.393566 0
M  V30 38 H -3.154970 -2.131407 2.139944 0
M  V30 39 H -1.644373 -2.364735 3.055604 0
M  V30 END ATOM
M  V30 BEGIN BOND
M  V30 1 1 1 2
M  V30 2 1 2 3
M  V30 3 1 3 4
M  V30 4 1 4 5
M  V30 5 1 5 6
M  V30 6 1 6 7
M  V30 7 1 7 8
M  V30 8 2 8 9
M  V30 9 1 9 10
M  V30 10 1 10 11
M  V30 11 2 11 12
M  V30 12 1 12 13
M  V30 13 2 13 14
M  V30 14 1 14 15
M  V30 15 2 15 16
M  V30 16 1 16 17
M  V30 17 2 10 18
M  V30 18 1 18 19
M  V30 19 2 19 20
M  V30 20 1 19 21
M  V30 21 1 21 22
M  V30 22 1 7 2
M  V30 23 1 21 8
M  V30 24 1 16 11
M  V30 25 1 1 23
M  V30 26 1 1 24
M  V30 27 1 1 25
M  V30 28 1 2 26 CFG=3
M  V30 29 1 3 27
M  V30 30 1 3 28
M  V30 31 1 5 29
M  V30 32 1 5 30
M  V30 33 1 6 31
M  V30 34 1 6 32
M  V30 35 1 12 33
M  V30 36 1 13 34
M  V30 37 1 15 35
M  V30 38 1 18 36
M  V30 39 1 22 37
M  V30 40 1 22 38
M  V30 41 1 22 39
M  V30 END BOND
M  V30 END CTAB
M  END
>  <Dataset>  (936) 
ChEMBL_Kinases

>  <Ligand_Instance>  (936) 
nan

>  <PDB_ID>  (936) 
nan

>  <Standardized_SMILES>  (936) 
C[C@@H]1COCCN1c1nc(-c2ccncc2F)cc(=O)n1C

>  <Name>  (936) 
nan

>  <Pocket>  (936) 
nan

>  <ATP_Site>  (936) 
nan

>  <Peripheral>  (936) 
nan

>  <Num_H_Atoms_ProtBoundConf>  (936) 
nan

>  <Num_Resolved_Atoms>  (936) 
nan

>  <Num_Not_Resolved_Atoms>  (936) 
nan

$$$$
CHEMBL3394124
     RDKit          3D

  0  0  0  0  0  0  0  0  0  0999 V3000
M  V30 BEGIN CTAB
M  V30 COUNTS 58 62 0 0 0
M  V30 BEGIN ATOM
M  V30 1 O 3.439322 -5.787795 1.104128 0
M  V30 2 C 3.207681 -4.609474 1.539710 0
M  V30 3 O 3.066892 -4.591816 2.915805 0
M  V30 4 C 3.119666 -3.480433 0.622537 0
M  V30 5 C 3.291562 -3.754248 -0.659411 0
M  V30 6 S 3.188170 -2.376224 -1.821798 0
M  V30 7 C 2.255330 -1.034577 -1.049799 0
M  V30 8 N 2.847569 -0.074423 -0.320580 0
M  V30 9 C 1.885609 0.759948 0.109321 0
M  V30 10 C 2.112810 1.938257 0.931390 0
M  V30 11 C 1.986872 3.284031 0.662026 0
M  V30 12 C 2.260005 4.221787 1.632902 0
M  V30 13 C 2.665615 3.838637 2.895917 0
M  V30 14 F 2.901291 4.880889 3.757859 0
M  V30 15 C 2.800903 2.501786 3.195383 0
M  V30 16 C 2.524637 1.559596 2.214638 0
M  V30 17 C 0.712949 0.244337 -0.399948 0
M  V30 18 C -0.638414 0.805493 -0.185697 0
M  V30 19 C -1.093383 2.016301 -0.594202 0
M  V30 20 C -2.394021 2.343883 -0.281385 0
M  V30 21 N -3.228566 1.549602 0.393365 0
M  V30 22 C -2.845015 0.344435 0.824515 0
M  V30 23 N -3.767608 -0.440667 1.545247 0
M  V30 24 C -3.766326 -1.768453 2.039821 0
M  V30 25 C -3.143999 -2.782196 1.365873 0
M  V30 26 C -3.108342 -4.079383 1.843202 0
M  V30 27 C -3.705315 -4.410851 3.031811 0
M  V30 28 C -4.337314 -3.403265 3.723984 0
M  V30 29 C -4.360288 -2.118738 3.230425 0
M  V30 30 C -1.553172 0.010068 0.518766 0
M  V30 31 N 0.908339 -0.864594 -1.121141 0
M  V30 32 C 0.060693 -1.759758 -1.849373 0
M  V30 33 C -0.104211 -1.406974 -3.292697 0
M  V30 34 C -0.661129 -0.144331 -3.776415 0
M  V30 35 C 0.808770 -0.472109 -4.002105 0
M  V30 36 H 2.475891 -5.305048 3.331783 0
M  V30 37 H 2.921683 -2.506334 1.047838 0
M  V30 38 H 3.486665 -4.763212 -1.013540 0
M  V30 39 H 1.668823 3.453978 -0.353770 0
M  V30 40 H 2.110619 5.242968 1.259047 0
M  V30 41 H 3.119555 2.262504 4.199324 0
M  V30 42 H 2.675881 0.536792 2.596558 0
M  V30 43 H -0.422387 2.637156 -1.131381 0
M  V30 44 H -2.743578 3.327955 -0.620804 0
M  V30 45 H -4.696824 0.012085 1.805282 0
M  V30 46 H -2.644180 -2.693322 0.422844 0
M  V30 47 H -2.622149 -4.910708 1.333359 0
M  V30 48 H -3.687909 -5.412872 3.419457 0
M  V30 49 H -4.814106 -3.643111 4.660960 0
M  V30 50 H -4.869127 -1.394271 3.822857 0
M  V30 51 H -1.184281 -0.953654 0.856787 0
M  V30 52 H 0.488892 -2.801425 -1.781222 0
M  V30 53 H -0.960080 -1.829718 -1.411470 0
M  V30 54 H -0.364695 -2.311730 -3.921916 0
M  V30 55 H -0.843085 0.751705 -3.157649 0
M  V30 56 H -1.325703 -0.161615 -4.682777 0
M  V30 57 H 1.080382 -0.650784 -5.060445 0
M  V30 58 H 1.556742 0.136064 -3.477931 0
M  V30 END ATOM
M  V30 BEGIN BOND
M  V30 1 2 1 2
M  V30 2 1 2 3
M  V30 3 1 2 4
M  V30 4 2 4 5
M  V30 5 1 5 6
M  V30 6 1 6 7
M  V30 7 2 7 8
M  V30 8 1 8 9
M  V30 9 1 9 10
M  V30 10 2 10 11
M  V30 11 1 11 12
M  V30 12 2 12 13
M  V30 13 1 13 14
M  V30 14 1 13 15
M  V30 15 2 15 16
M  V30 16 2 9 17
M  V30 17 1 17 18
M  V30 18 2 18 19
M  V30 19 1 19 20
M  V30 20 2 20 21
M  V30 21 1 21 22
M  V30 22 1 22 23
M  V30 23 1 23 24
M  V30 24 2 24 25
M  V30 25 1 25 26
M  V30 26 2 26 27
M  V30 27 1 27 28
M  V30 28 2 28 29
M  V30 29 2 22 30
M  V30 30 1 17 31
M  V30 31 1 31 32
M  V30 32 1 32 33
M  V30 33 1 33 34
M  V30 34 1 34 35
M  V30 35 1 31 7
M  V30 36 1 35 33
M  V30 37 1 16 10
M  V30 38 1 30 18
M  V30 39 1 29 24
M  V30 40 1 3 36
M  V30 41 1 4 37
M  V30 42 1 5 38
M  V30 43 1 11 39
M  V30 44 1 12 40
M  V30 45 1 15 41
M  V30 46 1 16 42
M  V30 47 1 19 43
M  V30 48 1 20 44
M  V30 49 1 23 45
M  V30 50 1 25 46
M  V30 51 1 26 47
M  V30 52 1 27 48
M  V30 53 1 28 49
M  V30 54 1 29 50
M  V30 55 1 30 51
M  V30 56 1 32 52
M  V30 57 1 32 53
M  V30 58 1 33 54
M  V30 59 1 34 55
M  V30 60 1 34 56
M  V30 61 1 35 57
M  V30 62 1 35 58
M  V30 END BOND
M  V30 END CTAB
M  END
>  <Dataset>  (937) 
ChEMBL_Kinases

>  <Ligand_Instance>  (937) 
nan

>  <PDB_ID>  (937) 
nan

>  <Standardized_SMILES>  (937) 
O=C(O)/C=C/Sc1nc(-c2ccc(F)cc2)c(-c2ccnc(Nc3ccccc3)c2)n1CC1CC1

>  <Name>  (937) 
nan

>  <Pocket>  (937) 
nan

>  <ATP_Site>  (937) 
nan

>  <Peripheral>  (937) 
nan

>  <Num_H_Atoms_ProtBoundConf>  (937) 
nan

>  <Num_Resolved_Atoms>  (937) 
nan

>  <Num_Not_Resolved_Atoms>  (937) 
nan

$$$$
CHEMBL4100891
     RDKit          3D

  0  0  0  0  0  0  0  0  0  0999 V3000
M  V30 BEGIN CTAB
M  V30 COUNTS 37 39 0 0 0
M  V30 BEGIN ATOM
M  V30 1 N 0.897726 -4.563033 3.947167 0
M  V30 2 S 1.926251 -4.827784 2.569120 0
M  V30 3 O 3.194377 -5.448597 3.082246 0
M  V30 4 O 1.175849 -5.767000 1.643943 0
M  V30 5 C 2.232031 -3.347559 1.702393 0
M  V30 6 C 1.391917 -2.968347 0.685569 0
M  V30 7 C 1.670191 -1.790365 0.026068 0
M  V30 8 C 2.727180 -0.950390 0.299165 0
M  V30 9 N 3.009554 0.253154 -0.365179 0
M  V30 10 C 2.278446 0.888238 -1.432313 0
M  V30 11 C 0.928642 1.316038 -0.966009 0
M  V30 12 N -0.338140 0.878896 -0.886826 0
M  V30 13 C -1.153554 1.784746 -0.324018 0
M  V30 14 C -2.575500 1.491672 -0.149932 0
M  V30 15 C -3.032135 1.189199 1.119396 0
M  V30 16 C -4.372338 0.903520 1.338467 0
M  V30 17 N -5.221411 0.925864 0.293074 0
M  V30 18 C -4.802205 1.218514 -0.959400 0
M  V30 19 C -3.463034 1.513283 -1.232525 0
M  V30 20 N -0.351472 2.849973 -0.034238 0
M  V30 21 N 0.884228 2.568980 -0.416452 0
M  V30 22 C 3.529437 -1.391682 1.330463 0
M  V30 23 C 3.295057 -2.553493 2.015400 0
M  V30 24 H 1.313761 -3.820653 4.574916 0
M  V30 25 H -0.067251 -4.339293 3.671215 0
M  V30 26 H 0.545973 -3.576706 0.418503 0
M  V30 27 H 0.989504 -1.536455 -0.766636 0
M  V30 28 H 3.867872 0.784149 -0.059915 0
M  V30 29 H 2.051972 0.142514 -2.254907 0
M  V30 30 H 2.833252 1.688183 -1.916507 0
M  V30 31 H -2.390248 1.158289 1.991390 0
M  V30 32 H -4.792822 0.657797 2.316285 0
M  V30 33 H -5.454484 1.246727 -1.826944 0
M  V30 34 H -3.069098 1.751980 -2.198038 0
M  V30 35 H 1.575755 3.344179 -0.228345 0
M  V30 36 H 4.395218 -0.789118 1.619114 0
M  V30 37 H 3.967147 -2.841843 2.817260 0
M  V30 END ATOM
M  V30 BEGIN BOND
M  V30 1 1 1 2
M  V30 2 2 2 3
M  V30 3 2 2 4
M  V30 4 1 2 5
M  V30 5 2 5 6
M  V30 6 1 6 7
M  V30 7 2 7 8
M  V30 8 1 8 9
M  V30 9 1 9 10
M  V30 10 1 10 11
M  V30 11 2 11 12
M  V30 12 1 12 13
M  V30 13 1 13 14
M  V30 14 2 14 15
M  V30 15 1 15 16
M  V30 16 2 16 17
M  V30 17 1 17 18
M  V30 18 2 18 19
M  V30 19 2 13 20
M  V30 20 1 20 21
M  V30 21 1 8 22
M  V30 22 2 22 23
M  V30 23 1 23 5
M  V30 24 1 21 11
M  V30 25 1 19 14
M  V30 26 1 1 24
M  V30 27 1 1 25
M  V30 28 1 6 26
M  V30 29 1 7 27
M  V30 30 1 9 28
M  V30 31 1 10 29
M  V30 32 1 10 30
M  V30 33 1 15 31
M  V30 34 1 16 32
M  V30 35 1 18 33
M  V30 36 1 19 34
M  V30 37 1 21 35
M  V30 38 1 22 36
M  V30 39 1 23 37
M  V30 END BOND
M  V30 END CTAB
M  END
>  <Dataset>  (938) 
ChEMBL_Kinases

>  <Ligand_Instance>  (938) 
nan

>  <PDB_ID>  (938) 
nan

>  <Standardized_SMILES>  (938) 
NS(=O)(=O)c1ccc(NCc2nc(-c3ccncc3)n[nH]2)cc1

>  <Name>  (938) 
nan

>  <Pocket>  (938) 
nan

>  <ATP_Site>  (938) 
nan

>  <Peripheral>  (938) 
nan

>  <Num_H_Atoms_ProtBoundConf>  (938) 
nan

>  <Num_Resolved_Atoms>  (938) 
nan

>  <Num_Not_Resolved_Atoms>  (938) 
nan

$$$$
CHEMBL4100779
     RDKit          3D

  0  0  0  0  0  0  0  0  0  0999 V3000
M  V30 BEGIN CTAB
M  V30 COUNTS 52 55 0 0 0
M  V30 BEGIN ATOM
M  V30 1 O -0.216704 -4.206541 -0.284929 0
M  V30 2 C -1.000901 -4.029611 0.675404 0
M  V30 3 C -0.457676 -3.228091 1.787620 0
M  V30 4 C 0.937215 -2.791991 1.531408 0
M  V30 5 C 1.984884 -3.588007 1.947595 0
M  V30 6 C 3.274188 -3.166729 1.698148 0
M  V30 7 C 3.562919 -1.987821 1.052778 0
M  V30 8 C 2.523140 -1.157584 0.618059 0
M  V30 9 N 2.782037 0.060359 -0.061034 0
M  V30 10 C 1.902160 1.085814 -0.581966 0
M  V30 11 C 1.146291 1.810753 0.472810 0
M  V30 12 N 1.781301 2.881188 1.017679 0
M  V30 13 C 1.042275 3.482254 1.945028 0
M  V30 14 C 1.444558 4.667549 2.718953 0
M  V30 15 C 0.761767 5.867625 2.684557 0
M  V30 16 C 1.216494 6.926563 3.446247 0
M  V30 17 N 2.325514 6.809432 4.230553 0
M  V30 18 C 3.002741 5.648766 4.276482 0
M  V30 19 C 2.580612 4.580103 3.535388 0
M  V30 20 N -0.095826 2.765528 1.984557 0
M  V30 21 N -0.030990 1.780490 1.114701 0
M  V30 22 C 1.245195 -1.611600 0.884919 0
M  V30 23 N -2.309528 -4.567104 0.675508 0
M  V30 24 C -2.921323 -5.358328 -0.367773 0
M  V30 25 C -3.351375 -4.523393 -1.520505 0
M  V30 26 C -2.476467 -4.326953 -2.577952 0
M  V30 27 C -2.857203 -3.543547 -3.670432 0
M  V30 28 C -4.113823 -2.987124 -3.649988 0
M  V30 29 C -5.027506 -3.140626 -2.638005 0
M  V30 30 C -4.608281 -3.931693 -1.562838 0
M  V30 31 H -1.158720 -2.364906 1.921870 0
M  V30 32 H -0.522573 -3.790501 2.764929 0
M  V30 33 H 1.815306 -4.518282 2.455797 0
M  V30 34 H 4.154469 -3.746733 1.999128 0
M  V30 35 H 4.598271 -1.670735 0.864203 0
M  V30 36 H 3.812508 0.258368 -0.214908 0
M  V30 37 H 2.436582 1.753996 -1.256898 0
M  V30 38 H 1.122294 0.522060 -1.191612 0
M  V30 39 H -0.109079 5.953886 2.066171 0
M  V30 40 H 0.697855 7.881503 3.437252 0
M  V30 41 H 3.862328 5.621041 4.909331 0
M  V30 42 H 3.156958 3.664393 3.602629 0
M  V30 43 H -0.691236 1.022357 0.842092 0
M  V30 44 H 0.392402 -1.051839 0.588390 0
M  V30 45 H -2.878347 -4.351584 1.544566 0
M  V30 46 H -3.764855 -5.951072 0.012873 0
M  V30 47 H -2.156604 -6.108695 -0.701573 0
M  V30 48 H -1.487899 -4.740964 -2.642435 0
M  V30 49 H -2.211228 -3.368211 -4.504888 0
M  V30 50 H -4.435463 -2.371217 -4.491867 0
M  V30 51 H -6.007350 -2.679291 -2.671287 0
M  V30 52 H -5.306966 -4.079801 -0.733048 0
M  V30 END ATOM
M  V30 BEGIN BOND
M  V30 1 2 1 2
M  V30 2 1 2 3
M  V30 3 1 3 4
M  V30 4 2 4 5
M  V30 5 1 5 6
M  V30 6 2 6 7
M  V30 7 1 7 8
M  V30 8 1 8 9
M  V30 9 1 9 10
M  V30 10 1 10 11
M  V30 11 2 11 12
M  V30 12 1 12 13
M  V30 13 1 13 14
M  V30 14 2 14 15
M  V30 15 1 15 16
M  V30 16 2 16 17
M  V30 17 1 17 18
M  V30 18 2 18 19
M  V30 19 2 13 20
M  V30 20 1 20 21
M  V30 21 2 8 22
M  V30 22 1 2 23
M  V30 23 1 23 24
M  V30 24 1 24 25
M  V30 25 2 25 26
M  V30 26 1 26 27
M  V30 27 2 27 28
M  V30 28 1 28 29
M  V30 29 2 29 30
M  V30 30 1 22 4
M  V30 31 1 30 25
M  V30 32 1 21 11
M  V30 33 1 19 14
M  V30 34 1 3 31
M  V30 35 1 3 32
M  V30 36 1 5 33
M  V30 37 1 6 34
M  V30 38 1 7 35
M  V30 39 1 9 36
M  V30 40 1 10 37
M  V30 41 1 10 38
M  V30 42 1 15 39
M  V30 43 1 16 40
M  V30 44 1 18 41
M  V30 45 1 19 42
M  V30 46 1 21 43
M  V30 47 1 22 44
M  V30 48 1 23 45
M  V30 49 1 24 46
M  V30 50 1 24 47
M  V30 51 1 26 48
M  V30 52 1 27 49
M  V30 53 1 28 50
M  V30 54 1 29 51
M  V30 55 1 30 52
M  V30 END BOND
M  V30 END CTAB
M  END
>  <Dataset>  (939) 
ChEMBL_Kinases

>  <Ligand_Instance>  (939) 
nan

>  <PDB_ID>  (939) 
nan

>  <Standardized_SMILES>  (939) 
O=C(Cc1cccc(NCc2nc(-c3ccncc3)n[nH]2)c1)NCc1ccccc1

>  <Name>  (939) 
nan

>  <Pocket>  (939) 
nan

>  <ATP_Site>  (939) 
nan

>  <Peripheral>  (939) 
nan

>  <Num_H_Atoms_ProtBoundConf>  (939) 
nan

>  <Num_Resolved_Atoms>  (939) 
nan

>  <Num_Not_Resolved_Atoms>  (939) 
nan

$$$$
CHEMBL379376
     RDKit          3D

  0  0  0  0  0  0  0  0  0  0999 V3000
M  V30 BEGIN CTAB
M  V30 COUNTS 24 26 0 0 0
M  V30 BEGIN ATOM
M  V30 1 C 4.136994 -0.839737 2.596471 0
M  V30 2 C 3.955670 -2.101444 2.025174 0
M  V30 3 C 2.802738 -2.348012 1.279929 0
M  V30 4 C 1.828589 -1.360462 1.094294 0
M  V30 5 N 0.650579 -1.290467 0.452378 0
M  V30 6 C 0.160612 -0.056116 0.632908 0
M  V30 7 C -1.086457 0.518249 0.139103 0
M  V30 8 C -1.468869 1.822576 0.406603 0
M  V30 9 C -2.646953 2.372325 -0.057245 0
M  V30 10 N -3.486150 1.609519 -0.816328 0
M  V30 11 C -3.084852 0.331616 -1.063307 0
M  V30 12 C -1.922713 -0.271298 -0.628241 0
M  V30 13 N 1.045092 0.635209 1.391086 0
M  V30 14 C 2.105174 -0.153230 1.699375 0
M  V30 15 C 3.214521 0.175773 2.450517 0
M  V30 16 H 5.041373 -0.636606 3.184666 0
M  V30 17 H 4.676803 -2.897590 2.138419 0
M  V30 18 H 2.646258 -3.321921 0.829586 0
M  V30 19 H 0.207954 -2.061365 -0.084832 0
M  V30 20 H -0.800216 2.421380 1.008089 0
M  V30 21 H -2.915248 3.397654 0.171362 0
M  V30 22 H -3.798072 -0.216947 -1.671404 0
M  V30 23 H -1.727567 -1.294204 -0.897424 0
M  V30 24 H 3.316880 1.156844 2.872832 0
M  V30 END ATOM
M  V30 BEGIN BOND
M  V30 1 2 1 2
M  V30 2 1 2 3
M  V30 3 2 3 4
M  V30 4 1 4 5
M  V30 5 1 5 6
M  V30 6 1 6 7
M  V30 7 2 7 8
M  V30 8 1 8 9
M  V30 9 2 9 10
M  V30 10 1 10 11
M  V30 11 2 11 12
M  V30 12 2 6 13
M  V30 13 1 13 14
M  V30 14 2 14 15
M  V30 15 1 15 1
M  V30 16 1 14 4
M  V30 17 1 12 7
M  V30 18 1 1 16
M  V30 19 1 2 17
M  V30 20 1 3 18
M  V30 21 1 5 19
M  V30 22 1 8 20
M  V30 23 1 9 21
M  V30 24 1 11 22
M  V30 25 1 12 23
M  V30 26 1 15 24
M  V30 END BOND
M  V30 END CTAB
M  END
>  <Dataset>  (940) 
ChEMBL_Kinases

>  <Ligand_Instance>  (940) 
nan

>  <PDB_ID>  (940) 
nan

>  <Standardized_SMILES>  (940) 
c1ccc2[nH]c(-c3ccncc3)nc2c1

>  <Name>  (940) 
nan

>  <Pocket>  (940) 
nan

>  <ATP_Site>  (940) 
nan

>  <Peripheral>  (940) 
nan

>  <Num_H_Atoms_ProtBoundConf>  (940) 
nan

>  <Num_Resolved_Atoms>  (940) 
nan

>  <Num_Not_Resolved_Atoms>  (940) 
nan

$$$$
CHEMBL379392
     RDKit          3D

  0  0  0  0  0  0  0  0  0  0999 V3000
M  V30 BEGIN CTAB
M  V30 COUNTS 38 42 0 0 0
M  V30 BEGIN ATOM
M  V30 1 O 2.471513 2.128656 2.007347 0
M  V30 2 C 2.113172 0.928248 2.116944 0
M  V30 3 N 2.564519 -0.056000 3.051873 0
M  V30 4 C 1.877252 -1.266653 2.792848 0
M  V30 5 O 2.154525 -2.228364 3.520681 0
M  V30 6 C 0.968791 -1.099055 1.690547 0
M  V30 7 C 1.131772 0.210082 1.312659 0
M  V30 8 C 0.393547 0.726294 0.253570 0
M  V30 9 C 0.529162 2.110560 -0.187666 0
M  V30 10 C 1.426324 2.554785 -1.154488 0
M  V30 11 Cl 2.467313 1.350105 -1.890957 0
M  V30 12 C 1.451838 3.895873 -1.479589 0
M  V30 13 C 0.584321 4.755864 -0.833604 0
M  V30 14 O 0.592296 6.128076 -1.148725 0
M  V30 15 C -0.321693 4.360692 0.130787 0
M  V30 16 C -0.333464 2.997397 0.447582 0
M  V30 17 Cl -1.486355 2.495887 1.674466 0
M  V30 18 C -0.503302 -0.078208 -0.417717 0
M  V30 19 C -0.640080 -1.368333 -0.018289 0
M  V30 20 N -1.423552 -2.355704 -0.482412 0
M  V30 21 C -1.187066 -3.472850 0.265963 0
M  V30 22 C -1.780872 -4.709814 0.124207 0
M  V30 23 C -1.436234 -5.746379 0.960592 0
M  V30 24 C -0.471649 -5.470039 1.935738 0
M  V30 25 O -0.155447 -6.545486 2.756585 0
M  V30 26 C 0.081053 -4.234348 2.031422 0
M  V30 27 C -0.238759 -3.191688 1.220570 0
M  V30 28 C 0.084085 -1.890621 1.027466 0
M  V30 29 H 3.295870 0.202319 3.770236 0
M  V30 30 H 2.151631 4.227646 -2.230416 0
M  V30 31 H -0.252112 6.635433 -1.376875 0
M  V30 32 H -0.989943 5.050003 0.622369 0
M  V30 33 H -1.085095 0.322892 -1.249919 0
M  V30 34 H -2.091667 -2.249797 -1.285635 0
M  V30 35 H -2.522167 -4.879954 -0.643347 0
M  V30 36 H -1.892105 -6.721297 0.862627 0
M  V30 37 H -0.843095 -7.192929 3.107515 0
M  V30 38 H 0.790392 -4.144425 2.797223 0
M  V30 END ATOM
M  V30 BEGIN BOND
M  V30 1 2 1 2
M  V30 2 1 2 3
M  V30 3 1 3 4
M  V30 4 2 4 5
M  V30 5 1 4 6
M  V30 6 2 6 7
M  V30 7 1 7 8
M  V30 8 1 8 9
M  V30 9 2 9 10
M  V30 10 1 10 11
M  V30 11 1 10 12
M  V30 12 2 12 13
M  V30 13 1 13 14
M  V30 14 1 13 15
M  V30 15 2 15 16
M  V30 16 1 16 17
M  V30 17 2 8 18
M  V30 18 1 18 19
M  V30 19 1 19 20
M  V30 20 1 20 21
M  V30 21 2 21 22
M  V30 22 1 22 23
M  V30 23 2 23 24
M  V30 24 1 24 25
M  V30 25 1 24 26
M  V30 26 2 26 27
M  V30 27 1 27 28
M  V30 28 1 7 2
M  V30 29 1 16 9
M  V30 30 2 28 19
M  V30 31 1 28 6
M  V30 32 1 27 21
M  V30 33 1 3 29
M  V30 34 1 12 30
M  V30 35 1 14 31
M  V30 36 1 15 32
M  V30 37 1 18 33
M  V30 38 1 20 34
M  V30 39 1 22 35
M  V30 40 1 23 36
M  V30 41 1 25 37
M  V30 42 1 26 38
M  V30 END BOND
M  V30 END CTAB
M  END
>  <Dataset>  (941) 
ChEMBL_Kinases

>  <Ligand_Instance>  (941) 
nan

>  <PDB_ID>  (941) 
nan

>  <Standardized_SMILES>  (941) 
O=C1NC(=O)c2c1c(-c1c(Cl)cc(O)cc1Cl)cc1[nH]c3ccc(O)cc3c21

>  <Name>  (941) 
nan

>  <Pocket>  (941) 
nan

>  <ATP_Site>  (941) 
nan

>  <Peripheral>  (941) 
nan

>  <Num_H_Atoms_ProtBoundConf>  (941) 
nan

>  <Num_Resolved_Atoms>  (941) 
nan

>  <Num_Not_Resolved_Atoms>  (941) 
nan

$$$$
CHEMBL4100707
     RDKit          3D

  0  0  0  0  0  0  0  0  0  0999 V3000
M  V30 BEGIN CTAB
M  V30 COUNTS 31 33 0 0 0
M  V30 BEGIN ATOM
M  V30 1 Cl -2.605554 -1.591013 4.822829 0
M  V30 2 C -1.535032 -2.269833 3.614397 0
M  V30 3 C -0.388393 -2.951067 3.974426 0
M  V30 4 C 0.474834 -3.496962 3.063243 0
M  V30 5 C 0.195349 -3.366530 1.698964 0
M  V30 6 S 1.213625 -4.015866 0.383672 0
M  V30 7 C 2.462304 -2.802815 -0.137633 0
M  V30 8 C 1.796344 -1.613445 -0.774299 0
M  V30 9 N 1.358698 -0.486638 -0.176586 0
M  V30 10 C 0.820246 0.339820 -1.097082 0
M  V30 11 C 0.304491 1.601698 -0.571309 0
M  V30 12 C -1.063622 1.782204 -0.787138 0
M  V30 13 C -1.682807 2.930624 -0.340495 0
M  V30 14 N -0.978046 3.866167 0.295301 0
M  V30 15 C 0.322581 3.725011 0.515825 0
M  V30 16 C 1.007256 2.588110 0.089845 0
M  V30 17 N 0.928160 -0.288355 -2.281642 0
M  V30 18 N 1.522315 -1.478961 -2.089201 0
M  V30 19 C -0.951214 -2.685611 1.323889 0
M  V30 20 C -1.794251 -2.150916 2.266467 0
M  V30 21 H -0.146019 -3.067711 5.029401 0
M  V30 22 H 1.384266 -4.038641 3.280211 0
M  V30 23 H 3.190416 -3.225051 -0.825403 0
M  V30 24 H 2.937475 -2.411755 0.787440 0
M  V30 25 H -1.681902 1.038957 -1.304835 0
M  V30 26 H -2.745016 3.047664 -0.519841 0
M  V30 27 H 0.989050 4.424527 1.022990 0
M  V30 28 H 2.056433 2.361254 0.210071 0
M  V30 29 H 1.711066 -2.143560 -2.877362 0
M  V30 30 H -1.257252 -2.528720 0.311354 0
M  V30 31 H -2.691167 -1.616900 2.007963 0
M  V30 END ATOM
M  V30 BEGIN BOND
M  V30 1 1 1 2
M  V30 2 2 2 3
M  V30 3 1 3 4
M  V30 4 2 4 5
M  V30 5 1 5 6
M  V30 6 1 6 7
M  V30 7 1 7 8
M  V30 8 2 8 9
M  V30 9 1 9 10
M  V30 10 1 10 11
M  V30 11 2 11 12
M  V30 12 1 12 13
M  V30 13 2 13 14
M  V30 14 1 14 15
M  V30 15 2 15 16
M  V30 16 2 10 17
M  V30 17 1 17 18
M  V30 18 1 5 19
M  V30 19 2 19 20
M  V30 20 1 20 2
M  V30 21 1 18 8
M  V30 22 1 16 11
M  V30 23 1 3 21
M  V30 24 1 4 22
M  V30 25 1 7 23
M  V30 26 1 7 24
M  V30 27 1 12 25
M  V30 28 1 13 26
M  V30 29 1 15 27
M  V30 30 1 16 28
M  V30 31 1 18 29
M  V30 32 1 19 30
M  V30 33 1 20 31
M  V30 END BOND
M  V30 END CTAB
M  END
>  <Dataset>  (942) 
ChEMBL_Kinases

>  <Ligand_Instance>  (942) 
nan

>  <PDB_ID>  (942) 
nan

>  <Standardized_SMILES>  (942) 
Clc1ccc(SCc2nc(-c3ccncc3)n[nH]2)cc1

>  <Name>  (942) 
nan

>  <Pocket>  (942) 
nan

>  <ATP_Site>  (942) 
nan

>  <Peripheral>  (942) 
nan

>  <Num_H_Atoms_ProtBoundConf>  (942) 
nan

>  <Num_Resolved_Atoms>  (942) 
nan

>  <Num_Not_Resolved_Atoms>  (942) 
nan

$$$$
CHEMBL4100576
     RDKit          3D

  0  0  0  0  0  0  0  0  0  0999 V3000
M  V30 BEGIN CTAB
M  V30 COUNTS 40 42 0 0 0
M  V30 BEGIN ATOM
M  V30 1 O 0.633175 -1.691599 1.928995 0
M  V30 2 C -0.034227 -2.362313 1.082109 0
M  V30 3 C 0.145668 -3.610675 0.304320 0
M  V30 4 N 1.421717 -4.238674 0.575671 0
M  V30 5 C 2.675928 -3.619473 0.315470 0
M  V30 6 C 3.898672 -4.241197 0.591110 0
M  V30 7 C 5.106587 -3.650798 0.340191 0
M  V30 8 C 5.171313 -2.390675 -0.206787 0
M  V30 9 C 3.995371 -1.733396 -0.497725 0
M  V30 10 C 2.804732 -2.373369 -0.225297 0
M  V30 11 N -1.305085 -1.817807 0.751694 0
M  V30 12 N -1.916315 -0.653277 1.228373 0
M  V30 13 C -1.488616 0.539722 0.991147 0
M  V30 14 C -0.304223 0.862100 0.191359 0
M  V30 15 C -0.404693 2.204692 -0.497024 0
M  V30 16 C -0.771886 3.310042 0.454433 0
M  V30 17 C -1.928664 2.940933 1.324494 0
M  V30 18 C -2.709988 3.916817 1.913146 0
M  V30 19 N -3.772709 3.641928 2.712064 0
M  V30 20 C -4.131852 2.361965 2.980764 0
M  V30 21 C -3.360441 1.358720 2.399578 0
M  V30 22 C -2.279701 1.620495 1.587115 0
M  V30 23 H 0.082445 -3.452385 -0.781404 0
M  V30 24 H -0.648752 -4.334119 0.579886 0
M  V30 25 H 1.477049 -5.216364 0.992518 0
M  V30 26 H 3.891911 -5.237355 1.023651 0
M  V30 27 H 6.037441 -4.179451 0.574024 0
M  V30 28 H 6.152294 -1.975999 -0.382253 0
M  V30 29 H 4.056942 -0.741809 -0.927963 0
M  V30 30 H 1.930807 -1.794932 -0.482566 0
M  V30 31 H -2.094401 -2.082446 0.121965 0
M  V30 32 H 0.656413 0.804504 0.769754 0
M  V30 33 H -0.213432 0.102586 -0.612647 0
M  V30 34 H -1.064084 2.191056 -1.373894 0
M  V30 35 H 0.620844 2.450990 -0.863048 0
M  V30 36 H 0.085745 3.681759 1.035057 0
M  V30 37 H -1.117463 4.161373 -0.177230 0
M  V30 38 H -2.462252 4.970660 1.728337 0
M  V30 39 H -4.968775 2.101749 3.609796 0
M  V30 40 H -3.664014 0.327578 2.626644 0
M  V30 END ATOM
M  V30 BEGIN BOND
M  V30 1 2 1 2
M  V30 2 1 2 3
M  V30 3 1 3 4
M  V30 4 1 4 5
M  V30 5 2 5 6
M  V30 6 1 6 7
M  V30 7 2 7 8
M  V30 8 1 8 9
M  V30 9 2 9 10
M  V30 10 1 2 11
M  V30 11 1 11 12
M  V30 12 2 12 13
M  V30 13 1 13 14
M  V30 14 1 14 15
M  V30 15 1 15 16
M  V30 16 1 16 17
M  V30 17 2 17 18
M  V30 18 1 18 19
M  V30 19 2 19 20
M  V30 20 1 20 21
M  V30 21 2 21 22
M  V30 22 1 10 5
M  V30 23 1 22 13
M  V30 24 1 22 17
M  V30 25 1 3 23
M  V30 26 1 3 24
M  V30 27 1 4 25
M  V30 28 1 6 26
M  V30 29 1 7 27
M  V30 30 1 8 28
M  V30 31 1 9 29
M  V30 32 1 10 30
M  V30 33 1 11 31
M  V30 34 1 14 32
M  V30 35 1 14 33
M  V30 36 1 15 34
M  V30 37 1 15 35
M  V30 38 1 16 36
M  V30 39 1 16 37
M  V30 40 1 18 38
M  V30 41 1 20 39
M  V30 42 1 21 40
M  V30 END BOND
M  V30 END CTAB
M  END
>  <Dataset>  (943) 
ChEMBL_Kinases

>  <Ligand_Instance>  (943) 
nan

>  <PDB_ID>  (943) 
nan

>  <Standardized_SMILES>  (943) 
O=C(CNc1ccccc1)N/N=C1\CCCc2cnccc21

>  <Name>  (943) 
nan

>  <Pocket>  (943) 
nan

>  <ATP_Site>  (943) 
nan

>  <Peripheral>  (943) 
nan

>  <Num_H_Atoms_ProtBoundConf>  (943) 
nan

>  <Num_Resolved_Atoms>  (943) 
nan

>  <Num_Not_Resolved_Atoms>  (943) 
nan

$$$$
CHEMBL4100554
     RDKit          3D

  0  0  0  0  0  0  0  0  0  0999 V3000
M  V30 BEGIN CTAB
M  V30 COUNTS 38 41 0 0 0
M  V30 BEGIN ATOM
M  V30 1 O 0.317605 -4.979294 5.484518 0
M  V30 2 C 0.087569 -4.549065 4.322337 0
M  V30 3 N -0.923575 -4.874104 3.390104 0
M  V30 4 C -0.773870 -4.108211 2.176760 0
M  V30 5 C 0.436485 -3.274022 2.452881 0
M  V30 6 C 1.030339 -2.339256 1.598345 0
M  V30 7 C 2.157640 -1.652694 2.026348 0
M  V30 8 N 2.803474 -0.684015 1.187210 0
M  V30 9 C 2.177092 -0.516834 -0.080930 0
M  V30 10 C 1.180584 0.452251 -0.160573 0
M  V30 11 C 0.519836 0.682380 -1.349241 0
M  V30 12 N -0.489213 1.681612 -1.380496 0
M  V30 13 C -0.390106 3.066341 -1.670918 0
M  V30 14 O 0.725140 3.596686 -1.959902 0
M  V30 15 C -1.564330 3.939564 -1.649987 0
M  V30 16 C -2.965470 3.412186 -1.712777 0
M  V30 17 C -2.451778 3.825044 -0.381861 0
M  V30 18 N 0.866282 -0.061392 -2.442065 0
M  V30 19 C 1.840664 -1.008143 -2.361938 0
M  V30 20 N 2.476224 -1.219546 -1.191175 0
M  V30 21 C 2.621315 -1.937343 3.271051 0
M  V30 22 C 2.075443 -2.851486 4.160020 0
M  V30 23 C 0.942730 -3.532818 3.713846 0
M  V30 24 H -1.632765 -5.590707 3.656097 0
M  V30 25 H -1.675336 -3.502794 2.008958 0
M  V30 26 H -0.605726 -4.765006 1.287244 0
M  V30 27 H 0.607233 -2.157035 0.608671 0
M  V30 28 H 3.631848 -0.202497 1.542434 0
M  V30 29 H 0.916617 1.029845 0.702189 0
M  V30 30 H -1.417281 1.253610 -1.142641 0
M  V30 31 H -1.347000 5.001313 -1.896081 0
M  V30 32 H -3.009451 2.305521 -1.867556 0
M  V30 33 H -3.745446 4.004144 -2.227284 0
M  V30 34 H -2.880713 4.735206 0.042888 0
M  V30 35 H -2.154133 3.067445 0.367460 0
M  V30 36 H 2.107422 -1.593803 -3.239203 0
M  V30 37 H 3.498230 -1.431517 3.657219 0
M  V30 38 H 2.481141 -3.042701 5.140229 0
M  V30 END ATOM
M  V30 BEGIN BOND
M  V30 1 2 1 2
M  V30 2 1 2 3
M  V30 3 1 3 4
M  V30 4 1 4 5
M  V30 5 2 5 6
M  V30 6 1 6 7
M  V30 7 1 7 8
M  V30 8 1 8 9
M  V30 9 2 9 10
M  V30 10 1 10 11
M  V30 11 1 11 12
M  V30 12 1 12 13
M  V30 13 2 13 14
M  V30 14 1 13 15
M  V30 15 1 15 16
M  V30 16 1 16 17
M  V30 17 2 11 18
M  V30 18 1 18 19
M  V30 19 2 19 20
M  V30 20 2 7 21
M  V30 21 1 21 22
M  V30 22 2 22 23
M  V30 23 1 23 2
M  V30 24 1 23 5
M  V30 25 1 20 9
M  V30 26 1 17 15
M  V30 27 1 3 24
M  V30 28 1 4 25
M  V30 29 1 4 26
M  V30 30 1 6 27
M  V30 31 1 8 28
M  V30 32 1 10 29
M  V30 33 1 12 30
M  V30 34 1 15 31
M  V30 35 1 16 32
M  V30 36 1 16 33
M  V30 37 1 17 34
M  V30 38 1 17 35
M  V30 39 1 19 36
M  V30 40 1 21 37
M  V30 41 1 22 38
M  V30 END BOND
M  V30 END CTAB
M  END
>  <Dataset>  (944) 
ChEMBL_Kinases

>  <Ligand_Instance>  (944) 
nan

>  <PDB_ID>  (944) 
nan

>  <Standardized_SMILES>  (944) 
O=C1NCc2cc(Nc3cc(NC(=O)C4CC4)ncn3)ccc21

>  <Name>  (944) 
nan

>  <Pocket>  (944) 
nan

>  <ATP_Site>  (944) 
nan

>  <Peripheral>  (944) 
nan

>  <Num_H_Atoms_ProtBoundConf>  (944) 
nan

>  <Num_Resolved_Atoms>  (944) 
nan

>  <Num_Not_Resolved_Atoms>  (944) 
nan

$$$$
CHEMBL3401979
     RDKit          3D

  0  0  0  0  0  0  0  0  0  0999 V3000
M  V30 BEGIN CTAB
M  V30 COUNTS 52 57 0 0 0
M  V30 BEGIN ATOM
M  V30 1 O -2.130271 2.355343 5.711182 0
M  V30 2 C -1.087051 2.055433 4.875220 0
M  V30 3 C -0.945554 2.037164 3.506511 0
M  V30 4 C 0.344137 1.653365 3.205705 0
M  V30 5 C 0.866628 1.519773 1.845358 0 CFG=1
M  V30 6 C 1.945770 2.575944 1.660924 0
M  V30 7 C 3.221169 2.020842 2.243735 0
M  V30 8 C 3.726679 0.955344 1.288837 0
M  V30 9 C 2.535613 0.382099 0.531123 0
M  V30 10 C 2.108428 1.461837 -0.467274 0
M  V30 11 C 2.197826 2.834868 0.188411 0
M  V30 12 C 1.410113 0.111634 1.553100 0 CFG=2
M  V30 13 N 0.412954 -0.587151 0.845087 0
M  V30 14 C 0.370879 -1.954499 0.500988 0
M  V30 15 N -0.594389 -2.566637 -0.223324 0
M  V30 16 C -0.622105 -3.868324 -0.523103 0
M  V30 17 C -1.739606 -4.373071 -1.317487 0
M  V30 18 C -1.928957 -5.678947 -1.719820 0
M  V30 19 N -3.078922 -5.745071 -2.438241 0
M  V30 20 C -3.642108 -4.515804 -2.513292 0
M  V30 21 N -4.789306 -4.094771 -3.123190 0
M  V30 22 C -5.128589 -2.785935 -3.043836 0
M  V30 23 C -4.343210 -1.879534 -2.364299 0
M  V30 24 F -4.632038 -0.549384 -2.249232 0
M  V30 25 C -3.167071 -2.307094 -1.738112 0
M  V30 26 C -2.810454 -3.657815 -1.816035 0
M  V30 27 N 0.338900 -4.716769 -0.118629 0
M  V30 28 C 1.355429 -4.180720 0.620936 0
M  V30 29 C 1.343174 -2.830509 0.907057 0
M  V30 30 F 2.397436 -2.471550 1.650792 0
M  V30 31 N 0.930214 1.454908 4.413734 0
M  V30 32 O 0.064766 1.699635 5.336627 0
M  V30 33 H -2.627246 1.586821 6.186319 0
M  V30 34 H -1.788420 2.303106 2.853374 0
M  V30 35 H 0.049230 1.779736 1.142320 0
M  V30 36 H 1.603074 3.494651 2.126661 0
M  V30 37 H 3.000258 1.616162 3.251263 0
M  V30 38 H 3.924815 2.884892 2.335329 0
M  V30 39 H 4.120419 0.120140 1.920722 0
M  V30 40 H 4.474353 1.325934 0.584416 0
M  V30 41 H 2.789367 -0.496304 -0.049264 0
M  V30 42 H 2.905502 1.455777 -1.238386 0
M  V30 43 H 1.144227 1.264353 -0.932776 0
M  V30 44 H 1.487619 3.559557 -0.243897 0
M  V30 45 H 3.208053 3.285140 0.116243 0
M  V30 46 H 1.882111 -0.342631 2.409711 0
M  V30 47 H -0.459327 -0.087432 0.486069 0
M  V30 48 H -1.304042 -6.540358 -1.526121 0
M  V30 49 H -3.522686 -6.596523 -2.896517 0
M  V30 50 H -6.019025 -2.359188 -3.495464 0
M  V30 51 H -2.540206 -1.611985 -1.201686 0
M  V30 52 H 2.105781 -4.892993 0.925917 0
M  V30 END ATOM
M  V30 BEGIN BOND
M  V30 1 1 1 2
M  V30 2 2 2 3
M  V30 3 1 3 4
M  V30 4 1 4 5
M  V30 5 1 5 6
M  V30 6 1 6 7
M  V30 7 1 7 8
M  V30 8 1 8 9
M  V30 9 1 9 10
M  V30 10 1 10 11
M  V30 11 1 9 12
M  V30 12 1 12 13
M  V30 13 1 13 14
M  V30 14 2 14 15
M  V30 15 1 15 16
M  V30 16 1 16 17
M  V30 17 2 17 18
M  V30 18 1 18 19
M  V30 19 1 19 20
M  V30 20 2 20 21
M  V30 21 1 21 22
M  V30 22 2 22 23
M  V30 23 1 23 24
M  V30 24 1 23 25
M  V30 25 2 25 26
M  V30 26 2 16 27
M  V30 27 1 27 28
M  V30 28 2 28 29
M  V30 29 1 29 30
M  V30 30 2 4 31
M  V30 31 1 31 32
M  V30 32 1 32 2
M  V30 33 1 12 5
M  V30 34 1 29 14
M  V30 35 1 11 6
M  V30 36 1 26 17
M  V30 37 1 26 20
M  V30 38 1 1 33
M  V30 39 1 3 34
M  V30 40 1 5 35 CFG=3
M  V30 41 1 6 36
M  V30 42 1 7 37
M  V30 43 1 7 38
M  V30 44 1 8 39
M  V30 45 1 8 40
M  V30 46 1 9 41
M  V30 47 1 10 42
M  V30 48 1 10 43
M  V30 49 1 11 44
M  V30 50 1 11 45
M  V30 51 1 12 46 CFG=1
M  V30 52 1 13 47
M  V30 53 1 18 48
M  V30 54 1 19 49
M  V30 55 1 22 50
M  V30 56 1 25 51
M  V30 57 1 28 52
M  V30 END BOND
M  V30 END CTAB
M  END
>  <Dataset>  (945) 
ChEMBL_Kinases

>  <Ligand_Instance>  (945) 
nan

>  <PDB_ID>  (945) 
nan

>  <Standardized_SMILES>  (945) 
Oc1cc([C@H]2C3CCC(CC3)[C@@H]2Nc2nc(-c3c[nH]c4ncc(F)cc34)ncc2F)no1

>  <Name>  (945) 
nan

>  <Pocket>  (945) 
nan

>  <ATP_Site>  (945) 
nan

>  <Peripheral>  (945) 
nan

>  <Num_H_Atoms_ProtBoundConf>  (945) 
nan

>  <Num_Resolved_Atoms>  (945) 
nan

>  <Num_Not_Resolved_Atoms>  (945) 
nan

$$$$
CHEMBL3401983
     RDKit          3D

  0  0  0  0  0  0  0  0  0  0999 V3000
M  V30 BEGIN CTAB
M  V30 COUNTS 50 54 0 0 0
M  V30 BEGIN ATOM
M  V30 1 N 2.995194 0.288529 -2.875387 0
M  V30 2 S 3.939938 -0.432629 -1.583416 0
M  V30 3 O 4.852769 0.667382 -1.085768 0
M  V30 4 O 4.720997 -1.545097 -2.189752 0
M  V30 5 C 2.872867 -0.955539 -0.294976 0 CFG=1
M  V30 6 C 3.592619 -1.802165 0.719259 0
M  V30 7 C 2.654223 -2.226015 1.840462 0
M  V30 8 C 1.923380 -1.037983 2.411978 0
M  V30 9 C 2.496545 0.216815 1.802599 0
M  V30 10 C 3.990913 0.227964 1.963013 0
M  V30 11 C 4.671938 -0.985553 1.378963 0
M  V30 12 C 2.097147 0.195558 0.313837 0 CFG=2
M  V30 13 N 0.685655 -0.149972 0.315437 0
M  V30 14 C -0.518668 0.598621 0.543431 0
M  V30 15 N -1.743908 0.044879 0.559242 0
M  V30 16 C -2.799629 0.811111 0.753928 0
M  V30 17 C -4.083896 0.124025 0.755047 0
M  V30 18 C -5.317823 0.711926 0.938126 0
M  V30 19 N -6.286330 -0.219603 0.878665 0
M  V30 20 C -5.750998 -1.433981 0.659325 0
M  V30 21 N -6.267772 -2.675185 0.519055 0
M  V30 22 C -5.450261 -3.721501 0.301954 0
M  V30 23 C -4.077082 -3.572376 0.215381 0
M  V30 24 F -3.329970 -4.657787 -0.001879 0
M  V30 25 C -3.568494 -2.297792 0.361166 0
M  V30 26 C -4.394943 -1.207472 0.585390 0
M  V30 27 N -2.763780 2.142143 0.944902 0
M  V30 28 C -1.567960 2.783029 0.943695 0
M  V30 29 C -0.447321 1.970682 0.736833 0
M  V30 30 F 0.699236 2.682970 0.727481 0
M  V30 31 H 2.044846 -0.152274 -2.831432 0
M  V30 32 H 3.410412 0.064075 -3.803362 0
M  V30 33 H 2.144462 -1.666831 -0.774811 0
M  V30 34 H 3.982178 -2.693594 0.202641 0
M  V30 35 H 3.310242 -2.621860 2.670350 0
M  V30 36 H 1.978656 -3.040840 1.549197 0
M  V30 37 H 0.836068 -1.064118 2.105996 0
M  V30 38 H 1.993306 -1.003193 3.524034 0
M  V30 39 H 2.098286 1.123065 2.281054 0
M  V30 40 H 4.189448 0.208891 3.075747 0
M  V30 41 H 4.461521 1.146690 1.582619 0
M  V30 42 H 5.172395 -1.592180 2.182333 0
M  V30 43 H 5.423611 -0.661183 0.649197 0
M  V30 44 H 2.329643 1.140781 -0.182372 0
M  V30 45 H 0.467210 -1.163087 0.107803 0
M  V30 46 H -5.462970 1.788620 1.106611 0
M  V30 47 H -7.311713 0.006396 0.992509 0
M  V30 48 H -5.947642 -4.672758 0.202454 0
M  V30 49 H -2.516193 -2.183724 0.294790 0
M  V30 50 H -1.526832 3.850704 1.095917 0
M  V30 END ATOM
M  V30 BEGIN BOND
M  V30 1 1 1 2
M  V30 2 2 2 3
M  V30 3 2 2 4
M  V30 4 1 2 5
M  V30 5 1 5 6
M  V30 6 1 6 7
M  V30 7 1 7 8
M  V30 8 1 8 9
M  V30 9 1 9 10
M  V30 10 1 10 11
M  V30 11 1 9 12
M  V30 12 1 12 13
M  V30 13 1 13 14
M  V30 14 2 14 15
M  V30 15 1 15 16
M  V30 16 1 16 17
M  V30 17 2 17 18
M  V30 18 1 18 19
M  V30 19 1 19 20
M  V30 20 2 20 21
M  V30 21 1 21 22
M  V30 22 2 22 23
M  V30 23 1 23 24
M  V30 24 1 23 25
M  V30 25 2 25 26
M  V30 26 2 16 27
M  V30 27 1 27 28
M  V30 28 2 28 29
M  V30 29 1 29 30
M  V30 30 1 12 5
M  V30 31 1 29 14
M  V30 32 1 11 6
M  V30 33 1 26 17
M  V30 34 1 26 20
M  V30 35 1 1 31
M  V30 36 1 1 32
M  V30 37 1 5 33 CFG=3
M  V30 38 1 6 34
M  V30 39 1 7 35
M  V30 40 1 7 36
M  V30 41 1 8 37
M  V30 42 1 8 38
M  V30 43 1 9 39
M  V30 44 1 10 40
M  V30 45 1 10 41
M  V30 46 1 11 42
M  V30 47 1 11 43
M  V30 48 1 12 44 CFG=3
M  V30 49 1 13 45
M  V30 50 1 18 46
M  V30 51 1 19 47
M  V30 52 1 22 48
M  V30 53 1 25 49
M  V30 54 1 28 50
M  V30 END BOND
M  V30 END CTAB
M  END
>  <Dataset>  (946) 
ChEMBL_Kinases

>  <Ligand_Instance>  (946) 
nan

>  <PDB_ID>  (946) 
nan

>  <Standardized_SMILES>  (946) 
NS(=O)(=O)[C@H]1C2CCC(CC2)[C@@H]1Nc1nc(-c2c[nH]c3ncc(F)cc23)ncc1F

>  <Name>  (946) 
nan

>  <Pocket>  (946) 
nan

>  <ATP_Site>  (946) 
nan

>  <Peripheral>  (946) 
nan

>  <Num_H_Atoms_ProtBoundConf>  (946) 
nan

>  <Num_Resolved_Atoms>  (946) 
nan

>  <Num_Not_Resolved_Atoms>  (946) 
nan

$$$$
CHEMBL379347
     RDKit          3D

  0  0  0  0  0  0  0  0  0  0999 V3000
M  V30 BEGIN CTAB
M  V30 COUNTS 42 46 0 0 0
M  V30 BEGIN ATOM
M  V30 1 C 2.125748 -7.416939 2.163350 0
M  V30 2 S 3.270103 -6.342030 1.298478 0 CHG=1 VAL=3
M  V30 3 O 4.578154 -6.102429 2.323333 0 CHG=-1 VAL=1
M  V30 4 C 2.457931 -4.809617 1.068310 0
M  V30 5 C 2.552785 -3.815188 2.003130 0
M  V30 6 C 1.881985 -2.648038 1.737274 0
M  V30 7 C 1.112615 -2.392623 0.594116 0
M  V30 8 C 0.492981 -1.079257 0.502707 0
M  V30 9 C 1.428932 -0.055121 0.700185 0
M  V30 10 C 1.030131 1.265485 0.629661 0
M  V30 11 N 1.720690 2.428802 0.778207 0
M  V30 12 C 0.816392 3.409076 0.602595 0
M  V30 13 C 1.084040 4.774443 0.666972 0
M  V30 14 C 0.078637 5.693536 0.470318 0
M  V30 15 C -1.202316 5.210734 0.207410 0
M  V30 16 O -2.222344 6.138675 0.007850 0
M  V30 17 C -1.402945 3.851486 0.156648 0
M  V30 18 C -0.439001 2.906882 0.344737 0
M  V30 19 C -0.289381 1.552676 0.364823 0
M  V30 20 C -1.210528 0.570086 0.171172 0
M  V30 21 C -0.819876 -0.743927 0.240186 0
M  V30 22 C -1.915855 -1.676644 0.018766 0
M  V30 23 O -1.909414 -2.933477 0.013973 0
M  V30 24 N -3.049457 -0.810327 -0.200381 0
M  V30 25 C -2.610033 0.525064 -0.105860 0
M  V30 26 O -3.478625 1.389308 -0.272685 0
M  V30 27 C 1.059150 -3.428656 -0.301681 0
M  V30 28 C 1.716567 -4.619429 -0.076980 0
M  V30 29 H 1.927143 -6.982781 3.180757 0
M  V30 30 H 2.588330 -8.408981 2.347685 0
M  V30 31 H 1.164947 -7.510242 1.608611 0
M  V30 32 H 3.124234 -3.933277 2.907648 0
M  V30 33 H 1.972824 -1.867662 2.499460 0
M  V30 34 H 2.496437 -0.211857 0.915162 0
M  V30 35 H 2.748934 2.513999 0.986956 0
M  V30 36 H 2.063752 5.163708 0.868201 0
M  V30 37 H 0.263033 6.755249 0.515576 0
M  V30 38 H -3.075154 6.183388 0.534653 0
M  V30 39 H -2.396140 3.576984 -0.046714 0
M  V30 40 H -4.000335 -1.247966 -0.390866 0
M  V30 41 H 0.486493 -3.258388 -1.187741 0
M  V30 42 H 1.643330 -5.407269 -0.814289 0
M  V30 END ATOM
M  V30 BEGIN BOND
M  V30 1 1 1 2
M  V30 2 1 2 3
M  V30 3 1 2 4
M  V30 4 2 4 5
M  V30 5 1 5 6
M  V30 6 2 6 7
M  V30 7 1 7 8
M  V30 8 2 8 9
M  V30 9 1 9 10
M  V30 10 1 10 11
M  V30 11 1 11 12
M  V30 12 2 12 13
M  V30 13 1 13 14
M  V30 14 2 14 15
M  V30 15 1 15 16
M  V30 16 1 15 17
M  V30 17 2 17 18
M  V30 18 1 18 19
M  V30 19 1 19 20
M  V30 20 2 20 21
M  V30 21 1 21 22
M  V30 22 2 22 23
M  V30 23 1 22 24
M  V30 24 1 24 25
M  V30 25 2 25 26
M  V30 26 1 7 27
M  V30 27 2 27 28
M  V30 28 1 28 4
M  V30 29 1 21 8
M  V30 30 2 19 10
M  V30 31 1 25 20
M  V30 32 1 18 12
M  V30 33 1 1 29
M  V30 34 1 1 30
M  V30 35 1 1 31
M  V30 36 1 5 32
M  V30 37 1 6 33
M  V30 38 1 9 34
M  V30 39 1 11 35
M  V30 40 1 13 36
M  V30 41 1 14 37
M  V30 42 1 16 38
M  V30 43 1 17 39
M  V30 44 1 24 40
M  V30 45 1 27 41
M  V30 46 1 28 42
M  V30 END BOND
M  V30 END CTAB
M  END
>  <Dataset>  (947) 
ChEMBL_Kinases

>  <Ligand_Instance>  (947) 
nan

>  <PDB_ID>  (947) 
nan

>  <Standardized_SMILES>  (947) 
C[S+]([O-])c1ccc(-c2cc3[nH]c4ccc(O)cc4c3c3c2C(=O)NC3=O)cc1

>  <Name>  (947) 
nan

>  <Pocket>  (947) 
nan

>  <ATP_Site>  (947) 
nan

>  <Peripheral>  (947) 
nan

>  <Num_H_Atoms_ProtBoundConf>  (947) 
nan

>  <Num_Resolved_Atoms>  (947) 
nan

>  <Num_Not_Resolved_Atoms>  (947) 
nan

$$$$
CHEMBL3394125
     RDKit          3D

  0  0  0  0  0  0  0  0  0  0999 V3000
M  V30 BEGIN CTAB
M  V30 COUNTS 48 51 0 0 0
M  V30 BEGIN ATOM
M  V30 1 O 3.017580 -3.310134 0.496679 0
M  V30 2 C 2.995998 -2.488197 -0.444582 0
M  V30 3 O 2.134622 -2.048128 0.507189 0
M  V30 4 C 3.900323 -2.913057 -1.488122 0
M  V30 5 C 3.873012 -2.057609 -2.482610 0
M  V30 6 S 3.094279 -0.553866 -2.974579 0
M  V30 7 C 2.165254 0.260375 -1.701762 0
M  V30 8 N 2.561889 1.211744 -0.812723 0
M  V30 9 C 1.500885 1.545622 -0.035093 0
M  V30 10 C 1.296853 2.484249 1.063045 0
M  V30 11 C 1.564670 3.803921 0.716963 0
M  V30 12 C 1.416610 4.838979 1.647293 0
M  V30 13 C 0.995952 4.558588 2.941227 0
M  V30 14 F 0.838123 5.539421 3.869353 0
M  V30 15 C 0.740973 3.239585 3.244691 0
M  V30 16 C 0.876675 2.204254 2.355554 0
M  V30 17 C 0.420839 0.764652 -0.470236 0
M  V30 18 C -0.958529 0.744110 0.063578 0
M  V30 19 C -1.836178 1.790247 0.094155 0
M  V30 20 C -3.075370 1.563831 0.644239 0
M  V30 21 N -3.515134 0.417884 1.156166 0
M  V30 22 C -2.671528 -0.648551 1.144170 0
M  V30 23 N -3.126847 -1.867818 1.704932 0
M  V30 24 C -2.661790 -3.208258 1.771552 0
M  V30 25 C -2.788181 -4.094429 2.815092 0
M  V30 26 C -2.303487 -5.374441 2.708163 0
M  V30 27 C -1.669575 -5.824698 1.550440 0
M  V30 28 C -1.542973 -4.920690 0.493679 0
M  V30 29 C -2.032547 -3.631795 0.604657 0
M  V30 30 C -1.417875 -0.463507 0.601363 0
M  V30 31 N 0.854628 -0.018675 -1.498286 0
M  V30 32 H 2.152122 -1.096845 0.904662 0
M  V30 33 H 4.525622 -3.778136 -1.515325 0
M  V30 34 H 4.483816 -2.175598 -3.391645 0
M  V30 35 H 1.895390 4.142512 -0.251514 0
M  V30 36 H 1.607007 5.878827 1.427532 0
M  V30 37 H 0.411860 2.978963 4.240682 0
M  V30 38 H 0.692121 1.161184 2.545167 0
M  V30 39 H -1.487206 2.717841 -0.318517 0
M  V30 40 H -3.787079 2.399254 0.672094 0
M  V30 41 H -4.040818 -1.864846 2.226733 0
M  V30 42 H -3.292429 -3.691964 3.698879 0
M  V30 43 H -2.431395 -6.026191 3.560908 0
M  V30 44 H -1.304983 -6.857138 1.526289 0
M  V30 45 H -1.036061 -5.381895 -0.350593 0
M  V30 46 H -1.823749 -3.128019 -0.339854 0
M  V30 47 H -0.720430 -1.289596 0.585735 0
M  V30 48 H 0.251083 -0.699177 -2.012695 0
M  V30 END ATOM
M  V30 BEGIN BOND
M  V30 1 2 1 2
M  V30 2 1 2 3
M  V30 3 1 2 4
M  V30 4 2 4 5
M  V30 5 1 5 6
M  V30 6 1 6 7
M  V30 7 2 7 8
M  V30 8 1 8 9
M  V30 9 1 9 10
M  V30 10 2 10 11
M  V30 11 1 11 12
M  V30 12 2 12 13
M  V30 13 1 13 14
M  V30 14 1 13 15
M  V30 15 2 15 16
M  V30 16 2 9 17
M  V30 17 1 17 18
M  V30 18 2 18 19
M  V30 19 1 19 20
M  V30 20 2 20 21
M  V30 21 1 21 22
M  V30 22 1 22 23
M  V30 23 1 23 24
M  V30 24 2 24 25
M  V30 25 1 25 26
M  V30 26 2 26 27
M  V30 27 1 27 28
M  V30 28 2 28 29
M  V30 29 2 22 30
M  V30 30 1 17 31
M  V30 31 1 31 7
M  V30 32 1 16 10
M  V30 33 1 30 18
M  V30 34 1 29 24
M  V30 35 1 3 32
M  V30 36 1 4 33
M  V30 37 1 5 34
M  V30 38 1 11 35
M  V30 39 1 12 36
M  V30 40 1 15 37
M  V30 41 1 16 38
M  V30 42 1 19 39
M  V30 43 1 20 40
M  V30 44 1 23 41
M  V30 45 1 25 42
M  V30 46 1 26 43
M  V30 47 1 27 44
M  V30 48 1 28 45
M  V30 49 1 29 46
M  V30 50 1 30 47
M  V30 51 1 31 48
M  V30 END BOND
M  V30 END CTAB
M  END
>  <Dataset>  (948) 
ChEMBL_Kinases

>  <Ligand_Instance>  (948) 
nan

>  <PDB_ID>  (948) 
nan

>  <Standardized_SMILES>  (948) 
O=C(O)/C=C\Sc1nc(-c2ccc(F)cc2)c(-c2ccnc(Nc3ccccc3)c2)[nH]1

>  <Name>  (948) 
nan

>  <Pocket>  (948) 
nan

>  <ATP_Site>  (948) 
nan

>  <Peripheral>  (948) 
nan

>  <Num_H_Atoms_ProtBoundConf>  (948) 
nan

>  <Num_Resolved_Atoms>  (948) 
nan

>  <Num_Not_Resolved_Atoms>  (948) 
nan

$$$$
CHEMBL3394126
     RDKit          3D

  0  0  0  0  0  0  0  0  0  0999 V3000
M  V30 BEGIN CTAB
M  V30 COUNTS 54 57 0 0 0
M  V30 BEGIN ATOM
M  V30 1 C 3.066225 -3.150226 2.156713 0
M  V30 2 C 4.550369 -3.362593 1.963723 0
M  V30 3 O 5.184656 -2.113329 1.743174 0
M  V30 4 C 4.854329 -1.294992 0.677542 0
M  V30 5 O 3.969121 -2.027988 0.173130 0
M  V30 6 C 5.444485 -0.004032 0.368925 0
M  V30 7 C 5.009735 0.648089 -0.690984 0
M  V30 8 S 3.736283 0.073554 -1.799794 0
M  V30 9 C 2.132292 0.556139 -1.144977 0
M  V30 10 N 1.643320 1.763318 -1.524094 0
M  V30 11 C 0.430078 1.943159 -0.925833 0
M  V30 12 C -0.587323 2.986700 -0.911166 0
M  V30 13 C -0.163358 4.215329 -0.422633 0
M  V30 14 C -1.065788 5.268462 -0.371040 0
M  V30 15 C -2.361194 5.055087 -0.810176 0
M  V30 16 F -3.227725 6.092194 -0.753135 0
M  V30 17 C -2.810937 3.837704 -1.302792 0
M  V30 18 C -1.886098 2.803398 -1.342385 0
M  V30 19 C 0.194119 0.814920 -0.173689 0
M  V30 20 C -0.924834 0.416165 0.686309 0
M  V30 21 C -1.334564 1.058653 1.839033 0
M  V30 22 C -2.411967 0.562955 2.546406 0
M  V30 23 N -3.066152 -0.535689 2.127736 0
M  V30 24 C -2.697355 -1.198371 1.000563 0
M  V30 25 N -3.356039 -2.362134 0.514452 0
M  V30 26 C -3.235974 -3.768884 0.689568 0
M  V30 27 C -4.117809 -4.565301 -0.010968 0
M  V30 28 C -3.950813 -5.917826 0.201955 0
M  V30 29 C -2.998152 -6.490135 1.035339 0
M  V30 30 C -2.163089 -5.612965 1.692086 0
M  V30 31 C -2.257874 -4.244755 1.538954 0
M  V30 32 C -1.610011 -0.713940 0.269692 0
M  V30 33 N 1.248544 -0.004336 -0.331186 0
M  V30 34 H 2.473856 -3.534058 1.299481 0
M  V30 35 H 2.714680 -3.651422 3.092244 0
M  V30 36 H 2.889985 -2.072409 2.271969 0
M  V30 37 H 4.678896 -3.935420 1.010396 0
M  V30 38 H 4.983939 -3.898710 2.822481 0
M  V30 39 H 6.204986 0.290172 1.070930 0
M  V30 40 H 5.506909 1.615498 -0.854860 0
M  V30 41 H 0.853378 4.371574 -0.081162 0
M  V30 42 H -0.746699 6.230243 0.007401 0
M  V30 43 H -3.826455 3.681722 -1.643962 0
M  V30 44 H -2.135083 1.813174 -1.708946 0
M  V30 45 H -0.767034 1.936523 2.121947 0
M  V30 46 H -2.728697 1.072338 3.450901 0
M  V30 47 H -4.066810 -1.919285 -0.100960 0
M  V30 48 H -4.879472 -4.184827 -0.672589 0
M  V30 49 H -4.640506 -6.580572 -0.344133 0
M  V30 50 H -2.984070 -7.569839 1.105193 0
M  V30 51 H -1.427334 -6.107420 2.338563 0
M  V30 52 H -1.573824 -3.606187 2.080842 0
M  V30 53 H -1.321097 -1.256657 -0.638213 0
M  V30 54 H 1.444909 -0.946218 0.070726 0
M  V30 END ATOM
M  V30 BEGIN BOND
M  V30 1 1 1 2
M  V30 2 1 2 3
M  V30 3 1 3 4
M  V30 4 2 4 5
M  V30 5 1 4 6
M  V30 6 2 6 7
M  V30 7 1 7 8
M  V30 8 1 8 9
M  V30 9 2 9 10
M  V30 10 1 10 11
M  V30 11 1 11 12
M  V30 12 2 12 13
M  V30 13 1 13 14
M  V30 14 2 14 15
M  V30 15 1 15 16
M  V30 16 1 15 17
M  V30 17 2 17 18
M  V30 18 2 11 19
M  V30 19 1 19 20
M  V30 20 2 20 21
M  V30 21 1 21 22
M  V30 22 2 22 23
M  V30 23 1 23 24
M  V30 24 1 24 25
M  V30 25 1 25 26
M  V30 26 2 26 27
M  V30 27 1 27 28
M  V30 28 2 28 29
M  V30 29 1 29 30
M  V30 30 2 30 31
M  V30 31 2 24 32
M  V30 32 1 19 33
M  V30 33 1 33 9
M  V30 34 1 18 12
M  V30 35 1 32 20
M  V30 36 1 31 26
M  V30 37 1 1 34
M  V30 38 1 1 35
M  V30 39 1 1 36
M  V30 40 1 2 37
M  V30 41 1 2 38
M  V30 42 1 6 39
M  V30 43 1 7 40
M  V30 44 1 13 41
M  V30 45 1 14 42
M  V30 46 1 17 43
M  V30 47 1 18 44
M  V30 48 1 21 45
M  V30 49 1 22 46
M  V30 50 1 25 47
M  V30 51 1 27 48
M  V30 52 1 28 49
M  V30 53 1 29 50
M  V30 54 1 30 51
M  V30 55 1 31 52
M  V30 56 1 32 53
M  V30 57 1 33 54
M  V30 END BOND
M  V30 END CTAB
M  END
>  <Dataset>  (949) 
ChEMBL_Kinases

>  <Ligand_Instance>  (949) 
nan

>  <PDB_ID>  (949) 
nan

>  <Standardized_SMILES>  (949) 
CCOC(=O)/C=C\Sc1nc(-c2ccc(F)cc2)c(-c2ccnc(Nc3ccccc3)c2)[nH]1

>  <Name>  (949) 
nan

>  <Pocket>  (949) 
nan

>  <ATP_Site>  (949) 
nan

>  <Peripheral>  (949) 
nan

>  <Num_H_Atoms_ProtBoundConf>  (949) 
nan

>  <Num_Resolved_Atoms>  (949) 
nan

>  <Num_Not_Resolved_Atoms>  (949) 
nan

$$$$
CHEMBL3670400
     RDKit          3D

  0  0  0  0  0  0  0  0  0  0999 V3000
M  V30 BEGIN CTAB
M  V30 COUNTS 50 52 0 0 0
M  V30 BEGIN ATOM
M  V30 1 C 2.715289 -0.846239 4.968178 0
M  V30 2 O 2.320463 -0.711603 3.638976 0
M  V30 3 C 3.144715 -0.809617 2.527760 0
M  V30 4 C 4.478056 -1.064377 2.772300 0
M  V30 5 C 5.308066 -1.164184 1.675262 0
M  V30 6 C 4.776445 -1.007648 0.412059 0
M  V30 7 C 3.438475 -0.753334 0.197166 0
M  V30 8 C 2.572184 -0.645482 1.260605 0
M  V30 9 C 1.093885 -0.369815 1.193893 0
M  V30 10 C 0.991850 1.148830 1.181942 0
M  V30 11 N -0.373702 1.556810 1.091752 0
M  V30 12 S -0.502342 3.301848 1.096118 0
M  V30 13 C 0.133537 3.976160 2.594882 0
M  V30 14 O 0.213916 3.885036 -0.072592 0
M  V30 15 O -1.961492 3.627695 1.002713 0
M  V30 16 N 0.429724 -1.001764 0.111117 0
M  V30 17 C -0.972688 -1.282441 -0.001523 0
M  V30 18 N -1.880792 -1.025652 0.953803 0
M  V30 19 C -3.188267 -1.309783 0.877952 0
M  V30 20 N -3.679048 -1.901087 -0.226236 0
M  V30 21 C -2.841785 -2.195361 -1.234686 0
M  V30 22 C -3.359814 -2.800861 -2.359380 0
M  V30 23 C -4.804072 -3.109009 -2.430875 0
M  V30 24 N -5.639389 -2.771617 -1.329027 0
M  V30 25 O -5.286514 -3.663074 -3.455052 0
M  V30 26 C -2.560501 -3.131572 -3.433256 0
M  V30 27 C -1.214992 -2.830901 -3.337096 0
M  V30 28 C -0.738605 -2.225174 -2.194269 0
M  V30 29 C -1.512941 -1.887430 -1.115208 0
M  V30 30 H 3.573864 -0.216705 5.258783 0
M  V30 31 H 1.840401 -0.550563 5.599749 0
M  V30 32 H 2.912701 -1.911670 5.213068 0
M  V30 33 H 4.839652 -1.177773 3.781572 0
M  V30 34 H 6.360217 -1.365257 1.868418 0
M  V30 35 H 5.438763 -1.088370 -0.438714 0
M  V30 36 H 3.009341 -0.626436 -0.786282 0
M  V30 37 H 0.628775 -0.704822 2.138878 0
M  V30 38 H 1.522123 1.575635 0.298182 0
M  V30 39 H 1.476481 1.506099 2.106514 0
M  V30 40 H -0.776801 1.264667 0.141439 0
M  V30 41 H -0.461952 4.881784 2.840798 0
M  V30 42 H 0.026843 3.237915 3.436065 0
M  V30 43 H 1.219468 4.202133 2.563505 0
M  V30 44 H 1.098280 -1.252136 -0.627646 0
M  V30 45 H -3.678366 -0.990336 1.795154 0
M  V30 46 H -5.783320 -3.687629 -0.840820 0
M  V30 47 H -6.139592 -1.989329 -0.847010 0
M  V30 48 H -3.023254 -3.600027 -4.277000 0
M  V30 49 H -0.598303 -3.096844 -4.189654 0
M  V30 50 H 0.316539 -2.040127 -2.233011 0
M  V30 END ATOM
M  V30 BEGIN BOND
M  V30 1 1 1 2
M  V30 2 1 2 3
M  V30 3 2 3 4
M  V30 4 1 4 5
M  V30 5 2 5 6
M  V30 6 1 6 7
M  V30 7 2 7 8
M  V30 8 1 8 9
M  V30 9 1 9 10
M  V30 10 1 10 11
M  V30 11 1 11 12
M  V30 12 1 12 13
M  V30 13 2 12 14
M  V30 14 2 12 15
M  V30 15 1 9 16
M  V30 16 1 16 17
M  V30 17 2 17 18
M  V30 18 1 18 19
M  V30 19 2 19 20
M  V30 20 1 20 21
M  V30 21 2 21 22
M  V30 22 1 22 23
M  V30 23 1 23 24
M  V30 24 2 23 25
M  V30 25 1 22 26
M  V30 26 2 26 27
M  V30 27 1 27 28
M  V30 28 2 28 29
M  V30 29 1 8 3
M  V30 30 1 29 17
M  V30 31 1 29 21
M  V30 32 1 1 30
M  V30 33 1 1 31
M  V30 34 1 1 32
M  V30 35 1 4 33
M  V30 36 1 5 34
M  V30 37 1 6 35
M  V30 38 1 7 36
M  V30 39 1 9 37
M  V30 40 1 10 38
M  V30 41 1 10 39
M  V30 42 1 11 40
M  V30 43 1 13 41
M  V30 44 1 13 42
M  V30 45 1 13 43
M  V30 46 1 16 44
M  V30 47 1 19 45
M  V30 48 1 24 46
M  V30 49 1 24 47
M  V30 50 1 26 48
M  V30 51 1 27 49
M  V30 52 1 28 50
M  V30 END BOND
M  V30 END CTAB
M  END
>  <Dataset>  (950) 
ChEMBL_Kinases

>  <Ligand_Instance>  (950) 
nan

>  <PDB_ID>  (950) 
nan

>  <Standardized_SMILES>  (950) 
COc1ccccc1C(CNS(C)(=O)=O)Nc1ncnc2c(C(N)=O)cccc12

>  <Name>  (950) 
nan

>  <Pocket>  (950) 
nan

>  <ATP_Site>  (950) 
nan

>  <Peripheral>  (950) 
nan

>  <Num_H_Atoms_ProtBoundConf>  (950) 
nan

>  <Num_Resolved_Atoms>  (950) 
nan

>  <Num_Not_Resolved_Atoms>  (950) 
nan

$$$$
CHEMBL378756
     RDKit          3D

  0  0  0  0  0  0  0  0  0  0999 V3000
M  V30 BEGIN CTAB
M  V30 COUNTS 36 40 0 0 0
M  V30 BEGIN ATOM
M  V30 1 O 3.799018 -0.635414 1.545367 0
M  V30 2 C 2.823484 -1.157988 0.946738 0
M  V30 3 N 2.883854 -2.422014 0.288469 0
M  V30 4 C 1.596573 -2.620548 -0.235931 0
M  V30 5 O 1.459386 -3.695730 -0.856993 0
M  V30 6 C 0.672927 -1.536267 0.045640 0
M  V30 7 C 1.442962 -0.662039 0.763790 0
M  V30 8 C 1.029399 0.542482 1.283084 0
M  V30 9 C 1.758330 1.556834 2.026894 0
M  V30 10 C 2.941619 2.193375 1.724008 0
M  V30 11 C 3.459326 3.114817 2.590775 0
M  V30 12 C 2.852086 3.451796 3.776497 0
M  V30 13 C 1.672317 2.840157 4.112997 0
M  V30 14 C 1.152099 1.911161 3.237834 0
M  V30 15 C -0.287337 0.856484 1.034744 0
M  V30 16 C -1.022700 -0.042812 0.314314 0
M  V30 17 S -2.725846 0.160318 -0.117267 0
M  V30 18 C -2.850323 -1.399448 -1.001239 0
M  V30 19 C -3.976596 -1.883250 -1.621716 0
M  V30 20 C -3.891359 -3.099480 -2.253624 0
M  V30 21 C -2.662175 -3.710676 -2.193754 0
M  V30 22 O -2.632917 -4.938490 -2.849780 0
M  V30 23 C -1.603351 -3.142083 -1.548771 0
M  V30 24 C -1.579411 -1.949566 -0.894919 0
M  V30 25 C -0.640949 -1.244066 -0.214509 0
M  V30 26 H 3.758312 -2.996409 0.264353 0
M  V30 27 H 3.374619 1.904712 0.779353 0
M  V30 28 H 4.396578 3.543678 2.234801 0
M  V30 29 H 3.332951 4.197283 4.410137 0
M  V30 30 H 1.185329 3.095936 5.040951 0
M  V30 31 H 0.205393 1.465778 3.578380 0
M  V30 32 H -0.727271 1.777857 1.393833 0
M  V30 33 H -4.886143 -1.321040 -1.606437 0
M  V30 34 H -4.786998 -3.435924 -2.720868 0
M  V30 35 H -2.535659 -5.045214 -3.839483 0
M  V30 36 H -0.773860 -3.801080 -1.642686 0
M  V30 END ATOM
M  V30 BEGIN BOND
M  V30 1 2 1 2
M  V30 2 1 2 3
M  V30 3 1 3 4
M  V30 4 2 4 5
M  V30 5 1 4 6
M  V30 6 2 6 7
M  V30 7 1 7 8
M  V30 8 1 8 9
M  V30 9 2 9 10
M  V30 10 1 10 11
M  V30 11 2 11 12
M  V30 12 1 12 13
M  V30 13 2 13 14
M  V30 14 2 8 15
M  V30 15 1 15 16
M  V30 16 1 16 17
M  V30 17 1 17 18
M  V30 18 2 18 19
M  V30 19 1 19 20
M  V30 20 2 20 21
M  V30 21 1 21 22
M  V30 22 1 21 23
M  V30 23 2 23 24
M  V30 24 1 24 25
M  V30 25 1 7 2
M  V30 26 1 14 9
M  V30 27 2 25 16
M  V30 28 1 25 6
M  V30 29 1 24 18
M  V30 30 1 3 26
M  V30 31 1 10 27
M  V30 32 1 11 28
M  V30 33 1 12 29
M  V30 34 1 13 30
M  V30 35 1 14 31
M  V30 36 1 15 32
M  V30 37 1 19 33
M  V30 38 1 20 34
M  V30 39 1 22 35
M  V30 40 1 23 36
M  V30 END BOND
M  V30 END CTAB
M  END
>  <Dataset>  (951) 
ChEMBL_Kinases

>  <Ligand_Instance>  (951) 
nan

>  <PDB_ID>  (951) 
nan

>  <Standardized_SMILES>  (951) 
O=C1NC(=O)c2c1c(-c1ccccc1)cc1sc3ccc(O)cc3c21

>  <Name>  (951) 
nan

>  <Pocket>  (951) 
nan

>  <ATP_Site>  (951) 
nan

>  <Peripheral>  (951) 
nan

>  <Num_H_Atoms_ProtBoundConf>  (951) 
nan

>  <Num_Resolved_Atoms>  (951) 
nan

>  <Num_Not_Resolved_Atoms>  (951) 
nan

$$$$
CHEMBL378766
     RDKit          3D

  0  0  0  0  0  0  0  0  0  0999 V3000
M  V30 BEGIN CTAB
M  V30 COUNTS 39 43 0 0 0
M  V30 BEGIN ATOM
M  V30 1 O -0.508511 -3.121812 3.322055 0
M  V30 2 C -0.027486 -2.704821 2.282843 0
M  V30 3 N 0.731160 -3.663221 1.566933 0
M  V30 4 C 1.247890 -3.037623 0.337480 0
M  V30 5 O 2.630676 -2.952868 0.505513 0
M  V30 6 C 0.717475 -1.664540 0.447202 0
M  V30 7 C 0.913339 -0.638278 -0.454112 0
M  V30 8 C 1.658768 -0.635442 -1.705259 0
M  V30 9 C 1.608431 -1.556031 -2.730595 0
M  V30 10 C 2.381730 -1.430555 -3.864512 0
M  V30 11 C 3.242645 -0.365058 -4.012064 0
M  V30 12 C 3.358483 0.600577 -3.041762 0
M  V30 13 C 2.557832 0.415516 -1.933933 0
M  V30 14 C 0.338137 0.614781 -0.200058 0
M  V30 15 C -0.415177 0.813726 0.941170 0
M  V30 16 N -1.071152 1.916341 1.413622 0
M  V30 17 C -1.629605 1.512118 2.569012 0
M  V30 18 C -2.402536 2.312199 3.405482 0
M  V30 19 C -2.935073 1.807430 4.573972 0
M  V30 20 C -2.678413 0.469128 4.897695 0
M  V30 21 O -3.201267 -0.065814 6.066988 0
M  V30 22 C -1.905228 -0.256671 4.019153 0
M  V30 23 C -1.357659 0.193747 2.856185 0
M  V30 24 C -0.587864 -0.235302 1.816729 0
M  V30 25 C -0.034308 -1.454139 1.579869 0
M  V30 26 H 0.995319 -4.658865 1.701791 0
M  V30 27 H 0.947146 -3.593739 -0.548591 0
M  V30 28 H 2.919998 -3.137007 1.433368 0
M  V30 29 H 0.920953 -2.376088 -2.584355 0
M  V30 30 H 2.257210 -2.222014 -4.610660 0
M  V30 31 H 3.838552 -0.290986 -4.913093 0
M  V30 32 H 4.008026 1.446145 -3.103070 0
M  V30 33 H 2.642277 1.182943 -1.150156 0
M  V30 34 H 0.434784 1.494291 -0.853860 0
M  V30 35 H -1.109663 2.850508 0.953745 0
M  V30 36 H -2.621558 3.344660 3.190675 0
M  V30 37 H -3.538886 2.403179 5.243837 0
M  V30 38 H -3.990785 -0.695196 6.004713 0
M  V30 39 H -1.748694 -1.262023 4.322163 0
M  V30 END ATOM
M  V30 BEGIN BOND
M  V30 1 2 1 2
M  V30 2 1 2 3
M  V30 3 1 3 4
M  V30 4 1 4 5
M  V30 5 1 4 6
M  V30 6 2 6 7
M  V30 7 1 7 8
M  V30 8 2 8 9
M  V30 9 1 9 10
M  V30 10 2 10 11
M  V30 11 1 11 12
M  V30 12 2 12 13
M  V30 13 1 7 14
M  V30 14 2 14 15
M  V30 15 1 15 16
M  V30 16 1 16 17
M  V30 17 2 17 18
M  V30 18 1 18 19
M  V30 19 2 19 20
M  V30 20 1 20 21
M  V30 21 1 20 22
M  V30 22 2 22 23
M  V30 23 1 23 24
M  V30 24 2 24 25
M  V30 25 1 25 2
M  V30 26 1 25 6
M  V30 27 1 13 8
M  V30 28 1 24 15
M  V30 29 1 23 17
M  V30 30 1 3 26
M  V30 31 1 4 27
M  V30 32 1 5 28
M  V30 33 1 9 29
M  V30 34 1 10 30
M  V30 35 1 11 31
M  V30 36 1 12 32
M  V30 37 1 13 33
M  V30 38 1 14 34
M  V30 39 1 16 35
M  V30 40 1 18 36
M  V30 41 1 19 37
M  V30 42 1 21 38
M  V30 43 1 22 39
M  V30 END BOND
M  V30 END CTAB
M  END
>  <Dataset>  (952) 
ChEMBL_Kinases

>  <Ligand_Instance>  (952) 
nan

>  <PDB_ID>  (952) 
nan

>  <Standardized_SMILES>  (952) 
O=C1NC(O)c2c(-c3ccccc3)cc3[nH]c4ccc(O)cc4c3c21

>  <Name>  (952) 
nan

>  <Pocket>  (952) 
nan

>  <ATP_Site>  (952) 
nan

>  <Peripheral>  (952) 
nan

>  <Num_H_Atoms_ProtBoundConf>  (952) 
nan

>  <Num_Resolved_Atoms>  (952) 
nan

>  <Num_Not_Resolved_Atoms>  (952) 
nan

$$$$
CHEMBL378931
     RDKit          3D

  0  0  0  0  0  0  0  0  0  0999 V3000
M  V30 BEGIN CTAB
M  V30 COUNTS 31 31 0 0 0
M  V30 BEGIN ATOM
M  V30 1 C -0.662960 -2.540742 4.895133 0
M  V30 2 C -0.067891 -1.819379 3.756619 0
M  V30 3 O 0.498589 -2.622431 2.948645 0
M  V30 4 N -0.035843 -0.421240 3.443610 0
M  V30 5 C 0.686006 -0.287260 2.199757 0
M  V30 6 C 2.055180 -0.111058 2.216915 0
M  V30 7 C 2.662869 0.007753 0.986189 0
M  V30 8 N 4.089556 0.194305 0.914480 0
M  V30 9 C 1.906553 -0.052225 -0.162367 0
M  V30 10 C 2.591585 0.077345 -1.416034 0
M  V30 11 N 3.157932 0.167588 -2.425257 0
M  V30 12 C 0.535899 -0.229284 -0.159300 0
M  V30 13 O -0.120069 -0.274282 -1.369745 0
M  V30 14 C -1.497434 -0.446769 -1.530246 0
M  V30 15 C -1.896023 -1.670222 -2.293943 0
M  V30 16 C -2.174202 0.756665 -2.146072 0
M  V30 17 N -0.037723 -0.342946 1.048555 0
M  V30 18 H 0.084614 -3.022210 5.558365 0
M  V30 19 H -1.278375 -1.883478 5.561996 0
M  V30 20 H -1.311616 -3.346494 4.491757 0
M  V30 21 H -0.534715 0.137200 4.182688 0
M  V30 22 H 2.607859 -0.070156 3.145542 0
M  V30 23 H 4.468091 0.850880 1.659963 0
M  V30 24 H 4.692107 -0.284276 0.182285 0
M  V30 25 H -1.940468 -0.537448 -0.501277 0
M  V30 26 H -2.871584 -1.486826 -2.813665 0
M  V30 27 H -1.169692 -1.912625 -3.074795 0
M  V30 28 H -2.071813 -2.513292 -1.579753 0
M  V30 29 H -1.846000 1.707024 -1.661671 0
M  V30 30 H -2.111710 0.786534 -3.245920 0
M  V30 31 H -3.254087 0.665036 -1.896992 0
M  V30 END ATOM
M  V30 BEGIN BOND
M  V30 1 1 1 2
M  V30 2 2 2 3
M  V30 3 1 2 4
M  V30 4 1 4 5
M  V30 5 2 5 6
M  V30 6 1 6 7
M  V30 7 1 7 8
M  V30 8 2 7 9
M  V30 9 1 9 10
M  V30 10 3 10 11
M  V30 11 1 9 12
M  V30 12 1 12 13
M  V30 13 1 13 14
M  V30 14 1 14 15
M  V30 15 1 14 16
M  V30 16 2 12 17
M  V30 17 1 17 5
M  V30 18 1 1 18
M  V30 19 1 1 19
M  V30 20 1 1 20
M  V30 21 1 4 21
M  V30 22 1 6 22
M  V30 23 1 8 23
M  V30 24 1 8 24
M  V30 25 1 14 25
M  V30 26 1 15 26
M  V30 27 1 15 27
M  V30 28 1 15 28
M  V30 29 1 16 29
M  V30 30 1 16 30
M  V30 31 1 16 31
M  V30 END BOND
M  V30 END CTAB
M  END
>  <Dataset>  (953) 
ChEMBL_Kinases

>  <Ligand_Instance>  (953) 
nan

>  <PDB_ID>  (953) 
nan

>  <Standardized_SMILES>  (953) 
CC(=O)Nc1cc(N)c(C#N)c(OC(C)C)n1

>  <Name>  (953) 
nan

>  <Pocket>  (953) 
nan

>  <ATP_Site>  (953) 
nan

>  <Peripheral>  (953) 
nan

>  <Num_H_Atoms_ProtBoundConf>  (953) 
nan

>  <Num_Resolved_Atoms>  (953) 
nan

>  <Num_Not_Resolved_Atoms>  (953) 
nan

$$$$
CHEMBL378980
     RDKit          3D

  0  0  0  0  0  0  0  0  0  0999 V3000
M  V30 BEGIN CTAB
M  V30 COUNTS 34 34 0 0 0
M  V30 BEGIN ATOM
M  V30 1 C -2.908496 -3.034648 1.420345 0
M  V30 2 C -1.642517 -2.674344 2.169207 0
M  V30 3 C -0.396112 -2.910483 1.334440 0
M  V30 4 C 0.834786 -2.536197 2.126474 0
M  V30 5 O 0.844740 -1.197639 2.520168 0
M  V30 6 C 0.813055 -0.110636 1.658078 0
M  V30 7 N 0.767807 -0.217592 0.297503 0
M  V30 8 C 0.738854 0.876264 -0.483900 0
M  V30 9 N 0.692024 0.776012 -1.903391 0
M  V30 10 C 0.675422 -0.478161 -2.543372 0
M  V30 11 C 0.626675 -0.599818 -4.020673 0
M  V30 12 O 0.700123 -1.569316 -1.924815 0
M  V30 13 C 0.756504 2.106776 0.138436 0
M  V30 14 C 0.801476 2.282021 1.495959 0
M  V30 15 N 0.815943 3.601327 2.030137 0
M  V30 16 C 0.830002 1.131432 2.259982 0
M  V30 17 C 0.877409 1.301583 3.689021 0
M  V30 18 N 0.929634 1.444338 4.849680 0
M  V30 19 H -3.640246 -3.569652 2.058193 0
M  V30 20 H -3.402246 -2.116662 1.012190 0
M  V30 21 H -2.673078 -3.742451 0.586479 0
M  V30 22 H -1.588294 -3.346026 3.074727 0
M  V30 23 H -1.729026 -1.605305 2.450853 0
M  V30 24 H -0.528922 -2.371702 0.399329 0
M  V30 25 H -0.323516 -3.992919 1.103218 0
M  V30 26 H 0.868522 -3.174335 3.018837 0
M  V30 27 H 1.727721 -2.716495 1.509380 0
M  V30 28 H 0.670008 1.646476 -2.467844 0
M  V30 29 H -0.462910 -0.734149 -4.280393 0
M  V30 30 H 1.176490 -1.465329 -4.416786 0
M  V30 31 H 0.985055 0.295554 -4.555061 0
M  V30 32 H 0.733044 2.961728 -0.496909 0
M  V30 33 H 1.510203 4.123804 2.608116 0
M  V30 34 H -0.081743 4.073056 1.740636 0
M  V30 END ATOM
M  V30 BEGIN BOND
M  V30 1 1 1 2
M  V30 2 1 2 3
M  V30 3 1 3 4
M  V30 4 1 4 5
M  V30 5 1 5 6
M  V30 6 2 6 7
M  V30 7 1 7 8
M  V30 8 1 8 9
M  V30 9 1 9 10
M  V30 10 1 10 11
M  V30 11 2 10 12
M  V30 12 2 8 13
M  V30 13 1 13 14
M  V30 14 1 14 15
M  V30 15 2 14 16
M  V30 16 1 16 17
M  V30 17 3 17 18
M  V30 18 1 16 6
M  V30 19 1 1 19
M  V30 20 1 1 20
M  V30 21 1 1 21
M  V30 22 1 2 22
M  V30 23 1 2 23
M  V30 24 1 3 24
M  V30 25 1 3 25
M  V30 26 1 4 26
M  V30 27 1 4 27
M  V30 28 1 9 28
M  V30 29 1 11 29
M  V30 30 1 11 30
M  V30 31 1 11 31
M  V30 32 1 13 32
M  V30 33 1 15 33
M  V30 34 1 15 34
M  V30 END BOND
M  V30 END CTAB
M  END
>  <Dataset>  (954) 
ChEMBL_Kinases

>  <Ligand_Instance>  (954) 
nan

>  <PDB_ID>  (954) 
nan

>  <Standardized_SMILES>  (954) 
CCCCOc1nc(NC(C)=O)cc(N)c1C#N

>  <Name>  (954) 
nan

>  <Pocket>  (954) 
nan

>  <ATP_Site>  (954) 
nan

>  <Peripheral>  (954) 
nan

>  <Num_H_Atoms_ProtBoundConf>  (954) 
nan

>  <Num_Resolved_Atoms>  (954) 
nan

>  <Num_Not_Resolved_Atoms>  (954) 
nan

$$$$
CHEMBL379149
     RDKit          3D

  0  0  0  0  0  0  0  0  0  0999 V3000
M  V30 BEGIN CTAB
M  V30 COUNTS 35 39 0 0 0
M  V30 BEGIN ATOM
M  V30 1 O 0.817057 -4.463684 0.733010 0
M  V30 2 C 0.434314 -3.362846 1.196328 0
M  V30 3 N -0.095945 -3.301124 2.536887 0
M  V30 4 C -0.435981 -1.946511 2.752415 0
M  V30 5 O -0.918640 -1.680559 3.869437 0
M  V30 6 C -0.127391 -1.173489 1.576246 0
M  V30 7 C 0.400526 -2.020366 0.631422 0
M  V30 8 C 0.792005 -1.650477 -0.625281 0
M  V30 9 C 1.456536 -2.403548 -1.656573 0
M  V30 10 C 2.254579 -3.513622 -1.769446 0
M  V30 11 C 2.693617 -3.771788 -3.034452 0
M  V30 12 C 2.147498 -2.770514 -3.770695 0
M  V30 13 N 1.442368 -1.996591 -2.962575 0
M  V30 14 C 0.590367 -0.280044 -0.861327 0
M  V30 15 C 0.068851 0.615909 0.035766 0
M  V30 16 N -0.179340 1.933057 -0.038138 0
M  V30 17 C -0.694761 2.295397 1.149434 0
M  V30 18 C -1.101722 3.579572 1.525232 0
M  V30 19 C -1.612450 3.788209 2.789558 0
M  V30 20 C -1.705909 2.695184 3.660185 0
M  V30 21 O -2.222595 2.896857 4.944751 0
M  V30 22 C -1.282347 1.466634 3.207964 0
M  V30 23 C -0.770473 1.196447 1.974935 0
M  V30 24 C -0.287027 0.133329 1.269232 0
M  V30 25 H -0.184633 -4.146103 3.180118 0
M  V30 26 H 2.562020 -4.136395 -0.958471 0
M  V30 27 H 3.316939 -4.561354 -3.393704 0
M  V30 28 H 2.277877 -2.641942 -4.842898 0
M  V30 29 H 0.932628 -1.150700 -3.362054 0
M  V30 30 H 0.861364 0.157342 -1.832910 0
M  V30 31 H -0.004131 2.561077 -0.866370 0
M  V30 32 H -1.031116 4.419231 0.859667 0
M  V30 33 H -1.920448 4.787215 3.058560 0
M  V30 34 H -3.198810 2.872799 5.141951 0
M  V30 35 H -1.380662 0.701942 3.911089 0
M  V30 END ATOM
M  V30 BEGIN BOND
M  V30 1 2 1 2
M  V30 2 1 2 3
M  V30 3 1 3 4
M  V30 4 2 4 5
M  V30 5 1 4 6
M  V30 6 2 6 7
M  V30 7 1 7 8
M  V30 8 1 8 9
M  V30 9 2 9 10
M  V30 10 1 10 11
M  V30 11 2 11 12
M  V30 12 1 12 13
M  V30 13 2 8 14
M  V30 14 1 14 15
M  V30 15 1 15 16
M  V30 16 1 16 17
M  V30 17 2 17 18
M  V30 18 1 18 19
M  V30 19 2 19 20
M  V30 20 1 20 21
M  V30 21 1 20 22
M  V30 22 2 22 23
M  V30 23 1 23 24
M  V30 24 1 7 2
M  V30 25 1 13 9
M  V30 26 2 24 15
M  V30 27 1 24 6
M  V30 28 1 23 17
M  V30 29 1 3 25
M  V30 30 1 10 26
M  V30 31 1 11 27
M  V30 32 1 12 28
M  V30 33 1 13 29
M  V30 34 1 14 30
M  V30 35 1 16 31
M  V30 36 1 18 32
M  V30 37 1 19 33
M  V30 38 1 21 34
M  V30 39 1 22 35
M  V30 END BOND
M  V30 END CTAB
M  END
>  <Dataset>  (955) 
ChEMBL_Kinases

>  <Ligand_Instance>  (955) 
nan

>  <PDB_ID>  (955) 
nan

>  <Standardized_SMILES>  (955) 
O=C1NC(=O)c2c1c(-c1ccc[nH]1)cc1[nH]c3ccc(O)cc3c21

>  <Name>  (955) 
nan

>  <Pocket>  (955) 
nan

>  <ATP_Site>  (955) 
nan

>  <Peripheral>  (955) 
nan

>  <Num_H_Atoms_ProtBoundConf>  (955) 
nan

>  <Num_Resolved_Atoms>  (955) 
nan

>  <Num_Not_Resolved_Atoms>  (955) 
nan

$$$$
CHEMBL379193
     RDKit          3D

  0  0  0  0  0  0  0  0  0  0999 V3000
M  V30 BEGIN CTAB
M  V30 COUNTS 56 58 0 0 0
M  V30 BEGIN ATOM
M  V30 1 C 5.830333 -2.943441 4.192205 0
M  V30 2 C 5.728699 -1.568073 3.539409 0
M  V30 3 O 6.128958 -1.631767 2.176931 0
M  V30 4 C 6.140481 -0.532631 1.327978 0
M  V30 5 O 5.775422 0.587167 1.790358 0
M  V30 6 C 6.572829 -0.687591 -0.080707 0
M  V30 7 C 5.403466 -0.760478 -1.032491 0
M  V30 8 C 4.576926 0.472444 -0.960161 0
M  V30 9 O 4.567394 1.572255 -0.334843 0
M  V30 10 N 3.455285 0.400262 -1.865690 0
M  V30 11 S 2.332972 1.732421 -1.963880 0
M  V30 12 O 1.693015 1.778431 -3.322699 0
M  V30 13 O 3.054713 3.025036 -1.704034 0
M  V30 14 C 1.039330 1.495939 -0.801105 0
M  V30 15 C -0.110875 0.805084 -1.125349 0
M  V30 16 C -1.073088 0.670020 -0.145698 0
M  V30 17 C -1.003011 1.160205 1.139671 0
M  V30 18 N -2.002646 1.004600 2.124597 0
M  V30 19 C -3.220798 0.294394 1.989645 0
M  V30 20 N -4.143440 0.202495 2.978430 0
M  V30 21 C -5.180013 -0.527327 2.561927 0
M  V30 22 N -6.236484 -0.699400 3.531262 0
M  V30 23 N -4.929031 -0.918887 1.277335 0
M  V30 24 C -5.910341 -1.702767 0.649092 0
M  V30 25 O -6.965100 -1.987156 1.317770 0
M  V30 26 C -5.940238 -2.273333 -0.686833 0
M  V30 27 C -7.047032 -2.984346 -1.096821 0
M  V30 28 F -8.130303 -3.185914 -0.318978 0
M  V30 29 C -7.139475 -3.555175 -2.353157 0
M  V30 30 C -6.121858 -3.443932 -3.272288 0
M  V30 31 C -5.000338 -2.739304 -2.894358 0
M  V30 32 C -4.953663 -2.191625 -1.639994 0
M  V30 33 F -3.832969 -1.524835 -1.343523 0
M  V30 34 N -3.761244 -0.406713 0.990901 0
M  V30 35 C 0.163574 1.840928 1.411711 0
M  V30 36 C 1.159735 2.008094 0.474902 0
M  V30 37 H 6.463361 -3.626168 3.586013 0
M  V30 38 H 4.810928 -3.398997 4.326372 0
M  V30 39 H 6.360855 -2.834738 5.169220 0
M  V30 40 H 6.427266 -0.874436 4.052734 0
M  V30 41 H 4.666379 -1.194829 3.617087 0
M  V30 42 H 7.104355 -1.657624 -0.190353 0
M  V30 43 H 7.241692 0.130055 -0.426773 0
M  V30 44 H 4.798210 -1.671192 -0.747502 0
M  V30 45 H 5.785005 -0.827839 -2.055390 0
M  V30 46 H 3.226292 -0.414026 -2.510403 0
M  V30 47 H -0.245603 0.387512 -2.112570 0
M  V30 48 H -1.951807 0.125605 -0.444076 0
M  V30 49 H -1.801678 1.475468 3.052811 0
M  V30 50 H -6.875724 0.140647 3.493908 0
M  V30 51 H -6.308257 -1.543767 4.146781 0
M  V30 52 H -8.002290 -4.111735 -2.679900 0
M  V30 53 H -6.177667 -3.882837 -4.255935 0
M  V30 54 H -4.190173 -2.641085 -3.602819 0
M  V30 55 H 0.319081 2.271214 2.407642 0
M  V30 56 H 2.052093 2.557829 0.764479 0
M  V30 END ATOM
M  V30 BEGIN BOND
M  V30 1 1 1 2
M  V30 2 1 2 3
M  V30 3 1 3 4
M  V30 4 2 4 5
M  V30 5 1 4 6
M  V30 6 1 6 7
M  V30 7 1 7 8
M  V30 8 2 8 9
M  V30 9 1 8 10
M  V30 10 1 10 11
M  V30 11 2 11 12
M  V30 12 2 11 13
M  V30 13 1 11 14
M  V30 14 2 14 15
M  V30 15 1 15 16
M  V30 16 2 16 17
M  V30 17 1 17 18
M  V30 18 1 18 19
M  V30 19 1 19 20
M  V30 20 2 20 21
M  V30 21 1 21 22
M  V30 22 1 21 23
M  V30 23 1 23 24
M  V30 24 2 24 25
M  V30 25 1 24 26
M  V30 26 2 26 27
M  V30 27 1 27 28
M  V30 28 1 27 29
M  V30 29 2 29 30
M  V30 30 1 30 31
M  V30 31 2 31 32
M  V30 32 1 32 33
M  V30 33 1 23 34
M  V30 34 1 17 35
M  V30 35 2 35 36
M  V30 36 1 36 14
M  V30 37 2 34 19
M  V30 38 1 32 26
M  V30 39 1 1 37
M  V30 40 1 1 38
M  V30 41 1 1 39
M  V30 42 1 2 40
M  V30 43 1 2 41
M  V30 44 1 6 42
M  V30 45 1 6 43
M  V30 46 1 7 44
M  V30 47 1 7 45
M  V30 48 1 10 46
M  V30 49 1 15 47
M  V30 50 1 16 48
M  V30 51 1 18 49
M  V30 52 1 22 50
M  V30 53 1 22 51
M  V30 54 1 29 52
M  V30 55 1 30 53
M  V30 56 1 31 54
M  V30 57 1 35 55
M  V30 58 1 36 56
M  V30 END BOND
M  V30 END CTAB
M  END
>  <Dataset>  (956) 
ChEMBL_Kinases

>  <Ligand_Instance>  (956) 
nan

>  <PDB_ID>  (956) 
nan

>  <Standardized_SMILES>  (956) 
CCOC(=O)CCC(=O)NS(=O)(=O)c1ccc(Nc2nc(N)n(C(=O)c3c(F)cccc3F)n2)cc1

>  <Name>  (956) 
nan

>  <Pocket>  (956) 
nan

>  <ATP_Site>  (956) 
nan

>  <Peripheral>  (956) 
nan

>  <Num_H_Atoms_ProtBoundConf>  (956) 
nan

>  <Num_Resolved_Atoms>  (956) 
nan

>  <Num_Not_Resolved_Atoms>  (956) 
nan

$$$$
CHEMBL4102316
     RDKit          3D

  0  0  0  0  0  0  0  0  0  0999 V3000
M  V30 BEGIN CTAB
M  V30 COUNTS 31 33 0 0 0
M  V30 BEGIN ATOM
M  V30 1 N 1.319285 -2.817748 3.815354 0
M  V30 2 C 2.479034 -2.176543 3.326549 0
M  V30 3 O 3.590969 -2.568234 3.755576 0
M  V30 4 C 2.259466 -1.095117 2.345630 0
M  V30 5 C 3.435342 -0.500061 1.890569 0
M  V30 6 C 3.343995 0.522028 0.969568 0
M  V30 7 Cl 4.729922 1.335576 0.332250 0
M  V30 8 C 2.075385 0.874434 0.570305 0
M  V30 9 C 1.685074 1.853544 -0.332138 0
M  V30 10 Cl 2.722614 2.918974 -1.217363 0
M  V30 11 C 0.310067 1.787738 -0.364620 0
M  V30 12 I -0.874797 3.042998 -1.562379 0
M  V30 13 N -0.169010 0.836404 0.455312 0
M  V30 14 C -1.510901 0.420277 0.735063 0
M  V30 15 C -2.019257 -0.657010 -0.131258 0
M  V30 16 C -1.741535 -1.941243 0.352829 0
M  V30 17 C -2.158576 -3.050968 -0.353758 0
M  V30 18 N -2.833547 -2.944182 -1.510393 0
M  V30 19 C -3.110217 -1.698467 -1.992714 0
M  V30 20 C -2.712313 -0.561952 -1.318688 0
M  V30 21 C 0.921431 0.262748 1.041478 0
M  V30 22 N 1.044154 -0.717552 1.927153 0
M  V30 23 H 0.481860 -3.425193 3.891224 0
M  V30 24 H 1.082269 -3.430211 2.979487 0
M  V30 25 H 4.380899 -0.834697 2.251661 0
M  V30 26 H -2.236844 1.281126 0.646480 0
M  V30 27 H -1.568985 0.139970 1.806600 0
M  V30 28 H -1.214713 -2.221536 1.257185 0
M  V30 29 H -2.010957 -4.090227 -0.094123 0
M  V30 30 H -3.646519 -1.515555 -2.914634 0
M  V30 31 H -2.898960 0.446365 -1.642742 0
M  V30 END ATOM
M  V30 BEGIN BOND
M  V30 1 1 1 2
M  V30 2 2 2 3
M  V30 3 1 2 4
M  V30 4 2 4 5
M  V30 5 1 5 6
M  V30 6 1 6 7
M  V30 7 2 6 8
M  V30 8 1 8 9
M  V30 9 1 9 10
M  V30 10 2 9 11
M  V30 11 1 11 12
M  V30 12 1 11 13
M  V30 13 1 13 14
M  V30 14 1 14 15
M  V30 15 2 15 16
M  V30 16 1 16 17
M  V30 17 2 17 18
M  V30 18 1 18 19
M  V30 19 2 19 20
M  V30 20 1 13 21
M  V30 21 2 21 22
M  V30 22 1 22 4
M  V30 23 1 21 8
M  V30 24 1 20 15
M  V30 25 1 1 23
M  V30 26 1 1 24
M  V30 27 1 5 25
M  V30 28 1 14 26
M  V30 29 1 14 27
M  V30 30 1 16 28
M  V30 31 1 17 29
M  V30 32 1 19 30
M  V30 33 1 20 31
M  V30 END BOND
M  V30 END CTAB
M  END
>  <Dataset>  (957) 
ChEMBL_Kinases

>  <Ligand_Instance>  (957) 
nan

>  <PDB_ID>  (957) 
nan

>  <Standardized_SMILES>  (957) 
NC(=O)c1cc(Cl)c2c(Cl)c(I)n(Cc3ccncc3)c2n1

>  <Name>  (957) 
nan

>  <Pocket>  (957) 
nan

>  <ATP_Site>  (957) 
nan

>  <Peripheral>  (957) 
nan

>  <Num_H_Atoms_ProtBoundConf>  (957) 
nan

>  <Num_Resolved_Atoms>  (957) 
nan

>  <Num_Not_Resolved_Atoms>  (957) 
nan

$$$$
CHEMBL379254
     RDKit          3D

  0  0  0  0  0  0  0  0  0  0999 V3000
M  V30 BEGIN CTAB
M  V30 COUNTS 46 48 0 0 0
M  V30 BEGIN ATOM
M  V30 1 C 2.086159 -8.795403 0.117517 0
M  V30 2 O 2.726315 -8.120576 -0.887032 0
M  V30 3 C 2.091855 -6.998627 -1.360072 0
M  V30 4 C 1.857611 -5.935874 -0.325839 0
M  V30 5 C 1.174968 -4.754675 -0.967291 0
M  V30 6 O 0.915983 -4.577830 -2.187234 0
M  V30 7 N 0.837311 -3.815531 0.020469 0
M  V30 8 C 0.195602 -2.548789 -0.028063 0
M  V30 9 C 0.749935 -1.317148 -0.126121 0
M  V30 10 C -0.077603 -0.218333 -0.169250 0
M  V30 11 C 0.455421 1.139890 -0.242434 0
M  V30 12 C 1.620540 1.576479 -0.841496 0
M  V30 13 C 1.943213 2.914550 -0.787821 0
M  V30 14 N 1.182233 3.838393 -0.179741 0
M  V30 15 C 0.029608 3.516911 0.431188 0
M  V30 16 N -0.861030 4.385987 1.111690 0
M  V30 17 C -1.137948 4.748864 2.450017 0
M  V30 18 C -0.640778 4.162529 3.581123 0
M  V30 19 C -0.957728 4.578877 4.865532 0
M  V30 20 C -1.833000 5.655645 4.935759 0
M  V30 21 C -2.350063 6.267265 3.814496 0
M  V30 22 C -2.010895 5.824113 2.564559 0
M  V30 23 C -0.293898 2.157806 0.375513 0
M  V30 24 C -1.445243 -0.396040 -0.112192 0
M  V30 25 C -2.010501 -1.664798 -0.010957 0
M  V30 26 N -1.136492 -2.693281 0.025835 0
M  V30 27 H 1.941059 -8.178866 1.026067 0
M  V30 28 H 2.743351 -9.668540 0.383258 0
M  V30 29 H 1.104023 -9.227088 -0.186421 0
M  V30 30 H 1.138353 -7.312890 -1.859873 0
M  V30 31 H 2.712912 -6.612865 -2.217112 0
M  V30 32 H 1.299462 -6.339816 0.522793 0
M  V30 33 H 2.869157 -5.599921 0.030672 0
M  V30 34 H 1.002392 -3.858635 1.068312 0
M  V30 35 H 1.805041 -1.264657 -0.166945 0
M  V30 36 H 2.196013 0.802015 -1.314866 0
M  V30 37 H 2.869721 3.238052 -1.268151 0
M  V30 38 H -1.335950 4.748403 0.267323 0
M  V30 39 H 0.031349 3.333559 3.415938 0
M  V30 40 H -0.531821 4.070949 5.714469 0
M  V30 41 H -2.090927 5.991986 5.948682 0
M  V30 42 H -3.021087 7.097631 3.977837 0
M  V30 43 H -2.455530 6.354314 1.721250 0
M  V30 44 H -1.219703 1.866434 0.861610 0
M  V30 45 H -2.181599 0.397174 -0.140938 0
M  V30 46 H -3.099496 -1.814114 0.035841 0
M  V30 END ATOM
M  V30 BEGIN BOND
M  V30 1 1 1 2
M  V30 2 1 2 3
M  V30 3 1 3 4
M  V30 4 1 4 5
M  V30 5 2 5 6
M  V30 6 1 5 7
M  V30 7 1 7 8
M  V30 8 2 8 9
M  V30 9 1 9 10
M  V30 10 1 10 11
M  V30 11 2 11 12
M  V30 12 1 12 13
M  V30 13 2 13 14
M  V30 14 1 14 15
M  V30 15 1 15 16
M  V30 16 1 16 17
M  V30 17 2 17 18
M  V30 18 1 18 19
M  V30 19 2 19 20
M  V30 20 1 20 21
M  V30 21 2 21 22
M  V30 22 2 15 23
M  V30 23 2 10 24
M  V30 24 1 24 25
M  V30 25 2 25 26
M  V30 26 1 26 8
M  V30 27 1 23 11
M  V30 28 1 22 17
M  V30 29 1 1 27
M  V30 30 1 1 28
M  V30 31 1 1 29
M  V30 32 1 3 30
M  V30 33 1 3 31
M  V30 34 1 4 32
M  V30 35 1 4 33
M  V30 36 1 7 34
M  V30 37 1 9 35
M  V30 38 1 12 36
M  V30 39 1 13 37
M  V30 40 1 16 38
M  V30 41 1 18 39
M  V30 42 1 19 40
M  V30 43 1 20 41
M  V30 44 1 21 42
M  V30 45 1 22 43
M  V30 46 1 23 44
M  V30 47 1 24 45
M  V30 48 1 25 46
M  V30 END BOND
M  V30 END CTAB
M  END
>  <Dataset>  (958) 
ChEMBL_Kinases

>  <Ligand_Instance>  (958) 
nan

>  <PDB_ID>  (958) 
nan

>  <Standardized_SMILES>  (958) 
COCCC(=O)Nc1cc(-c2ccnc(Nc3ccccc3)c2)ccn1

>  <Name>  (958) 
nan

>  <Pocket>  (958) 
nan

>  <ATP_Site>  (958) 
nan

>  <Peripheral>  (958) 
nan

>  <Num_H_Atoms_ProtBoundConf>  (958) 
nan

>  <Num_Resolved_Atoms>  (958) 
nan

>  <Num_Not_Resolved_Atoms>  (958) 
nan

$$$$
CHEMBL3792712
     RDKit          3D

  0  0  0  0  0  0  0  0  0  0999 V3000
M  V30 BEGIN CTAB
M  V30 COUNTS 58 62 0 0 0
M  V30 BEGIN ATOM
M  V30 1 C 2.160378 -2.055625 5.800230 0
M  V30 2 O 2.741775 -1.503424 4.640319 0
M  V30 3 C 4.111013 -1.465255 4.389503 0
M  V30 4 O 4.964509 -1.920676 5.174965 0
M  V30 5 C 4.580858 -0.863884 3.147290 0
M  V30 6 C 5.936444 -0.827968 2.902699 0
M  V30 7 C 6.404337 -0.265929 1.738065 0
M  V30 8 C 5.509704 0.251848 0.835305 0
M  V30 9 C 4.129155 0.251719 1.012762 0
M  V30 10 N 3.272310 0.804542 0.036273 0
M  V30 11 C 1.876272 0.918599 -0.008872 0
M  V30 12 O 1.283827 0.446945 0.993921 0
M  V30 13 C 1.049042 1.499863 -1.045045 0
M  V30 14 C -0.334493 1.501713 -0.871341 0
M  V30 15 C -1.230811 2.020179 -1.775278 0
M  V30 16 N -2.634654 1.991013 -1.538032 0
M  V30 17 C -3.228513 0.774555 -1.505620 0
M  V30 18 C -4.583468 1.001065 -1.262282 0
M  V30 19 C -5.719744 0.052629 -1.122490 0
M  V30 20 C -5.198338 -1.371043 -1.291508 0
M  V30 21 N -4.210563 -1.698283 -0.311698 0
M  V30 22 C -3.701170 -3.003884 -0.430091 0
M  V30 23 N -4.032551 -3.931470 -1.327935 0
M  V30 24 C -3.398298 -5.111415 -1.230851 0
M  V30 25 N -2.482833 -5.439443 -0.336320 0
M  V30 26 C -2.076762 -4.581490 0.610989 0
M  V30 27 C -1.149422 -4.825489 1.565584 0
M  V30 28 C -0.832123 -3.784845 2.508954 0
M  V30 29 S -1.989424 -2.383849 1.919216 0
M  V30 30 C -2.721156 -3.350458 0.530030 0
M  V30 31 N -4.741406 2.353518 -1.159092 0
M  V30 32 N -3.564501 2.934646 -1.326564 0
M  V30 33 C -0.750385 2.580560 -2.938041 0
M  V30 34 C 0.590372 2.605791 -3.159471 0
M  V30 35 C 1.429619 2.070830 -2.215812 0
M  V30 36 O 2.763054 2.141041 -2.524690 0
M  V30 37 C 3.749339 -0.323483 2.191965 0
M  V30 38 H 1.680518 -3.028786 5.637278 0
M  V30 39 H 2.896935 -2.033699 6.631626 0
M  V30 40 H 1.365589 -1.321598 6.112418 0
M  V30 41 H 6.663970 -1.227082 3.593699 0
M  V30 42 H 7.464107 -0.231562 1.534490 0
M  V30 43 H 5.949096 0.686832 -0.075969 0
M  V30 44 H 3.778033 1.191769 -0.789505 0
M  V30 45 H -0.799725 1.074122 0.028535 0
M  V30 46 H -2.855987 -0.229733 -1.625676 0
M  V30 47 H -6.300253 0.189644 -0.193349 0
M  V30 48 H -6.379803 0.224037 -2.014001 0
M  V30 49 H -6.022375 -2.091601 -1.382420 0
M  V30 50 H -4.669060 -1.350871 -2.288817 0
M  V30 51 H -3.913169 -1.015349 0.412016 0
M  V30 52 H -3.664472 -5.879645 -1.964719 0
M  V30 53 H -0.593160 -5.731451 1.721444 0
M  V30 54 H -0.149011 -3.779558 3.313666 0
M  V30 55 H -1.459189 2.986015 -3.643931 0
M  V30 56 H 0.944226 3.050165 -4.078056 0
M  V30 57 H 3.113704 1.386086 -3.130064 0
M  V30 58 H 2.723237 -0.398730 2.471565 0
M  V30 END ATOM
M  V30 BEGIN BOND
M  V30 1 1 1 2
M  V30 2 1 2 3
M  V30 3 2 3 4
M  V30 4 1 3 5
M  V30 5 2 5 6
M  V30 6 1 6 7
M  V30 7 2 7 8
M  V30 8 1 8 9
M  V30 9 1 9 10
M  V30 10 1 10 11
M  V30 11 2 11 12
M  V30 12 1 11 13
M  V30 13 2 13 14
M  V30 14 1 14 15
M  V30 15 1 15 16
M  V30 16 1 16 17
M  V30 17 2 17 18
M  V30 18 1 18 19
M  V30 19 1 19 20
M  V30 20 1 20 21
M  V30 21 1 21 22
M  V30 22 2 22 23
M  V30 23 1 23 24
M  V30 24 2 24 25
M  V30 25 1 25 26
M  V30 26 1 26 27
M  V30 27 2 27 28
M  V30 28 1 28 29
M  V30 29 1 29 30
M  V30 30 1 18 31
M  V30 31 2 31 32
M  V30 32 2 15 33
M  V30 33 1 33 34
M  V30 34 2 34 35
M  V30 35 1 35 36
M  V30 36 2 9 37
M  V30 37 1 37 5
M  V30 38 1 35 13
M  V30 39 1 32 16
M  V30 40 1 30 22
M  V30 41 2 30 26
M  V30 42 1 1 38
M  V30 43 1 1 39
M  V30 44 1 1 40
M  V30 45 1 6 41
M  V30 46 1 7 42
M  V30 47 1 8 43
M  V30 48 1 10 44
M  V30 49 1 14 45
M  V30 50 1 17 46
M  V30 51 1 19 47
M  V30 52 1 19 48
M  V30 53 1 20 49
M  V30 54 1 20 50
M  V30 55 1 21 51
M  V30 56 1 24 52
M  V30 57 1 27 53
M  V30 58 1 28 54
M  V30 59 1 33 55
M  V30 60 1 34 56
M  V30 61 1 36 57
M  V30 62 1 37 58
M  V30 END BOND
M  V30 END CTAB
M  END
>  <Dataset>  (959) 
ChEMBL_Kinases

>  <Ligand_Instance>  (959) 
nan

>  <PDB_ID>  (959) 
nan

>  <Standardized_SMILES>  (959) 
COC(=O)c1cccc(NC(=O)c2cc(-n3cc(CCNc4ncnc5ccsc45)nn3)ccc2O)c1

>  <Name>  (959) 
nan

>  <Pocket>  (959) 
nan

>  <ATP_Site>  (959) 
nan

>  <Peripheral>  (959) 
nan

>  <Num_H_Atoms_ProtBoundConf>  (959) 
nan

>  <Num_Resolved_Atoms>  (959) 
nan

>  <Num_Not_Resolved_Atoms>  (959) 
nan

$$$$
CHEMBL3669127
     RDKit          3D

  0  0  0  0  0  0  0  0  0  0999 V3000
M  V30 BEGIN CTAB
M  V30 COUNTS 46 48 0 0 0
M  V30 BEGIN ATOM
M  V30 1 C 1.334442 -6.831042 3.117805 0
M  V30 2 C 2.679540 -7.050105 2.480152 0
M  V30 3 O 3.422606 -5.859843 2.517682 0
M  V30 4 C 3.033051 -4.706205 1.906531 0
M  V30 5 C 3.824206 -3.554622 1.983800 0
M  V30 6 C 3.509856 -2.348937 1.396238 0
M  V30 7 C 2.360012 -2.232662 0.684305 0
M  V30 8 C 1.926358 -1.029863 -0.000062 0
M  V30 9 C 2.071981 0.210429 0.310727 0
M  V30 10 S 2.924488 0.818956 1.797028 0
M  V30 11 C 2.004961 2.390560 1.818306 0
M  V30 12 S 1.765243 3.299055 3.135861 0
M  V30 13 N 1.593206 2.574929 0.468900 0
M  V30 14 C 1.117989 3.892489 0.090991 0
M  V30 15 C -0.335150 4.129433 0.486896 0
M  V30 16 N -1.157334 3.137565 -0.141191 0
M  V30 17 C -2.542688 2.757639 -0.178942 0
M  V30 18 N -3.427803 2.948820 -1.209128 0
M  V30 19 C -4.704779 2.506551 -1.016268 0
M  V30 20 C -5.696809 2.670592 -2.096602 0
M  V30 21 N -5.072156 1.913954 0.130489 0
M  V30 22 C -4.167741 1.744501 1.123770 0
M  V30 23 Cl -4.805689 0.945262 2.568668 0
M  V30 24 N -2.884320 2.169278 0.974502 0
M  V30 25 C 1.619213 1.432234 -0.375609 0
M  V30 26 O 1.323831 1.315208 -1.589241 0
M  V30 27 C 1.518442 -3.345365 0.565920 0
M  V30 28 C 1.876500 -4.541111 1.175366 0
M  V30 29 H 1.316076 -7.466133 4.051266 0
M  V30 30 H 1.145584 -5.767976 3.414810 0
M  V30 31 H 0.476964 -7.145622 2.488895 0
M  V30 32 H 2.474771 -7.359203 1.410793 0
M  V30 33 H 3.231525 -7.891657 2.921647 0
M  V30 34 H 4.738433 -3.636938 2.546565 0
M  V30 35 H 4.109135 -1.457358 1.450566 0
M  V30 36 H 1.381188 -1.190916 -0.945079 0
M  V30 37 H 1.777386 4.674961 0.479478 0
M  V30 38 H 1.102033 3.952621 -1.035412 0
M  V30 39 H -0.587930 5.156622 0.210515 0
M  V30 40 H -0.348259 3.975261 1.599201 0
M  V30 41 H -0.898556 2.379322 -0.796684 0
M  V30 42 H -6.693766 2.973402 -1.662680 0
M  V30 43 H -5.833464 1.693954 -2.626279 0
M  V30 44 H -5.386438 3.440324 -2.818755 0
M  V30 45 H 0.576025 -3.336652 0.012108 0
M  V30 46 H 1.196133 -5.398182 1.060052 0
M  V30 END ATOM
M  V30 BEGIN BOND
M  V30 1 1 1 2
M  V30 2 1 2 3
M  V30 3 1 3 4
M  V30 4 2 4 5
M  V30 5 1 5 6
M  V30 6 2 6 7
M  V30 7 1 7 8
M  V30 8 2 8 9
M  V30 9 1 9 10
M  V30 10 1 10 11
M  V30 11 2 11 12
M  V30 12 1 11 13
M  V30 13 1 13 14
M  V30 14 1 14 15
M  V30 15 1 15 16
M  V30 16 1 16 17
M  V30 17 2 17 18
M  V30 18 1 18 19
M  V30 19 1 19 20
M  V30 20 2 19 21
M  V30 21 1 21 22
M  V30 22 1 22 23
M  V30 23 2 22 24
M  V30 24 1 13 25
M  V30 25 2 25 26
M  V30 26 1 7 27
M  V30 27 2 27 28
M  V30 28 1 28 4
M  V30 29 1 25 9
M  V30 30 1 24 17
M  V30 31 1 1 29
M  V30 32 1 1 30
M  V30 33 1 1 31
M  V30 34 1 2 32
M  V30 35 1 2 33
M  V30 36 1 5 34
M  V30 37 1 6 35
M  V30 38 1 8 36
M  V30 39 1 14 37
M  V30 40 1 14 38
M  V30 41 1 15 39
M  V30 42 1 15 40
M  V30 43 1 16 41
M  V30 44 1 20 42
M  V30 45 1 20 43
M  V30 46 1 20 44
M  V30 47 1 27 45
M  V30 48 1 28 46
M  V30 END BOND
M  V30 END CTAB
M  END
>  <Dataset>  (960) 
ChEMBL_Kinases

>  <Ligand_Instance>  (960) 
nan

>  <PDB_ID>  (960) 
nan

>  <Standardized_SMILES>  (960) 
CCOc1ccc(/C=C2\SC(=S)N(CCNc3nc(C)nc(Cl)n3)C2=O)cc1

>  <Name>  (960) 
nan

>  <Pocket>  (960) 
nan

>  <ATP_Site>  (960) 
nan

>  <Peripheral>  (960) 
nan

>  <Num_H_Atoms_ProtBoundConf>  (960) 
nan

>  <Num_Resolved_Atoms>  (960) 
nan

>  <Num_Not_Resolved_Atoms>  (960) 
nan

$$$$
CHEMBL3669125
     RDKit          3D

  0  0  0  0  0  0  0  0  0  0999 V3000
M  V30 BEGIN CTAB
M  V30 COUNTS 52 54 0 0 0
M  V30 BEGIN ATOM
M  V30 1 C 0.167070 -6.210433 4.779704 0
M  V30 2 C 1.635572 -6.469351 4.873637 0
M  V30 3 O 2.371021 -5.877687 3.833301 0
M  V30 4 C 2.421914 -4.517335 3.567177 0
M  V30 5 C 3.197467 -4.126444 2.493240 0
M  V30 6 C 3.290132 -2.788582 2.174988 0
M  V30 7 C 2.644243 -1.767397 2.870789 0
M  V30 8 C 2.740826 -0.362965 2.496679 0
M  V30 9 C 2.685771 0.033550 1.267503 0
M  V30 10 S 2.482611 -1.100095 -0.128486 0
M  V30 11 C 1.887851 0.190506 -1.257480 0
M  V30 12 S 1.063087 -0.319333 -2.564137 0
M  V30 13 N 2.326186 1.441992 -0.684819 0
M  V30 14 C 2.279776 2.596083 -1.558486 0
M  V30 15 C 0.962755 3.357480 -1.461604 0
M  V30 16 N -0.185718 2.531392 -1.778808 0
M  V30 17 C -1.444313 3.295571 -1.712496 0
M  V30 18 C -2.541187 2.341403 -1.984887 0
M  V30 19 C -3.075580 1.718893 -0.854309 0
M  V30 20 C -4.105585 0.793552 -0.895244 0
M  V30 21 C -4.640380 0.462866 -2.128914 0
M  V30 22 C -5.721135 -0.505158 -2.188834 0
M  V30 23 O -6.309338 -0.911671 -3.202503 0
M  V30 24 O -6.220102 -1.094733 -1.051306 0
M  V30 25 C -4.118365 1.070205 -3.230448 0
M  V30 26 C -3.088890 1.998937 -3.219499 0
M  V30 27 C 2.750798 1.346010 0.664697 0
M  V30 28 O 3.152745 2.382678 1.253609 0
M  V30 29 C 1.886316 -2.218310 3.931824 0
M  V30 30 C 1.749715 -3.537678 4.305066 0
M  V30 31 H -0.407921 -7.175881 4.674390 0
M  V30 32 H -0.101017 -5.513311 3.956747 0
M  V30 33 H -0.177988 -5.762937 5.732329 0
M  V30 34 H 1.793976 -7.580890 4.757307 0
M  V30 35 H 2.013460 -6.245470 5.882585 0
M  V30 36 H 3.730741 -4.875030 1.904237 0
M  V30 37 H 3.917556 -2.553296 1.328730 0
M  V30 38 H 2.865671 0.451587 3.220004 0
M  V30 39 H 3.058186 3.342846 -1.212783 0
M  V30 40 H 2.477598 2.366594 -2.606746 0
M  V30 41 H 0.850490 3.753195 -0.435212 0
M  V30 42 H 1.048379 4.229143 -2.119259 0
M  V30 43 H -0.322789 1.799395 -1.012349 0
M  V30 44 H -1.456979 4.072133 -2.517300 0
M  V30 45 H -1.598876 3.775240 -0.742998 0
M  V30 46 H -2.705178 1.929760 0.150833 0
M  V30 47 H -4.492261 0.334178 0.003618 0
M  V30 48 H -6.686869 -1.978583 -0.993839 0
M  V30 49 H -4.531708 0.818017 -4.215331 0
M  V30 50 H -2.653202 2.494708 -4.052706 0
M  V30 51 H 1.343767 -1.474460 4.535032 0
M  V30 52 H 1.154041 -3.857427 5.136445 0
M  V30 END ATOM
M  V30 BEGIN BOND
M  V30 1 1 1 2
M  V30 2 1 2 3
M  V30 3 1 3 4
M  V30 4 2 4 5
M  V30 5 1 5 6
M  V30 6 2 6 7
M  V30 7 1 7 8
M  V30 8 2 8 9
M  V30 9 1 9 10
M  V30 10 1 10 11
M  V30 11 2 11 12
M  V30 12 1 11 13
M  V30 13 1 13 14
M  V30 14 1 14 15
M  V30 15 1 15 16
M  V30 16 1 16 17
M  V30 17 1 17 18
M  V30 18 2 18 19
M  V30 19 1 19 20
M  V30 20 2 20 21
M  V30 21 1 21 22
M  V30 22 2 22 23
M  V30 23 1 22 24
M  V30 24 1 21 25
M  V30 25 2 25 26
M  V30 26 1 13 27
M  V30 27 2 27 28
M  V30 28 1 7 29
M  V30 29 2 29 30
M  V30 30 1 30 4
M  V30 31 1 27 9
M  V30 32 1 26 18
M  V30 33 1 1 31
M  V30 34 1 1 32
M  V30 35 1 1 33
M  V30 36 1 2 34
M  V30 37 1 2 35
M  V30 38 1 5 36
M  V30 39 1 6 37
M  V30 40 1 8 38
M  V30 41 1 14 39
M  V30 42 1 14 40
M  V30 43 1 15 41
M  V30 44 1 15 42
M  V30 45 1 16 43
M  V30 46 1 17 44
M  V30 47 1 17 45
M  V30 48 1 19 46
M  V30 49 1 20 47
M  V30 50 1 24 48
M  V30 51 1 25 49
M  V30 52 1 26 50
M  V30 53 1 29 51
M  V30 54 1 30 52
M  V30 END BOND
M  V30 END CTAB
M  END
>  <Dataset>  (961) 
ChEMBL_Kinases

>  <Ligand_Instance>  (961) 
nan

>  <PDB_ID>  (961) 
nan

>  <Standardized_SMILES>  (961) 
CCOc1ccc(/C=C2\SC(=S)N(CCNCc3ccc(C(=O)O)cc3)C2=O)cc1

>  <Name>  (961) 
nan

>  <Pocket>  (961) 
nan

>  <ATP_Site>  (961) 
nan

>  <Peripheral>  (961) 
nan

>  <Num_H_Atoms_ProtBoundConf>  (961) 
nan

>  <Num_Resolved_Atoms>  (961) 
nan

>  <Num_Not_Resolved_Atoms>  (961) 
nan

$$$$
CHEMBL4102903
     RDKit          3D

  0  0  0  0  0  0  0  0  0  0999 V3000
M  V30 BEGIN CTAB
M  V30 COUNTS 24 26 0 0 0
M  V30 BEGIN ATOM
M  V30 1 C 1.908398 -1.238764 3.690173 0
M  V30 2 C 1.299156 -2.428312 4.038184 0
M  V30 3 N 0.448392 -3.045512 3.167189 0
M  V30 4 C 0.205620 -2.476191 1.949671 0
M  V30 5 C 0.813896 -1.279744 1.590795 0
M  V30 6 C 0.514874 -0.720694 0.275991 0
M  V30 7 C 0.464967 -1.381650 -0.938012 0
M  V30 8 N 0.152139 -0.500467 -1.922748 0
M  V30 9 C -0.010933 0.741211 -1.404502 0
M  V30 10 C -0.325658 1.981360 -1.928917 0
M  V30 11 N -0.418952 3.063683 -1.141942 0
M  V30 12 C -0.211183 2.987279 0.183064 0
M  V30 13 C 0.105085 1.736460 0.703994 0
M  V30 14 C 0.216063 0.586276 -0.051119 0
M  V30 15 C 1.679183 -0.631010 2.449356 0
M  V30 16 H 2.601670 -0.702569 4.356717 0
M  V30 17 H 1.536760 -2.828256 5.025387 0
M  V30 18 H -0.478808 -3.008868 1.295948 0
M  V30 19 H 0.651253 -2.446114 -1.063276 0
M  V30 20 H 0.040008 -0.692903 -2.945967 0
M  V30 21 H -0.490067 2.029528 -2.993595 0
M  V30 22 H -0.280653 3.850817 0.845046 0
M  V30 23 H 0.267457 1.702225 1.773079 0
M  V30 24 H 2.163474 0.293960 2.199494 0
M  V30 END ATOM
M  V30 BEGIN BOND
M  V30 1 2 1 2
M  V30 2 1 2 3
M  V30 3 2 3 4
M  V30 4 1 4 5
M  V30 5 1 5 6
M  V30 6 2 6 7
M  V30 7 1 7 8
M  V30 8 1 8 9
M  V30 9 2 9 10
M  V30 10 1 10 11
M  V30 11 2 11 12
M  V30 12 1 12 13
M  V30 13 2 13 14
M  V30 14 2 5 15
M  V30 15 1 15 1
M  V30 16 1 14 6
M  V30 17 1 14 9
M  V30 18 1 1 16
M  V30 19 1 2 17
M  V30 20 1 4 18
M  V30 21 1 7 19
M  V30 22 1 8 20
M  V30 23 1 10 21
M  V30 24 1 12 22
M  V30 25 1 13 23
M  V30 26 1 15 24
M  V30 END BOND
M  V30 END CTAB
M  END
>  <Dataset>  (962) 
ChEMBL_Kinases

>  <Ligand_Instance>  (962) 
nan

>  <PDB_ID>  (962) 
nan

>  <Standardized_SMILES>  (962) 
c1cncc(-c2c[nH]c3cnccc23)c1

>  <Name>  (962) 
nan

>  <Pocket>  (962) 
nan

>  <ATP_Site>  (962) 
nan

>  <Peripheral>  (962) 
nan

>  <Num_H_Atoms_ProtBoundConf>  (962) 
nan

>  <Num_Resolved_Atoms>  (962) 
nan

>  <Num_Not_Resolved_Atoms>  (962) 
nan

$$$$
CHEMBL4102902
     RDKit          3D

  0  0  0  0  0  0  0  0  0  0999 V3000
M  V30 BEGIN CTAB
M  V30 COUNTS 48 52 0 0 0
M  V30 BEGIN ATOM
M  V30 1 O 3.589622 -0.551855 4.074851 0
M  V30 2 C 2.855471 -0.742176 3.076981 0
M  V30 3 C 2.223039 0.271303 2.233836 0
M  V30 4 C 2.294703 1.577876 2.346334 0
M  V30 5 C 1.669603 2.600293 1.516780 0
M  V30 6 C 2.437633 3.699137 1.101394 0
M  V30 7 N 1.686003 4.527633 0.357228 0
M  V30 8 C 0.441208 4.032899 0.254505 0
M  V30 9 N -0.717444 4.398929 -0.334576 0
M  V30 10 C -1.827175 3.620742 -0.214874 0
M  V30 11 C -1.841673 2.444541 0.493347 0
M  V30 12 C -0.668764 2.048525 1.104449 0
M  V30 13 C 0.428652 2.843025 0.970171 0
M  V30 14 O 1.509917 -0.366320 1.258389 0
M  V30 15 C 1.613815 -1.744925 1.378964 0
M  V30 16 C 2.430848 -2.017468 2.482672 0
M  V30 17 C 2.756937 -3.298518 2.898679 0
M  V30 18 C 2.241508 -4.357146 2.178321 0
M  V30 19 C 1.428594 -4.085291 1.081841 0
M  V30 20 O 0.973317 -5.229666 0.441525 0
M  V30 21 C 1.114575 -2.818694 0.681538 0
M  V30 22 C 0.228349 -2.741856 -0.468232 0
M  V30 23 N -1.158639 -2.581294 -0.229617 0
M  V30 24 C -1.507144 -1.449538 0.581469 0
M  V30 25 C -2.996288 -1.425008 0.916868 0
M  V30 26 N -3.682653 -2.246352 -0.030448 0
M  V30 27 C -3.193084 -1.961890 -1.361415 0
M  V30 28 C -1.773797 -2.369057 -1.555496 0
M  V30 29 H 2.917697 1.915545 3.193084 0
M  V30 30 H 3.492014 3.931207 1.302804 0
M  V30 31 H 1.988617 5.435580 -0.093917 0
M  V30 32 H -2.696651 3.984810 -0.712078 0
M  V30 33 H -2.748610 1.889355 0.542963 0
M  V30 34 H -0.683329 1.135738 1.662268 0
M  V30 35 H 3.384432 -3.472178 3.743269 0
M  V30 36 H 2.507808 -5.361117 2.520364 0
M  V30 37 H 1.421362 -5.550435 -0.423253 0
M  V30 38 H 0.363873 -3.600451 -1.184521 0
M  V30 39 H 0.554159 -1.819803 -1.047977 0
M  V30 40 H -0.911402 -1.425787 1.532174 0
M  V30 41 H -1.280222 -0.532934 0.012016 0
M  V30 42 H -3.383458 -0.409837 0.990407 0
M  V30 43 H -3.173176 -1.903687 1.924579 0
M  V30 44 H -3.570918 -3.274557 0.174519 0
M  V30 45 H -3.289219 -0.853382 -1.516824 0
M  V30 46 H -3.846988 -2.519954 -2.068596 0
M  V30 47 H -1.222444 -1.543259 -2.091903 0
M  V30 48 H -1.636652 -3.269915 -2.200135 0
M  V30 END ATOM
M  V30 BEGIN BOND
M  V30 1 2 1 2
M  V30 2 1 2 3
M  V30 3 2 3 4
M  V30 4 1 4 5
M  V30 5 2 5 6
M  V30 6 1 6 7
M  V30 7 1 7 8
M  V30 8 2 8 9
M  V30 9 1 9 10
M  V30 10 2 10 11
M  V30 11 1 11 12
M  V30 12 2 12 13
M  V30 13 1 3 14
M  V30 14 1 14 15
M  V30 15 2 15 16
M  V30 16 1 16 17
M  V30 17 2 17 18
M  V30 18 1 18 19
M  V30 19 1 19 20
M  V30 20 2 19 21
M  V30 21 1 21 22
M  V30 22 1 22 23
M  V30 23 1 23 24
M  V30 24 1 24 25
M  V30 25 1 25 26
M  V30 26 1 26 27
M  V30 27 1 27 28
M  V30 28 1 16 2
M  V30 29 1 28 23
M  V30 30 1 13 5
M  V30 31 1 21 15
M  V30 32 1 13 8
M  V30 33 1 4 29
M  V30 34 1 6 30
M  V30 35 1 7 31
M  V30 36 1 10 32
M  V30 37 1 11 33
M  V30 38 1 12 34
M  V30 39 1 17 35
M  V30 40 1 18 36
M  V30 41 1 20 37
M  V30 42 1 22 38
M  V30 43 1 22 39
M  V30 44 1 24 40
M  V30 45 1 24 41
M  V30 46 1 25 42
M  V30 47 1 25 43
M  V30 48 1 26 44
M  V30 49 1 27 45
M  V30 50 1 27 46
M  V30 51 1 28 47
M  V30 52 1 28 48
M  V30 END BOND
M  V30 END CTAB
M  END
>  <Dataset>  (963) 
ChEMBL_Kinases

>  <Ligand_Instance>  (963) 
nan

>  <PDB_ID>  (963) 
nan

>  <Standardized_SMILES>  (963) 
O=C1/C(=C/c2c[nH]c3ncccc23)Oc2c1ccc(O)c2CN1CCNCC1

>  <Name>  (963) 
nan

>  <Pocket>  (963) 
nan

>  <ATP_Site>  (963) 
nan

>  <Peripheral>  (963) 
nan

>  <Num_H_Atoms_ProtBoundConf>  (963) 
nan

>  <Num_Resolved_Atoms>  (963) 
nan

>  <Num_Not_Resolved_Atoms>  (963) 
nan

$$$$
CHEMBL3669122
     RDKit          3D

  0  0  0  0  0  0  0  0  0  0999 V3000
M  V30 BEGIN CTAB
M  V30 COUNTS 32 34 0 0 0
M  V30 BEGIN ATOM
M  V30 1 N -1.384941 -4.253921 3.301920 0
M  V30 2 C -0.035634 -4.836343 3.248082 0
M  V30 3 C 0.315414 -4.838412 1.753493 0
M  V30 4 N 0.281018 -3.488651 1.227520 0
M  V30 5 C 1.285453 -2.522401 1.125546 0
M  V30 6 O 2.460643 -2.783066 1.525772 0
M  V30 7 C 0.926278 -1.254310 0.557795 0
M  V30 8 C 1.665913 -0.168633 0.464584 0
M  V30 9 C 1.072976 1.023421 -0.168105 0
M  V30 10 C 0.387860 0.763720 -1.326255 0
M  V30 11 C -0.214770 1.861191 -1.959228 0
M  V30 12 C -0.105725 3.147338 -1.412595 0
M  V30 13 C 0.612638 3.330748 -0.224030 0
M  V30 14 C 1.215594 2.255450 0.416719 0
M  V30 15 O 0.502105 4.716727 0.005045 0
M  V30 16 C -0.632858 5.187502 -0.715154 0
M  V30 17 O -0.627967 4.368142 -1.881870 0
M  V30 18 S -0.788106 -1.452385 0.010863 0
M  V30 19 C -0.992577 -3.073847 0.742204 0
M  V30 20 S -2.529148 -3.598487 0.647403 0
M  V30 21 H -1.355186 -3.227828 3.411902 0
M  V30 22 H -1.942801 -4.690298 4.058678 0
M  V30 23 H 0.712981 -4.187987 3.757806 0
M  V30 24 H -0.014124 -5.859504 3.654640 0
M  V30 25 H -0.358640 -5.542786 1.272708 0
M  V30 26 H 1.346384 -5.277315 1.616666 0
M  V30 27 H 2.690609 -0.215743 0.865905 0
M  V30 28 H 0.236628 -0.162996 -1.850442 0
M  V30 29 H -0.774901 1.739105 -2.883956 0
M  V30 30 H 1.760601 2.430915 1.330016 0
M  V30 31 H -1.579255 5.049682 -0.146303 0
M  V30 32 H -0.438575 6.216674 -1.019954 0
M  V30 END ATOM
M  V30 BEGIN BOND
M  V30 1 1 1 2
M  V30 2 1 2 3
M  V30 3 1 3 4
M  V30 4 1 4 5
M  V30 5 2 5 6
M  V30 6 1 5 7
M  V30 7 2 7 8
M  V30 8 1 8 9
M  V30 9 2 9 10
M  V30 10 1 10 11
M  V30 11 2 11 12
M  V30 12 1 12 13
M  V30 13 2 13 14
M  V30 14 1 13 15
M  V30 15 1 15 16
M  V30 16 1 16 17
M  V30 17 1 7 18
M  V30 18 1 18 19
M  V30 19 2 19 20
M  V30 20 1 19 4
M  V30 21 1 14 9
M  V30 22 1 17 12
M  V30 23 1 1 21
M  V30 24 1 1 22
M  V30 25 1 2 23
M  V30 26 1 2 24
M  V30 27 1 3 25
M  V30 28 1 3 26
M  V30 29 1 8 27
M  V30 30 1 10 28
M  V30 31 1 11 29
M  V30 32 1 14 30
M  V30 33 1 16 31
M  V30 34 1 16 32
M  V30 END BOND
M  V30 END CTAB
M  END
>  <Dataset>  (964) 
ChEMBL_Kinases

>  <Ligand_Instance>  (964) 
nan

>  <PDB_ID>  (964) 
nan

>  <Standardized_SMILES>  (964) 
NCCN1C(=O)/C(=C/c2ccc3c(c2)OCO3)SC1=S

>  <Name>  (964) 
nan

>  <Pocket>  (964) 
nan

>  <ATP_Site>  (964) 
nan

>  <Peripheral>  (964) 
nan

>  <Num_H_Atoms_ProtBoundConf>  (964) 
nan

>  <Num_Resolved_Atoms>  (964) 
nan

>  <Num_Not_Resolved_Atoms>  (964) 
nan

$$$$
CHEMBL410261
     RDKit          3D

  0  0  0  0  0  0  0  0  0  0999 V3000
M  V30 BEGIN CTAB
M  V30 COUNTS 58 62 0 0 0
M  V30 BEGIN ATOM
M  V30 1 C 5.771253 -3.607505 4.036057 0
M  V30 2 N 5.217183 -2.311396 3.673254 0
M  V30 3 C 5.325958 -1.456973 4.833532 0
M  V30 4 C 6.027525 -1.790839 2.610224 0
M  V30 5 C 5.558918 -0.426985 2.126837 0
M  V30 6 C 4.146166 -0.477140 1.606407 0
M  V30 7 O 3.663268 0.766997 1.144741 0
M  V30 8 C 2.366453 0.787898 0.651979 0
M  V30 9 C 1.578817 -0.350642 0.611733 0
M  V30 10 C 0.284900 -0.296823 0.112659 0
M  V30 11 C -0.278765 0.866932 -0.361333 0
M  V30 12 C 0.531050 1.957761 -0.302006 0
M  V30 13 C 1.821125 1.988520 0.176593 0
M  V30 14 O 2.601643 3.131241 0.213214 0
M  V30 15 C -1.532797 0.507871 -0.752498 0
M  V30 16 C -2.529269 1.259327 -1.296605 0
M  V30 17 C -3.729395 0.682562 -1.618492 0
M  V30 18 C -3.935811 -0.672444 -1.391285 0
M  V30 19 C -5.195772 -1.331545 -1.717167 0
M  V30 20 C -5.547034 -1.937257 -2.905479 0
M  V30 21 C -6.799949 -2.506489 -3.005326 0
M  V30 22 C -7.720116 -2.502220 -1.980236 0
M  V30 23 C -7.380269 -1.896994 -0.780607 0
M  V30 24 C -6.125768 -1.331826 -0.693080 0
M  V30 25 Cl -5.793956 -0.586994 0.878507 0
M  V30 26 C -2.926118 -1.431873 -0.840407 0
M  V30 27 C -1.725552 -0.834520 -0.522987 0
M  V30 28 N -0.597011 -1.335909 0.014558 0
M  V30 29 C -0.402839 -2.719071 0.398865 0
M  V30 30 C -4.686594 1.621602 -2.190025 0
M  V30 31 O -5.860138 1.389755 -2.579520 0
M  V30 32 N -3.957966 2.866620 -2.195946 0
M  V30 33 C -2.679910 2.642318 -1.664482 0
M  V30 34 O -1.937451 3.630369 -1.607382 0
M  V30 35 H 6.712256 -3.423220 4.594105 0
M  V30 36 H 5.999572 -4.203718 3.131073 0
M  V30 37 H 5.104278 -4.207445 4.664647 0
M  V30 38 H 6.380760 -1.263709 5.075133 0
M  V30 39 H 4.879456 -2.011472 5.707262 0
M  V30 40 H 4.737493 -0.512735 4.720093 0
M  V30 41 H 6.085121 -2.519996 1.766330 0
M  V30 42 H 7.051167 -1.648975 3.012149 0
M  V30 43 H 5.567296 0.244255 3.010151 0
M  V30 44 H 6.277632 -0.054526 1.399799 0
M  V30 45 H 4.138441 -1.150639 0.704289 0
M  V30 46 H 3.484554 -0.981127 2.329895 0
M  V30 47 H 1.987912 -1.282622 0.975400 0
M  V30 48 H 0.192143 2.902723 -0.642184 0
M  V30 49 H 2.749495 3.612898 -0.665943 0
M  V30 50 H -4.793229 -1.910390 -3.666266 0
M  V30 51 H -7.052717 -2.978080 -3.953352 0
M  V30 52 H -8.693666 -2.966839 -2.115823 0
M  V30 53 H -8.101876 -1.902250 0.000911 0
M  V30 54 H -3.047905 -2.507214 -0.644277 0
M  V30 55 H -0.989029 -3.350684 -0.304664 0
M  V30 56 H 0.680156 -2.993544 0.251267 0
M  V30 57 H -0.708877 -2.952156 1.427295 0
M  V30 58 H -4.447603 3.729284 -2.574326 0
M  V30 END ATOM
M  V30 BEGIN BOND
M  V30 1 1 1 2
M  V30 2 1 2 3
M  V30 3 1 2 4
M  V30 4 1 4 5
M  V30 5 1 5 6
M  V30 6 1 6 7
M  V30 7 1 7 8
M  V30 8 2 8 9
M  V30 9 1 9 10
M  V30 10 2 10 11
M  V30 11 1 11 12
M  V30 12 2 12 13
M  V30 13 1 13 14
M  V30 14 1 11 15
M  V30 15 2 15 16
M  V30 16 1 16 17
M  V30 17 2 17 18
M  V30 18 1 18 19
M  V30 19 2 19 20
M  V30 20 1 20 21
M  V30 21 2 21 22
M  V30 22 1 22 23
M  V30 23 2 23 24
M  V30 24 1 24 25
M  V30 25 1 18 26
M  V30 26 2 26 27
M  V30 27 1 27 28
M  V30 28 1 28 29
M  V30 29 1 17 30
M  V30 30 2 30 31
M  V30 31 1 30 32
M  V30 32 1 32 33
M  V30 33 2 33 34
M  V30 34 1 13 8
M  V30 35 1 27 15
M  V30 36 1 28 10
M  V30 37 1 33 16
M  V30 38 1 24 19
M  V30 39 1 1 35
M  V30 40 1 1 36
M  V30 41 1 1 37
M  V30 42 1 3 38
M  V30 43 1 3 39
M  V30 44 1 3 40
M  V30 45 1 4 41
M  V30 46 1 4 42
M  V30 47 1 5 43
M  V30 48 1 5 44
M  V30 49 1 6 45
M  V30 50 1 6 46
M  V30 51 1 9 47
M  V30 52 1 12 48
M  V30 53 1 14 49
M  V30 54 1 20 50
M  V30 55 1 21 51
M  V30 56 1 22 52
M  V30 57 1 23 53
M  V30 58 1 26 54
M  V30 59 1 29 55
M  V30 60 1 29 56
M  V30 61 1 29 57
M  V30 62 1 32 58
M  V30 END BOND
M  V30 END CTAB
M  END
>  <Dataset>  (965) 
ChEMBL_Kinases

>  <Ligand_Instance>  (965) 
nan

>  <PDB_ID>  (965) 
nan

>  <Standardized_SMILES>  (965) 
CN(C)CCCOc1cc2c(cc1O)c1c3c(c(-c4ccccc4Cl)cc1n2C)C(=O)NC3=O

>  <Name>  (965) 
nan

>  <Pocket>  (965) 
nan

>  <ATP_Site>  (965) 
nan

>  <Peripheral>  (965) 
nan

>  <Num_H_Atoms_ProtBoundConf>  (965) 
nan

>  <Num_Resolved_Atoms>  (965) 
nan

>  <Num_Not_Resolved_Atoms>  (965) 
nan

$$$$
CHEMBL3669120
     RDKit          3D

  0  0  0  0  0  0  0  0  0  0999 V3000
M  V30 BEGIN CTAB
M  V30 COUNTS 36 37 0 0 0
M  V30 BEGIN ATOM
M  V30 1 C -1.797077 -5.380251 0.846115 0
M  V30 2 C -0.492314 -6.043560 1.245318 0
M  V30 3 O 0.619664 -5.507917 0.537132 0
M  V30 4 C 0.978843 -4.175329 0.603985 0
M  V30 5 C 0.383328 -3.163821 1.318992 0
M  V30 6 C 0.802180 -1.846981 1.331165 0
M  V30 7 C 1.923350 -1.523126 0.551896 0
M  V30 8 C 2.332580 -0.122514 0.543330 0
M  V30 9 C 1.415681 0.801325 0.412851 0
M  V30 10 S -0.371519 0.515710 0.233927 0
M  V30 11 C -0.613149 1.998409 -0.784032 0
M  V30 12 S -1.733214 2.129811 -1.932981 0
M  V30 13 N 0.397282 2.905184 -0.290824 0
M  V30 14 C 0.240443 4.338495 -0.473351 0
M  V30 15 C -0.518506 4.967818 0.706419 0
M  V30 16 N -1.829741 4.329868 0.784111 0
M  V30 17 C 1.496760 2.250685 0.358485 0
M  V30 18 O 2.477961 2.905426 0.853071 0
M  V30 19 C 2.551680 -2.525457 -0.183528 0
M  V30 20 C 2.078948 -3.842521 -0.154997 0
M  V30 21 H -2.289656 -4.966483 1.733076 0
M  V30 22 H -2.451986 -6.136244 0.361262 0
M  V30 23 H -1.661746 -4.556693 0.114870 0
M  V30 24 H -0.327216 -5.848976 2.323523 0
M  V30 25 H -0.525339 -7.135457 1.050092 0
M  V30 26 H -0.473943 -3.459706 1.905708 0
M  V30 27 H 0.229246 -1.181799 1.951554 0
M  V30 28 H 3.367673 0.249798 0.633329 0
M  V30 29 H -0.335151 4.544170 -1.373662 0
M  V30 30 H 1.227870 4.871356 -0.460138 0
M  V30 31 H 0.039969 4.864847 1.657213 0
M  V30 32 H -0.663542 6.027716 0.500649 0
M  V30 33 H -1.785320 3.404262 1.228490 0
M  V30 34 H -2.563902 4.924930 1.205627 0
M  V30 35 H 3.409769 -2.216021 -0.760578 0
M  V30 36 H 2.673764 -4.523824 -0.783115 0
M  V30 END ATOM
M  V30 BEGIN BOND
M  V30 1 1 1 2
M  V30 2 1 2 3
M  V30 3 1 3 4
M  V30 4 2 4 5
M  V30 5 1 5 6
M  V30 6 2 6 7
M  V30 7 1 7 8
M  V30 8 2 8 9
M  V30 9 1 9 10
M  V30 10 1 10 11
M  V30 11 2 11 12
M  V30 12 1 11 13
M  V30 13 1 13 14
M  V30 14 1 14 15
M  V30 15 1 15 16
M  V30 16 1 13 17
M  V30 17 2 17 18
M  V30 18 1 7 19
M  V30 19 2 19 20
M  V30 20 1 20 4
M  V30 21 1 17 9
M  V30 22 1 1 21
M  V30 23 1 1 22
M  V30 24 1 1 23
M  V30 25 1 2 24
M  V30 26 1 2 25
M  V30 27 1 5 26
M  V30 28 1 6 27
M  V30 29 1 8 28
M  V30 30 1 14 29
M  V30 31 1 14 30
M  V30 32 1 15 31
M  V30 33 1 15 32
M  V30 34 1 16 33
M  V30 35 1 16 34
M  V30 36 1 19 35
M  V30 37 1 20 36
M  V30 END BOND
M  V30 END CTAB
M  END
>  <Dataset>  (966) 
ChEMBL_Kinases

>  <Ligand_Instance>  (966) 
nan

>  <PDB_ID>  (966) 
nan

>  <Standardized_SMILES>  (966) 
CCOc1ccc(/C=C2\SC(=S)N(CCN)C2=O)cc1

>  <Name>  (966) 
nan

>  <Pocket>  (966) 
nan

>  <ATP_Site>  (966) 
nan

>  <Peripheral>  (966) 
nan

>  <Num_H_Atoms_ProtBoundConf>  (966) 
nan

>  <Num_Resolved_Atoms>  (966) 
nan

>  <Num_Not_Resolved_Atoms>  (966) 
nan

$$$$
CHEMBL3792428
     RDKit          3D

  0  0  0  0  0  0  0  0  0  0999 V3000
M  V30 BEGIN CTAB
M  V30 COUNTS 47 50 0 0 0
M  V30 BEGIN ATOM
M  V30 1 N -0.952914 -4.037987 1.412614 0
M  V30 2 C 0.441853 -3.768563 1.489418 0
M  V30 3 C 0.922036 -2.997079 0.461421 0
M  V30 4 C 2.255126 -2.649798 0.396155 0
M  V30 5 C 2.964629 -1.843178 -0.578810 0
M  V30 6 C 4.096160 -2.469308 -1.102291 0
M  V30 7 C 4.917513 -1.917775 -2.054448 0
M  V30 8 N 4.551622 -0.677737 -2.475310 0
M  V30 9 C 3.466748 -0.066089 -1.979314 0
M  V30 10 C 2.627555 -0.589730 -1.028576 0
M  V30 11 N 1.484518 0.027169 -0.477526 0
M  V30 12 C 0.912652 1.280668 -0.782090 0
M  V30 13 O 1.432831 2.005177 -1.650735 0
M  V30 14 C -0.280773 1.825518 -0.145236 0
M  V30 15 N -0.890351 1.089529 0.803284 0
M  V30 16 C -2.004643 1.521618 1.445006 0
M  V30 17 C -2.657479 0.717398 2.470679 0
M  V30 18 C -3.777634 1.076060 3.162282 0
M  V30 19 C -4.371046 0.289332 4.128874 0
M  V30 20 C -3.814021 -0.938124 4.429641 0
M  V30 21 C -2.665172 -1.335502 3.738463 0
M  V30 22 C -2.108536 -0.510527 2.778309 0
M  V30 23 F -0.997837 -0.994150 2.171165 0
M  V30 24 C -2.473067 2.762528 1.063901 0
M  V30 25 C -1.892688 3.564473 0.098624 0
M  V30 26 C -0.743923 3.066050 -0.530394 0
M  V30 27 N -0.105307 3.854042 -1.534495 0
M  V30 28 C 3.048986 -3.140586 1.440087 0
M  V30 29 C 2.572862 -3.915785 2.474883 0
M  V30 30 N 1.258439 -4.216227 2.474862 0
M  V30 31 H -1.827406 -3.465842 1.455759 0
M  V30 32 H -1.302223 -5.020141 1.280695 0
M  V30 33 H 0.324789 -2.623365 -0.348462 0
M  V30 34 H 4.412670 -3.457224 -0.786466 0
M  V30 35 H 5.790125 -2.415425 -2.449724 0
M  V30 36 H 3.272248 0.909643 -2.382405 0
M  V30 37 H 0.934902 -0.443679 0.271455 0
M  V30 38 H -4.230883 2.033489 2.942954 0
M  V30 39 H -5.262679 0.664896 4.624063 0
M  V30 40 H -4.307530 -1.534152 5.197712 0
M  V30 41 H -2.259872 -2.308914 4.006620 0
M  V30 42 H -3.342892 3.182345 1.514113 0
M  V30 43 H -2.293748 4.533259 -0.170125 0
M  V30 44 H -0.598221 3.684106 -2.449347 0
M  V30 45 H 0.713266 4.504728 -1.435992 0
M  V30 46 H 4.125352 -2.926707 1.490024 0
M  V30 47 H 3.224046 -4.272704 3.260278 0
M  V30 END ATOM
M  V30 BEGIN BOND
M  V30 1 1 1 2
M  V30 2 2 2 3
M  V30 3 1 3 4
M  V30 4 1 4 5
M  V30 5 2 5 6
M  V30 6 1 6 7
M  V30 7 2 7 8
M  V30 8 1 8 9
M  V30 9 2 9 10
M  V30 10 1 10 11
M  V30 11 1 11 12
M  V30 12 2 12 13
M  V30 13 1 12 14
M  V30 14 2 14 15
M  V30 15 1 15 16
M  V30 16 1 16 17
M  V30 17 2 17 18
M  V30 18 1 18 19
M  V30 19 2 19 20
M  V30 20 1 20 21
M  V30 21 2 21 22
M  V30 22 1 22 23
M  V30 23 2 16 24
M  V30 24 1 24 25
M  V30 25 2 25 26
M  V30 26 1 26 27
M  V30 27 2 4 28
M  V30 28 1 28 29
M  V30 29 2 29 30
M  V30 30 1 30 2
M  V30 31 1 10 5
M  V30 32 1 26 14
M  V30 33 1 22 17
M  V30 34 1 1 31
M  V30 35 1 1 32
M  V30 36 1 3 33
M  V30 37 1 6 34
M  V30 38 1 7 35
M  V30 39 1 9 36
M  V30 40 1 11 37
M  V30 41 1 18 38
M  V30 42 1 19 39
M  V30 43 1 20 40
M  V30 44 1 21 41
M  V30 45 1 24 42
M  V30 46 1 25 43
M  V30 47 1 27 44
M  V30 48 1 27 45
M  V30 49 1 28 46
M  V30 50 1 29 47
M  V30 END BOND
M  V30 END CTAB
M  END
>  <Dataset>  (967) 
ChEMBL_Kinases

>  <Ligand_Instance>  (967) 
nan

>  <PDB_ID>  (967) 
nan

>  <Standardized_SMILES>  (967) 
Nc1cc(-c2ccncc2NC(=O)c2nc(-c3ccccc3F)ccc2N)ccn1

>  <Name>  (967) 
nan

>  <Pocket>  (967) 
nan

>  <ATP_Site>  (967) 
nan

>  <Peripheral>  (967) 
nan

>  <Num_H_Atoms_ProtBoundConf>  (967) 
nan

>  <Num_Resolved_Atoms>  (967) 
nan

>  <Num_Not_Resolved_Atoms>  (967) 
nan

$$$$
CHEMBL4090269
     RDKit          3D

  0  0  0  0  0  0  0  0  0  0999 V3000
M  V30 BEGIN CTAB
M  V30 COUNTS 48 51 0 0 0
M  V30 BEGIN ATOM
M  V30 1 C 0.806671 -4.611419 1.754657 0
M  V30 2 O 1.733854 -4.578836 2.795872 0
M  V30 3 C 2.821087 -3.796038 2.487228 0
M  V30 4 C 2.378421 -2.361723 2.213693 0
M  V30 5 C 3.470591 -1.426120 1.871713 0
M  V30 6 C 2.393584 -1.885555 0.832822 0
M  V30 7 C 1.613474 -0.764268 0.304350 0
M  V30 8 C 2.275830 0.087420 -0.599094 0
M  V30 9 Cl 3.939503 0.035372 -1.210491 0
M  V30 10 C 1.413877 1.092340 -1.023602 0
M  V30 11 C 1.537784 2.165510 -1.883597 0
M  V30 12 Cl 3.055651 2.464091 -2.702845 0
M  V30 13 C 0.494139 3.030964 -2.130129 0
M  V30 14 C -0.673254 2.742955 -1.456209 0
M  V30 15 C -1.826469 3.634218 -1.674101 0
M  V30 16 N -3.064747 3.401720 -1.006633 0
M  V30 17 O -1.762272 4.622191 -2.448436 0
M  V30 18 N -0.765601 1.702100 -0.633536 0
M  V30 19 C 0.243072 0.847409 -0.381378 0
M  V30 20 N 0.384444 -0.247212 0.391609 0
M  V30 21 C -0.679015 -0.757944 1.173716 0
M  V30 22 C -1.788766 -1.407361 0.377742 0
M  V30 23 C -3.141818 -1.221695 0.996472 0
M  V30 24 C -2.960169 -1.213651 2.512837 0
M  V30 25 N -2.204252 -0.059169 2.955263 0
M  V30 26 C -1.355943 0.431825 1.883023 0
M  V30 27 H -0.047765 -5.248908 2.042171 0
M  V30 28 H 0.528092 -3.591505 1.490285 0
M  V30 29 H 1.289113 -5.043205 0.834851 0
M  V30 30 H 3.384841 -4.178693 1.592534 0
M  V30 31 H 3.546565 -3.830205 3.315964 0
M  V30 32 H 1.577435 -2.038505 2.892697 0
M  V30 33 H 4.482156 -1.808023 1.778192 0
M  V30 34 H 3.374572 -0.408471 2.278250 0
M  V30 35 H 2.873076 -2.497177 0.018914 0
M  V30 36 H 0.548410 3.872849 -2.787404 0
M  V30 37 H -3.361854 3.422431 -0.001983 0
M  V30 38 H -3.850448 3.159269 -1.639666 0
M  V30 39 H -0.426372 -1.449541 1.974032 0
M  V30 40 H -1.745620 -1.113022 -0.702474 0
M  V30 41 H -1.574063 -2.496246 0.369367 0
M  V30 42 H -3.752420 -2.140845 0.789042 0
M  V30 43 H -3.675851 -0.339149 0.644830 0
M  V30 44 H -3.954021 -1.175138 3.021589 0
M  V30 45 H -2.434372 -2.119191 2.857290 0
M  V30 46 H -1.702582 -0.197827 3.832845 0
M  V30 47 H -0.634311 1.146455 2.287169 0
M  V30 48 H -2.040233 0.980309 1.205283 0
M  V30 END ATOM
M  V30 BEGIN BOND
M  V30 1 1 1 2
M  V30 2 1 2 3
M  V30 3 1 3 4
M  V30 4 1 4 5
M  V30 5 1 5 6
M  V30 6 1 6 7
M  V30 7 2 7 8
M  V30 8 1 8 9
M  V30 9 1 8 10
M  V30 10 2 10 11
M  V30 11 1 11 12
M  V30 12 1 11 13
M  V30 13 2 13 14
M  V30 14 1 14 15
M  V30 15 1 15 16
M  V30 16 2 15 17
M  V30 17 1 14 18
M  V30 18 2 18 19
M  V30 19 1 19 20
M  V30 20 1 20 21
M  V30 21 1 21 22
M  V30 22 1 22 23
M  V30 23 1 23 24
M  V30 24 1 24 25
M  V30 25 1 25 26
M  V30 26 1 6 4
M  V30 27 1 20 7
M  V30 28 1 26 21
M  V30 29 1 19 10
M  V30 30 1 1 27
M  V30 31 1 1 28
M  V30 32 1 1 29
M  V30 33 1 3 30
M  V30 34 1 3 31
M  V30 35 1 4 32
M  V30 36 1 5 33
M  V30 37 1 5 34
M  V30 38 1 6 35
M  V30 39 1 13 36
M  V30 40 1 16 37
M  V30 41 1 16 38
M  V30 42 1 21 39
M  V30 43 1 22 40
M  V30 44 1 22 41
M  V30 45 1 23 42
M  V30 46 1 23 43
M  V30 47 1 24 44
M  V30 48 1 24 45
M  V30 49 1 25 46
M  V30 50 1 26 47
M  V30 51 1 26 48
M  V30 END BOND
M  V30 END CTAB
M  END
>  <Dataset>  (968) 
ChEMBL_Kinases

>  <Ligand_Instance>  (968) 
nan

>  <PDB_ID>  (968) 
nan

>  <Standardized_SMILES>  (968) 
COCC1CC1c1c(Cl)c2c(Cl)cc(C(N)=O)nc2n1C1CCCNC1

>  <Name>  (968) 
nan

>  <Pocket>  (968) 
nan

>  <ATP_Site>  (968) 
nan

>  <Peripheral>  (968) 
nan

>  <Num_H_Atoms_ProtBoundConf>  (968) 
nan

>  <Num_Resolved_Atoms>  (968) 
nan

>  <Num_Not_Resolved_Atoms>  (968) 
nan

$$$$
CHEMBL3805330
     RDKit          3D

  0  0  0  0  0  0  0  0  0  0999 V3000
M  V30 BEGIN CTAB
M  V30 COUNTS 71 75 0 0 0
M  V30 BEGIN ATOM
M  V30 1 O 2.427587 -0.788296 2.820338 0
M  V30 2 C 3.526600 -1.410280 3.040552 0
M  V30 3 C 4.946216 -1.047063 2.670526 0
M  V30 4 N 4.810331 0.226718 1.958890 0
M  V30 5 C 4.092228 0.268721 0.748321 0
M  V30 6 C 3.521663 -0.844317 0.166302 0
M  V30 7 C 2.805824 -0.817115 -1.007275 0
M  V30 8 C 2.623175 0.380972 -1.678403 0
M  V30 9 C 1.854901 0.357411 -2.912913 0
M  V30 10 C 1.140209 1.483740 -3.203815 0
M  V30 11 C 0.379653 1.535696 -4.364029 0
M  V30 12 C 0.373233 0.416990 -5.204001 0
M  V30 13 N -0.426764 0.499612 -6.401157 0
M  V30 14 C -1.763000 0.044501 -6.207709 0
M  V30 15 O -2.074712 -0.360962 -5.057458 0
M  V30 16 C -2.826787 0.006146 -7.250146 0
M  V30 17 C -3.718014 -1.244311 -7.190405 0
M  V30 18 C -4.222849 0.135903 -6.806375 0
M  V30 19 N 1.090915 -0.677738 -4.885066 0
M  V30 20 C 1.828600 -0.728954 -3.760417 0
M  V30 21 C 3.176748 1.519602 -1.133305 0
M  V30 22 C 3.895773 1.446221 0.060247 0
M  V30 23 N 3.193059 -2.615621 3.754848 0
M  V30 24 C 1.756793 -2.565119 3.890490 0
M  V30 25 C 1.128357 -3.166012 2.828123 0
M  V30 26 C -0.256846 -3.192792 2.815172 0
M  V30 27 C -0.979878 -2.616191 3.868244 0
M  V30 28 C -2.483823 -2.624228 3.880220 0
M  V30 29 N -3.033209 -1.361088 3.537235 0
M  V30 30 C -4.441609 -1.258538 3.514947 0
M  V30 31 C -4.978717 0.127659 3.414497 0
M  V30 32 N -4.094458 1.066305 2.799615 0
M  V30 33 C -3.089048 0.497504 1.938670 0
M  V30 34 C -2.314024 -0.608819 2.569951 0
M  V30 35 C -0.317600 -2.008014 4.943538 0
M  V30 36 C -1.072603 -1.406640 6.043907 0
M  V30 37 F -1.894266 -2.324419 6.714098 0
M  V30 38 F -1.789542 -0.279302 5.707903 0
M  V30 39 F -0.179377 -0.983359 7.011325 0
M  V30 40 C 1.078562 -1.988949 4.942301 0
M  V30 41 H 5.532395 -0.838226 3.587815 0
M  V30 42 H 5.414503 -1.830289 2.076829 0
M  V30 43 H 5.229903 1.110680 2.319588 0
M  V30 44 H 3.618788 -1.822840 0.615006 0
M  V30 45 H 2.371775 -1.723577 -1.430325 0
M  V30 46 H 1.147916 2.344737 -2.552761 0
M  V30 47 H -0.180848 2.458646 -4.562216 0
M  V30 48 H -0.254153 0.821682 -7.399763 0
M  V30 49 H -2.548217 0.366067 -8.265780 0
M  V30 50 H -4.017281 -1.699054 -8.147470 0
M  V30 51 H -3.526052 -1.967655 -6.359971 0
M  V30 52 H -5.018926 0.499337 -7.487408 0
M  V30 53 H -4.439020 0.337746 -5.738949 0
M  V30 54 H 2.406779 -1.581119 -3.481360 0
M  V30 55 H 3.039000 2.470737 -1.655717 0
M  V30 56 H 4.317469 2.370546 0.457726 0
M  V30 57 H 3.977902 -3.272027 4.033593 0
M  V30 58 H 1.608468 -3.631870 1.979582 0
M  V30 59 H -0.815892 -3.660516 1.990147 0
M  V30 60 H -2.778842 -3.329855 3.073008 0
M  V30 61 H -2.906601 -3.058715 4.794545 0
M  V30 62 H -4.850842 -1.839005 4.358580 0
M  V30 63 H -4.794554 -1.797006 2.596434 0
M  V30 64 H -5.966876 0.172187 2.872456 0
M  V30 65 H -5.211873 0.495889 4.434707 0
M  V30 66 H -3.749094 1.830739 3.409653 0
M  V30 67 H -2.389486 1.344824 1.694930 0
M  V30 68 H -3.571170 0.240558 0.973417 0
M  V30 69 H -1.979874 -1.298478 1.764350 0
M  V30 70 H -1.385187 -0.197335 3.011130 0
M  V30 71 H 1.663861 -1.541811 5.730040 0
M  V30 END ATOM
M  V30 BEGIN BOND
M  V30 1 2 1 2
M  V30 2 1 2 3
M  V30 3 1 3 4
M  V30 4 1 4 5
M  V30 5 2 5 6
M  V30 6 1 6 7
M  V30 7 2 7 8
M  V30 8 1 8 9
M  V30 9 2 9 10
M  V30 10 1 10 11
M  V30 11 2 11 12
M  V30 12 1 12 13
M  V30 13 1 13 14
M  V30 14 2 14 15
M  V30 15 1 14 16
M  V30 16 1 16 17
M  V30 17 1 17 18
M  V30 18 1 12 19
M  V30 19 2 19 20
M  V30 20 1 8 21
M  V30 21 2 21 22
M  V30 22 1 2 23
M  V30 23 1 23 24
M  V30 24 2 24 25
M  V30 25 1 25 26
M  V30 26 2 26 27
M  V30 27 1 27 28
M  V30 28 1 28 29
M  V30 29 1 29 30
M  V30 30 1 30 31
M  V30 31 1 31 32
M  V30 32 1 32 33
M  V30 33 1 33 34
M  V30 34 1 27 35
M  V30 35 1 35 36
M  V30 36 1 36 37
M  V30 37 1 36 38
M  V30 38 1 36 39
M  V30 39 2 35 40
M  V30 40 1 22 5
M  V30 41 1 40 24
M  V30 42 1 20 9
M  V30 43 1 34 29
M  V30 44 1 18 16
M  V30 45 1 3 41
M  V30 46 1 3 42
M  V30 47 1 4 43
M  V30 48 1 6 44
M  V30 49 1 7 45
M  V30 50 1 10 46
M  V30 51 1 11 47
M  V30 52 1 13 48
M  V30 53 1 16 49
M  V30 54 1 17 50
M  V30 55 1 17 51
M  V30 56 1 18 52
M  V30 57 1 18 53
M  V30 58 1 20 54
M  V30 59 1 21 55
M  V30 60 1 22 56
M  V30 61 1 23 57
M  V30 62 1 25 58
M  V30 63 1 26 59
M  V30 64 1 28 60
M  V30 65 1 28 61
M  V30 66 1 30 62
M  V30 67 1 30 63
M  V30 68 1 31 64
M  V30 69 1 31 65
M  V30 70 1 32 66
M  V30 71 1 33 67
M  V30 72 1 33 68
M  V30 73 1 34 69
M  V30 74 1 34 70
M  V30 75 1 40 71
M  V30 END BOND
M  V30 END CTAB
M  END
>  <Dataset>  (969) 
ChEMBL_Kinases

>  <Ligand_Instance>  (969) 
nan

>  <PDB_ID>  (969) 
nan

>  <Standardized_SMILES>  (969) 
O=C(CNc1ccc(-c2ccc(NC(=O)C3CC3)nc2)cc1)Nc1ccc(CN2CCNCC2)c(C(F)(F)F)c1

>  <Name>  (969) 
nan

>  <Pocket>  (969) 
nan

>  <ATP_Site>  (969) 
nan

>  <Peripheral>  (969) 
nan

>  <Num_H_Atoms_ProtBoundConf>  (969) 
nan

>  <Num_Resolved_Atoms>  (969) 
nan

>  <Num_Not_Resolved_Atoms>  (969) 
nan

$$$$
CHEMBL3805771
     RDKit          3D

  0  0  0  0  0  0  0  0  0  0999 V3000
M  V30 BEGIN CTAB
M  V30 COUNTS 77 81 0 0 0
M  V30 BEGIN ATOM
M  V30 1 C 7.852074 -4.150737 3.519155 0
M  V30 2 C 6.997638 -4.799425 2.459168 0
M  V30 3 N 6.920280 -3.999337 1.267322 0
M  V30 4 C 6.090762 -4.679596 0.303973 0
M  V30 5 C 5.865123 -3.815407 -0.925904 0
M  V30 6 N 6.813313 -2.715632 -0.840052 0
M  V30 7 C 6.784302 -1.911480 -2.043943 0
M  V30 8 C 5.429625 -1.324983 -2.263794 0
M  V30 9 C 4.606231 -1.888763 -3.215030 0
M  V30 10 C 3.351428 -1.362190 -3.426169 0
M  V30 11 C 2.986737 -0.280598 -2.657775 0
M  V30 12 N 1.723185 0.415080 -2.716819 0
M  V30 13 C 0.893737 -0.258474 -1.775270 0
M  V30 14 O 1.335620 -1.254621 -1.105082 0
M  V30 15 C -0.508237 -0.079446 -1.322082 0
M  V30 16 N -1.189830 1.020973 -1.975612 0
M  V30 17 C -2.530018 1.199614 -1.529374 0
M  V30 18 C -3.100548 0.386736 -0.571027 0
M  V30 19 C -4.409317 0.539789 -0.107123 0
M  V30 20 C -5.189140 1.574499 -0.642094 0
M  V30 21 C -6.540542 1.646654 -0.089340 0
M  V30 22 C -7.195975 0.500669 0.314361 0
M  V30 23 C -8.469636 0.622691 0.835552 0
M  V30 24 C -9.063166 1.870200 0.944857 0
M  V30 25 N -10.373529 1.806119 1.504671 0
M  V30 26 C -10.192367 1.922804 2.915527 0
M  V30 27 O -8.985195 2.049661 3.317910 0
M  V30 28 C -11.251836 1.914351 3.989959 0
M  V30 29 C -10.801582 1.360909 5.319677 0
M  V30 30 C -10.955927 2.842555 5.187148 0
M  V30 31 N -8.411180 2.991633 0.545101 0
M  V30 32 C -7.152705 2.887334 0.028388 0
M  V30 33 C -4.650500 2.406933 -1.603119 0
M  V30 34 C -3.348259 2.197907 -2.015647 0
M  V30 35 C 3.813758 0.275207 -1.712169 0
M  V30 36 C 5.092564 -0.241096 -1.478630 0
M  V30 37 C 5.985474 0.354525 -0.460130 0
M  V30 38 F 6.337747 -0.540826 0.540349 0
M  V30 39 F 7.114739 0.932444 -1.023431 0
M  V30 40 F 5.317357 1.383796 0.172096 0
M  V30 41 C 8.135935 -3.296249 -0.706348 0
M  V30 42 C 8.248985 -3.895047 0.696340 0
M  V30 43 H 8.734553 -4.792358 3.793051 0
M  V30 44 H 8.220354 -3.149676 3.226332 0
M  V30 45 H 7.261404 -4.059172 4.471755 0
M  V30 46 H 5.955604 -5.021677 2.820252 0
M  V30 47 H 7.455675 -5.798417 2.238773 0
M  V30 48 H 6.582571 -5.621094 -0.008200 0
M  V30 49 H 5.110364 -4.984822 0.753061 0
M  V30 50 H 4.816335 -3.438332 -0.965818 0
M  V30 51 H 6.044962 -4.365564 -1.873108 0
M  V30 52 H 7.572334 -1.130019 -1.932299 0
M  V30 53 H 7.046497 -2.501258 -2.935842 0
M  V30 54 H 4.897161 -2.731993 -3.810464 0
M  V30 55 H 2.615892 -1.710347 -4.137012 0
M  V30 56 H 1.175182 1.185532 -3.148227 0
M  V30 57 H -0.573555 0.085617 -0.226520 0
M  V30 58 H -1.092132 -0.999035 -1.541056 0
M  V30 59 H -0.836962 1.676218 -2.705287 0
M  V30 60 H -2.532539 -0.434401 -0.124501 0
M  V30 61 H -4.779250 -0.154837 0.659540 0
M  V30 62 H -6.739562 -0.475398 0.230905 0
M  V30 63 H -8.947382 -0.314190 1.141534 0
M  V30 64 H -11.376555 1.706186 1.232003 0
M  V30 65 H -12.297166 1.809059 3.706454 0
M  V30 66 H -11.543644 0.761702 5.882388 0
M  V30 67 H -9.755400 0.951918 5.407393 0
M  V30 68 H -10.008395 3.417753 5.180867 0
M  V30 69 H -11.836825 3.310836 5.688966 0
M  V30 70 H -6.661417 3.802190 -0.279994 0
M  V30 71 H -5.295888 3.182501 -1.976801 0
M  V30 72 H -2.980027 2.889175 -2.777816 0
M  V30 73 H 3.565253 1.136015 -1.078730 0
M  V30 74 H 8.846639 -2.466723 -0.868897 0
M  V30 75 H 8.268012 -4.075485 -1.482493 0
M  V30 76 H 8.934056 -3.283047 1.320966 0
M  V30 77 H 8.638463 -4.929021 0.568909 0
M  V30 END ATOM
M  V30 BEGIN BOND
M  V30 1 1 1 2
M  V30 2 1 2 3
M  V30 3 1 3 4
M  V30 4 1 4 5
M  V30 5 1 5 6
M  V30 6 1 6 7
M  V30 7 1 7 8
M  V30 8 2 8 9
M  V30 9 1 9 10
M  V30 10 2 10 11
M  V30 11 1 11 12
M  V30 12 1 12 13
M  V30 13 2 13 14
M  V30 14 1 13 15
M  V30 15 1 15 16
M  V30 16 1 16 17
M  V30 17 2 17 18
M  V30 18 1 18 19
M  V30 19 2 19 20
M  V30 20 1 20 21
M  V30 21 2 21 22
M  V30 22 1 22 23
M  V30 23 2 23 24
M  V30 24 1 24 25
M  V30 25 1 25 26
M  V30 26 2 26 27
M  V30 27 1 26 28
M  V30 28 1 28 29
M  V30 29 1 29 30
M  V30 30 1 24 31
M  V30 31 2 31 32
M  V30 32 1 20 33
M  V30 33 2 33 34
M  V30 34 1 11 35
M  V30 35 2 35 36
M  V30 36 1 36 37
M  V30 37 1 37 38
M  V30 38 1 37 39
M  V30 39 1 37 40
M  V30 40 1 6 41
M  V30 41 1 41 42
M  V30 42 1 42 3
M  V30 43 1 36 8
M  V30 44 1 34 17
M  V30 45 1 32 21
M  V30 46 1 30 28
M  V30 47 1 1 43
M  V30 48 1 1 44
M  V30 49 1 1 45
M  V30 50 1 2 46
M  V30 51 1 2 47
M  V30 52 1 4 48
M  V30 53 1 4 49
M  V30 54 1 5 50
M  V30 55 1 5 51
M  V30 56 1 7 52
M  V30 57 1 7 53
M  V30 58 1 9 54
M  V30 59 1 10 55
M  V30 60 1 12 56
M  V30 61 1 15 57
M  V30 62 1 15 58
M  V30 63 1 16 59
M  V30 64 1 18 60
M  V30 65 1 19 61
M  V30 66 1 22 62
M  V30 67 1 23 63
M  V30 68 1 25 64
M  V30 69 1 28 65
M  V30 70 1 29 66
M  V30 71 1 29 67
M  V30 72 1 30 68
M  V30 73 1 30 69
M  V30 74 1 32 70
M  V30 75 1 33 71
M  V30 76 1 34 72
M  V30 77 1 35 73
M  V30 78 1 41 74
M  V30 79 1 41 75
M  V30 80 1 42 76
M  V30 81 1 42 77
M  V30 END BOND
M  V30 END CTAB
M  END
>  <Dataset>  (970) 
ChEMBL_Kinases

>  <Ligand_Instance>  (970) 
nan

>  <PDB_ID>  (970) 
nan

>  <Standardized_SMILES>  (970) 
CCN1CCN(Cc2ccc(NC(=O)CNc3ccc(-c4ccc(NC(=O)C5CC5)nc4)cc3)cc2C(F)(F)F)CC1

>  <Name>  (970) 
nan

>  <Pocket>  (970) 
nan

>  <ATP_Site>  (970) 
nan

>  <Peripheral>  (970) 
nan

>  <Num_H_Atoms_ProtBoundConf>  (970) 
nan

>  <Num_Resolved_Atoms>  (970) 
nan

>  <Num_Not_Resolved_Atoms>  (970) 
nan

$$$$
CHEMBL4090144
     RDKit          3D

  0  0  0  0  0  0  0  0  0  0999 V3000
M  V30 BEGIN CTAB
M  V30 COUNTS 58 62 0 0 0
M  V30 BEGIN ATOM
M  V30 1 O 2.026440 -0.665296 1.565833 0
M  V30 2 C 2.710610 -0.527746 0.493855 0
M  V30 3 N 4.016400 -1.026121 0.712043 0
M  V30 4 C 4.508664 -1.593066 1.926120 0
M  V30 5 C 4.490215 -0.710742 3.095144 0
M  V30 6 C 3.597889 -0.463077 4.112656 0
M  V30 7 C 4.045136 0.484206 4.990901 0
M  V30 8 N 5.253082 0.837216 4.505733 0
M  V30 9 N 5.506960 0.139224 3.403231 0
M  V30 10 C 2.122680 0.063000 -0.694333 0
M  V30 11 C 0.791625 0.461505 -0.587834 0
M  V30 12 C 0.117821 1.031479 -1.630062 0
M  V30 13 C -1.307321 1.440711 -1.463717 0 CFG=2
M  V30 14 C -1.356142 2.468651 -0.339706 0
M  V30 15 C -2.771728 2.855574 -0.006830 0
M  V30 16 N -3.525514 1.648568 0.359491 0
M  V30 17 C -3.567030 0.831049 -0.839479 0
M  V30 18 C -2.147461 0.259926 -1.010820 0 CFG=1
M  V30 19 C -2.251044 -0.806533 -2.038031 0
M  V30 20 O -3.024112 -1.865891 -1.586676 0
M  V30 21 C -2.772639 -2.695920 -0.542795 0
M  V30 22 C -3.856898 -3.589414 -0.467224 0
M  V30 23 C -3.937868 -4.593183 0.495354 0
M  V30 24 C -2.922333 -4.732403 1.421349 0
M  V30 25 C -1.867930 -3.877121 1.361068 0
M  V30 26 C -1.801394 -2.892622 0.406445 0
M  V30 27 O -0.958438 -4.172363 2.364554 0
M  V30 28 C -1.400309 -5.355675 3.046617 0
M  V30 29 O -2.671580 -5.587840 2.489037 0
M  V30 30 C 0.733108 1.239358 -2.846447 0
M  V30 31 C 2.048528 0.863155 -3.004172 0
M  V30 32 C 2.681059 0.294269 -1.925098 0
M  V30 33 F 3.971498 -0.081430 -2.060148 0
M  V30 34 H 4.659295 -0.954607 -0.126229 0
M  V30 35 H 5.572610 -1.914103 1.754280 0
M  V30 36 H 3.961819 -2.520005 2.222771 0
M  V30 37 H 2.648121 -0.978178 4.193533 0
M  V30 38 H 3.568247 0.880519 5.876424 0
M  V30 39 H 6.407340 0.279787 2.882827 0
M  V30 40 H 0.237631 0.329611 0.342770 0
M  V30 41 H -1.691287 1.881702 -2.398567 0
M  V30 42 H -0.800679 3.391928 -0.615725 0
M  V30 43 H -0.953373 1.973308 0.564454 0
M  V30 44 H -3.267404 3.451462 -0.774072 0
M  V30 45 H -2.712804 3.468009 0.923164 0
M  V30 46 H -2.918171 1.149754 1.049821 0
M  V30 47 H -3.755037 1.512338 -1.694646 0
M  V30 48 H -4.287230 0.007029 -0.800412 0
M  V30 49 H -1.737984 -0.084024 -0.076536 0
M  V30 50 H -1.222639 -1.251128 -2.232200 0
M  V30 51 H -2.658444 -0.411281 -3.000635 0
M  V30 52 H -4.750072 -3.655948 -1.088687 0
M  V30 53 H -4.730039 -5.315567 0.621641 0
M  V30 54 H -0.990353 -2.200995 0.298522 0
M  V30 55 H -1.385252 -5.212270 4.128000 0
M  V30 56 H -0.771228 -6.224203 2.749507 0
M  V30 57 H 0.235452 1.686873 -3.695381 0
M  V30 58 H 2.604111 0.990690 -3.923424 0
M  V30 END ATOM
M  V30 BEGIN BOND
M  V30 1 2 1 2
M  V30 2 1 2 3
M  V30 3 1 3 4
M  V30 4 1 4 5
M  V30 5 2 5 6
M  V30 6 1 6 7
M  V30 7 2 7 8
M  V30 8 1 8 9
M  V30 9 1 2 10
M  V30 10 2 10 11
M  V30 11 1 11 12
M  V30 12 1 12 13
M  V30 13 1 13 14
M  V30 14 1 14 15
M  V30 15 1 15 16
M  V30 16 1 16 17
M  V30 17 1 17 18
M  V30 18 1 18 19
M  V30 19 1 19 20
M  V30 20 1 20 21
M  V30 21 2 21 22
M  V30 22 1 22 23
M  V30 23 2 23 24
M  V30 24 1 24 25
M  V30 25 2 25 26
M  V30 26 1 25 27
M  V30 27 1 27 28
M  V30 28 1 28 29
M  V30 29 2 12 30
M  V30 30 1 30 31
M  V30 31 2 31 32
M  V30 32 1 32 33
M  V30 33 1 9 5
M  V30 34 1 32 10
M  V30 35 1 18 13
M  V30 36 1 26 21
M  V30 37 1 29 24
M  V30 38 1 3 34
M  V30 39 1 4 35
M  V30 40 1 4 36
M  V30 41 1 6 37
M  V30 42 1 7 38
M  V30 43 1 9 39
M  V30 44 1 11 40
M  V30 45 1 13 41 CFG=3
M  V30 46 1 14 42
M  V30 47 1 14 43
M  V30 48 1 15 44
M  V30 49 1 15 45
M  V30 50 1 16 46
M  V30 51 1 17 47
M  V30 52 1 17 48
M  V30 53 1 18 49 CFG=1
M  V30 54 1 19 50
M  V30 55 1 19 51
M  V30 56 1 22 52
M  V30 57 1 23 53
M  V30 58 1 26 54
M  V30 59 1 28 55
M  V30 60 1 28 56
M  V30 61 1 30 57
M  V30 62 1 31 58
M  V30 END BOND
M  V30 END CTAB
M  END
>  <Dataset>  (971) 
ChEMBL_Kinases

>  <Ligand_Instance>  (971) 
nan

>  <PDB_ID>  (971) 
nan

>  <Standardized_SMILES>  (971) 
O=C(NCc1ccn[nH]1)c1cc([C@@H]2CCNC[C@H]2COc2ccc3c(c2)OCO3)ccc1F

>  <Name>  (971) 
nan

>  <Pocket>  (971) 
nan

>  <ATP_Site>  (971) 
nan

>  <Peripheral>  (971) 
nan

>  <Num_H_Atoms_ProtBoundConf>  (971) 
nan

>  <Num_Resolved_Atoms>  (971) 
nan

>  <Num_Not_Resolved_Atoms>  (971) 
nan

$$$$
CHEMBL4090101
     RDKit          3D

  0  0  0  0  0  0  0  0  0  0999 V3000
M  V30 BEGIN CTAB
M  V30 COUNTS 51 55 0 0 0
M  V30 BEGIN ATOM
M  V30 1 C 0.544393 1.246103 1.707070 0
M  V30 2 C 1.895734 1.435846 2.325208 0 CFG=2
M  V30 3 C 2.684509 2.549571 1.675070 0
M  V30 4 N 3.985384 2.579950 2.267208 0
M  V30 5 C 4.129037 1.803858 3.458591 0
M  V30 6 C 3.958668 0.327484 3.075808 0
M  V30 7 N 2.737048 0.260986 2.288936 0
M  V30 8 C 2.729150 -1.022543 1.673296 0
M  V30 9 O 3.755273 -1.669008 2.001428 0
M  V30 10 C 1.818391 -1.720399 0.777181 0
M  V30 11 N 1.253769 -1.103686 -0.278359 0
M  V30 12 C 0.416391 -1.772006 -1.090131 0
M  V30 13 N -0.074076 -0.923474 -2.144584 0
M  V30 14 C -1.338990 -0.308963 -1.838425 0
M  V30 15 C -2.092639 -0.485205 -0.693122 0
M  V30 16 C -3.235268 0.291884 -0.802250 0
M  V30 17 C -4.327961 0.401412 0.201203 0
M  V30 18 C -4.824676 -0.939485 0.722828 0
M  V30 19 C -4.137757 0.049296 1.615615 0
M  V30 20 N -3.150546 0.910111 -1.988691 0
M  V30 21 N -2.040126 0.566563 -2.609649 0
M  V30 22 C 0.110692 -3.103219 -0.869634 0
M  V30 23 C -0.751343 -3.653998 -1.767630 0
M  V30 24 C -1.067745 -4.997866 -1.552821 0
M  V30 25 Cl -2.164351 -5.860072 -2.616074 0
M  V30 26 C -0.504900 -5.672066 -0.473682 0
M  V30 27 C 0.365790 -5.033666 0.394022 0
M  V30 28 C 0.709596 -3.700440 0.222215 0
M  V30 29 N 1.551772 -3.014403 1.031967 0
M  V30 30 H 0.148166 0.256767 1.924598 0
M  V30 31 H -0.154070 1.989676 2.180006 0
M  V30 32 H 0.506420 1.444920 0.622716 0
M  V30 33 H 1.717914 1.700952 3.397787 0
M  V30 34 H 2.777522 2.269716 0.593133 0
M  V30 35 H 2.088161 3.481387 1.790045 0
M  V30 36 H 4.461222 3.496022 2.273534 0
M  V30 37 H 3.503288 2.098761 4.302206 0
M  V30 38 H 5.188378 1.946070 3.803510 0
M  V30 39 H 3.829417 -0.309407 3.977274 0
M  V30 40 H 4.871776 0.070749 2.502221 0
M  V30 41 H 0.353640 -0.701882 -3.074479 0
M  V30 42 H -1.865267 -1.113652 0.165688 0
M  V30 43 H -5.116721 1.140085 -0.066966 0
M  V30 44 H -5.932022 -1.035406 0.829966 0
M  V30 45 H -4.321350 -1.871839 0.400833 0
M  V30 46 H -3.112534 -0.183844 1.988242 0
M  V30 47 H -4.739324 0.564990 2.388773 0
M  V30 48 H -3.832950 1.574312 -2.405032 0
M  V30 49 H -1.168597 -3.114917 -2.584371 0
M  V30 50 H -0.705177 -6.725701 -0.242359 0
M  V30 51 H 0.814591 -5.547030 1.244739 0
M  V30 END ATOM
M  V30 BEGIN BOND
M  V30 1 1 1 2
M  V30 2 1 2 3
M  V30 3 1 3 4
M  V30 4 1 4 5
M  V30 5 1 5 6
M  V30 6 1 6 7
M  V30 7 1 7 8
M  V30 8 2 8 9
M  V30 9 1 8 10
M  V30 10 2 10 11
M  V30 11 1 11 12
M  V30 12 1 12 13
M  V30 13 1 13 14
M  V30 14 1 14 15
M  V30 15 2 15 16
M  V30 16 1 16 17
M  V30 17 1 17 18
M  V30 18 1 18 19
M  V30 19 1 16 20
M  V30 20 1 20 21
M  V30 21 2 12 22
M  V30 22 1 22 23
M  V30 23 2 23 24
M  V30 24 1 24 25
M  V30 25 1 24 26
M  V30 26 2 26 27
M  V30 27 1 27 28
M  V30 28 2 28 29
M  V30 29 1 7 2
M  V30 30 1 29 10
M  V30 31 2 21 14
M  V30 32 1 28 22
M  V30 33 1 19 17
M  V30 34 1 1 30
M  V30 35 1 1 31
M  V30 36 1 1 32
M  V30 37 1 2 33 CFG=1
M  V30 38 1 3 34
M  V30 39 1 3 35
M  V30 40 1 4 36
M  V30 41 1 5 37
M  V30 42 1 5 38
M  V30 43 1 6 39
M  V30 44 1 6 40
M  V30 45 1 13 41
M  V30 46 1 15 42
M  V30 47 1 17 43
M  V30 48 1 18 44
M  V30 49 1 18 45
M  V30 50 1 19 46
M  V30 51 1 19 47
M  V30 52 1 20 48
M  V30 53 1 23 49
M  V30 54 1 26 50
M  V30 55 1 27 51
M  V30 END BOND
M  V30 END CTAB
M  END
>  <Dataset>  (972) 
ChEMBL_Kinases

>  <Ligand_Instance>  (972) 
nan

>  <PDB_ID>  (972) 
nan

>  <Standardized_SMILES>  (972) 
C[C@@H]1CNCCN1C(=O)c1nc(Nc2cc(C3CC3)[nH]n2)c2cc(Cl)ccc2n1

>  <Name>  (972) 
nan

>  <Pocket>  (972) 
nan

>  <ATP_Site>  (972) 
nan

>  <Peripheral>  (972) 
nan

>  <Num_H_Atoms_ProtBoundConf>  (972) 
nan

>  <Num_Resolved_Atoms>  (972) 
nan

>  <Num_Not_Resolved_Atoms>  (972) 
nan

$$$$
CHEMBL3805865
     RDKit          3D

  0  0  0  0  0  0  0  0  0  0999 V3000
M  V30 BEGIN CTAB
M  V30 COUNTS 72 75 0 0 0
M  V30 BEGIN ATOM
M  V30 1 C 2.664706 -4.412067 2.671691 0
M  V30 2 C 1.865330 -4.796371 1.451940 0
M  V30 3 N 2.065741 -4.005100 0.301004 0
M  V30 4 C 1.608208 -2.664840 0.343890 0
M  V30 5 C 2.203330 -1.832839 -0.756921 0
M  V30 6 N 3.643420 -1.891243 -0.800003 0
M  V30 7 C 4.035352 -1.207670 -2.030647 0
M  V30 8 C 3.490441 0.192863 -1.905587 0
M  V30 9 C 2.321310 0.525375 -2.602762 0
M  V30 10 C 1.769351 1.788094 -2.514020 0
M  V30 11 C 2.419338 2.702012 -1.711029 0
M  V30 12 N 1.734316 3.967838 -1.703409 0
M  V30 13 C 0.812485 3.861645 -0.608357 0
M  V30 14 O 0.990838 2.695102 -0.104204 0
M  V30 15 C -0.142085 4.958527 -0.202641 0
M  V30 16 O -0.851499 4.433791 0.902538 0
M  V30 17 C -1.650253 3.304632 0.868067 0
M  V30 18 C -1.976977 2.436747 -0.152040 0
M  V30 19 C -2.810018 1.364595 0.087702 0
M  V30 20 C -3.341937 1.121190 1.337115 0
M  V30 21 C -4.222152 -0.024139 1.574790 0
M  V30 22 C -3.931565 -1.140287 0.778902 0
M  V30 23 C -4.741453 -2.257660 0.969201 0
M  V30 24 C -5.775225 -2.265747 1.892294 0
M  V30 25 N -6.566897 -3.447208 2.037205 0
M  V30 26 C -7.662341 -3.409490 1.162693 0
M  V30 27 C -8.728486 -4.460404 1.010788 0
M  V30 28 O -7.840134 -2.427868 0.393772 0
M  V30 29 N -6.003465 -1.152374 2.630964 0
M  V30 30 C -5.253465 -0.038654 2.492596 0
M  V30 31 C -3.026349 1.984009 2.379957 0
M  V30 32 C -2.183450 3.069845 2.141468 0
M  V30 33 C 3.564480 2.395613 -1.021288 0
M  V30 34 C 4.130772 1.140050 -1.097516 0
M  V30 35 C 5.364680 0.812106 -0.356154 0
M  V30 36 F 6.394895 0.422511 -1.201666 0
M  V30 37 F 5.065393 -0.170927 0.562177 0
M  V30 38 F 5.735736 1.937892 0.374132 0
M  V30 39 C 4.200540 -3.194653 -0.656967 0
M  V30 40 C 3.179309 -4.274426 -0.527202 0
M  V30 41 H 2.169699 -4.933029 3.541890 0
M  V30 42 H 3.705125 -4.729790 2.668033 0
M  V30 43 H 2.508901 -3.325241 2.914282 0
M  V30 44 H 1.960082 -5.885590 1.287162 0
M  V30 45 H 0.787348 -4.655624 1.764274 0
M  V30 46 H 1.740796 -2.233192 1.355329 0
M  V30 47 H 0.498475 -2.688735 0.128899 0
M  V30 48 H 1.756665 -2.123455 -1.718573 0
M  V30 49 H 1.900138 -0.776784 -0.548672 0
M  V30 50 H 3.514484 -1.679107 -2.882998 0
M  V30 51 H 5.114657 -1.206924 -2.183821 0
M  V30 52 H 1.869241 -0.247499 -3.212688 0
M  V30 53 H 0.866111 1.952103 -3.087658 0
M  V30 54 H 1.746133 4.875994 -2.260863 0
M  V30 55 H 0.488367 5.804146 0.121212 0
M  V30 56 H -0.787341 5.196669 -1.067406 0
M  V30 57 H -1.531069 2.703581 -1.079637 0
M  V30 58 H -3.018291 0.731586 -0.756037 0
M  V30 59 H -3.158210 -1.225776 0.045682 0
M  V30 60 H -4.562348 -3.142659 0.383495 0
M  V30 61 H -6.534912 -4.329702 2.629010 0
M  V30 62 H -9.718952 -4.092328 1.332102 0
M  V30 63 H -8.422706 -5.412631 1.452374 0
M  V30 64 H -8.816425 -4.666701 -0.095490 0
M  V30 65 H -5.417798 0.858493 3.069872 0
M  V30 66 H -3.466462 1.750444 3.332366 0
M  V30 67 H -2.028615 3.649867 3.044691 0
M  V30 68 H 3.991189 3.191177 -0.420413 0
M  V30 69 H 4.971941 -3.221515 0.143461 0
M  V30 70 H 4.759708 -3.400752 -1.616782 0
M  V30 71 H 3.672006 -5.231435 -0.260019 0
M  V30 72 H 2.772114 -4.464190 -1.564919 0
M  V30 END ATOM
M  V30 BEGIN BOND
M  V30 1 1 1 2
M  V30 2 1 2 3
M  V30 3 1 3 4
M  V30 4 1 4 5
M  V30 5 1 5 6
M  V30 6 1 6 7
M  V30 7 1 7 8
M  V30 8 2 8 9
M  V30 9 1 9 10
M  V30 10 2 10 11
M  V30 11 1 11 12
M  V30 12 1 12 13
M  V30 13 2 13 14
M  V30 14 1 13 15
M  V30 15 1 15 16
M  V30 16 1 16 17
M  V30 17 2 17 18
M  V30 18 1 18 19
M  V30 19 2 19 20
M  V30 20 1 20 21
M  V30 21 2 21 22
M  V30 22 1 22 23
M  V30 23 2 23 24
M  V30 24 1 24 25
M  V30 25 1 25 26
M  V30 26 1 26 27
M  V30 27 2 26 28
M  V30 28 1 24 29
M  V30 29 2 29 30
M  V30 30 1 20 31
M  V30 31 2 31 32
M  V30 32 1 11 33
M  V30 33 2 33 34
M  V30 34 1 34 35
M  V30 35 1 35 36
M  V30 36 1 35 37
M  V30 37 1 35 38
M  V30 38 1 6 39
M  V30 39 1 39 40
M  V30 40 1 40 3
M  V30 41 1 34 8
M  V30 42 1 32 17
M  V30 43 1 30 21
M  V30 44 1 1 41
M  V30 45 1 1 42
M  V30 46 1 1 43
M  V30 47 1 2 44
M  V30 48 1 2 45
M  V30 49 1 4 46
M  V30 50 1 4 47
M  V30 51 1 5 48
M  V30 52 1 5 49
M  V30 53 1 7 50
M  V30 54 1 7 51
M  V30 55 1 9 52
M  V30 56 1 10 53
M  V30 57 1 12 54
M  V30 58 1 15 55
M  V30 59 1 15 56
M  V30 60 1 18 57
M  V30 61 1 19 58
M  V30 62 1 22 59
M  V30 63 1 23 60
M  V30 64 1 25 61
M  V30 65 1 27 62
M  V30 66 1 27 63
M  V30 67 1 27 64
M  V30 68 1 30 65
M  V30 69 1 31 66
M  V30 70 1 32 67
M  V30 71 1 33 68
M  V30 72 1 39 69
M  V30 73 1 39 70
M  V30 74 1 40 71
M  V30 75 1 40 72
M  V30 END BOND
M  V30 END CTAB
M  END
>  <Dataset>  (973) 
ChEMBL_Kinases

>  <Ligand_Instance>  (973) 
nan

>  <PDB_ID>  (973) 
nan

>  <Standardized_SMILES>  (973) 
CCN1CCN(Cc2ccc(NC(=O)COc3ccc(-c4ccc(NC(C)=O)nc4)cc3)cc2C(F)(F)F)CC1

>  <Name>  (973) 
nan

>  <Pocket>  (973) 
nan

>  <ATP_Site>  (973) 
nan

>  <Peripheral>  (973) 
nan

>  <Num_H_Atoms_ProtBoundConf>  (973) 
nan

>  <Num_Resolved_Atoms>  (973) 
nan

>  <Num_Not_Resolved_Atoms>  (973) 
nan

$$$$
CHEMBL4089840
     RDKit          3D

  0  0  0  0  0  0  0  0  0  0999 V3000
M  V30 BEGIN CTAB
M  V30 COUNTS 34 36 0 0 0
M  V30 BEGIN ATOM
M  V30 1 O 0.248666 -1.918739 1.407707 0
M  V30 2 C -0.070767 -2.126801 0.183731 0
M  V30 3 C 0.472528 -1.326565 -0.953029 0
M  V30 4 O 1.297111 -0.308823 -0.444128 0
M  V30 5 C 0.789108 0.682766 0.367765 0
M  V30 6 C -0.545651 0.681723 0.655985 0
M  V30 7 C -1.160161 1.624950 1.451289 0
M  V30 8 C -0.437661 2.660886 2.022057 0
M  V30 9 C 0.926708 2.657288 1.723572 0
M  V30 10 C 1.662007 3.700799 2.298900 0
M  V30 11 O 1.111813 4.561055 3.021213 0
M  V30 12 N 2.995845 3.688905 2.004070 0
M  V30 13 C 3.632532 2.778451 1.226808 0
M  V30 14 C 2.855015 1.781451 0.692794 0
M  V30 15 C 1.519126 1.703333 0.925817 0
M  V30 16 C -1.013368 -3.209276 -0.045994 0
M  V30 17 C -1.454646 -3.569028 -1.324597 0
M  V30 18 C -2.353409 -4.601016 -1.501896 0
M  V30 19 C -2.868499 -5.338012 -0.429301 0
M  V30 20 C -2.442025 -4.995286 0.844690 0
M  V30 21 C -1.551950 -3.965034 0.955661 0
M  V30 22 H 0.962527 -1.948864 -1.711549 0
M  V30 23 H -0.432014 -0.904824 -1.459208 0
M  V30 24 H -1.306864 -0.025000 0.307310 0
M  V30 25 H -2.233295 1.667441 1.710084 0
M  V30 26 H -0.896530 3.412351 2.650776 0
M  V30 27 H 3.606038 4.442975 2.405414 0
M  V30 28 H 4.694704 2.857291 1.055151 0
M  V30 29 H 3.316105 1.014099 0.054318 0
M  V30 30 H -1.081551 -3.030096 -2.186969 0
M  V30 31 H -2.641685 -4.811783 -2.526033 0
M  V30 32 H -3.566245 -6.136389 -0.618266 0
M  V30 33 H -2.810040 -5.535616 1.718773 0
M  V30 34 H -1.225076 -3.708095 1.975329 0
M  V30 END ATOM
M  V30 BEGIN BOND
M  V30 1 2 1 2
M  V30 2 1 2 3
M  V30 3 1 3 4
M  V30 4 1 4 5
M  V30 5 2 5 6
M  V30 6 1 6 7
M  V30 7 2 7 8
M  V30 8 1 8 9
M  V30 9 1 9 10
M  V30 10 2 10 11
M  V30 11 1 10 12
M  V30 12 1 12 13
M  V30 13 2 13 14
M  V30 14 1 14 15
M  V30 15 1 2 16
M  V30 16 2 16 17
M  V30 17 1 17 18
M  V30 18 2 18 19
M  V30 19 1 19 20
M  V30 20 2 20 21
M  V30 21 1 15 5
M  V30 22 1 21 16
M  V30 23 2 15 9
M  V30 24 1 3 22
M  V30 25 1 3 23
M  V30 26 1 6 24
M  V30 27 1 7 25
M  V30 28 1 8 26
M  V30 29 1 12 27
M  V30 30 1 13 28
M  V30 31 1 14 29
M  V30 32 1 17 30
M  V30 33 1 18 31
M  V30 34 1 19 32
M  V30 35 1 20 33
M  V30 36 1 21 34
M  V30 END BOND
M  V30 END CTAB
M  END
>  <Dataset>  (974) 
ChEMBL_Kinases

>  <Ligand_Instance>  (974) 
nan

>  <PDB_ID>  (974) 
nan

>  <Standardized_SMILES>  (974) 
O=C(COc1cccc2c(=O)[nH]ccc12)c1ccccc1

>  <Name>  (974) 
nan

>  <Pocket>  (974) 
nan

>  <ATP_Site>  (974) 
nan

>  <Peripheral>  (974) 
nan

>  <Num_H_Atoms_ProtBoundConf>  (974) 
nan

>  <Num_Resolved_Atoms>  (974) 
nan

>  <Num_Not_Resolved_Atoms>  (974) 
nan

$$$$
CHEMBL3805891
     RDKit          3D

  0  0  0  0  0  0  0  0  0  0999 V3000
M  V30 BEGIN CTAB
M  V30 COUNTS 73 76 0 0 0
M  V30 BEGIN ATOM
M  V30 1 C 3.216432 -4.844479 3.024750 0
M  V30 2 C 2.517414 -4.735037 1.683238 0
M  V30 3 N 3.411274 -5.205597 0.669299 0
M  V30 4 C 2.902885 -5.172778 -0.666010 0
M  V30 5 C 3.129655 -3.869059 -1.367342 0
M  V30 6 N 4.127367 -3.074169 -0.661216 0
M  V30 7 C 4.579863 -2.003542 -1.567105 0
M  V30 8 C 3.385714 -1.195300 -1.913357 0
M  V30 9 C 2.843855 -1.407126 -3.186895 0
M  V30 10 C 1.722249 -0.669336 -3.544921 0
M  V30 11 C 1.173796 0.243090 -2.651647 0
M  V30 12 N 0.035984 0.892170 -3.201289 0
M  V30 13 C -0.179401 2.068276 -3.968963 0
M  V30 14 O 0.766807 2.834960 -4.339520 0
M  V30 15 C -1.512322 2.485858 -4.393536 0
M  V30 16 N -2.604362 1.673847 -3.980558 0
M  V30 17 C -2.971768 1.545614 -2.608804 0
M  V30 18 C -2.330055 2.197949 -1.566876 0
M  V30 19 C -2.693529 2.065439 -0.243489 0
M  V30 20 C -3.750754 1.243771 0.085647 0
M  V30 21 C -4.115620 1.121218 1.493822 0
M  V30 22 C -5.462776 0.892627 1.747949 0
M  V30 23 C -5.883354 0.763972 3.070361 0
M  V30 24 C -4.922161 0.873048 4.063140 0
M  V30 25 N -5.456931 0.726456 5.374498 0
M  V30 26 C -5.841082 2.023535 5.842189 0
M  V30 27 C -6.445235 2.444767 7.124468 0
M  V30 28 O -5.675067 3.053776 5.102479 0
M  V30 29 N -3.620790 1.095141 3.788825 0
M  V30 30 C -3.182946 1.224641 2.507652 0
M  V30 31 C -4.433310 0.565586 -0.896635 0
M  V30 32 C -4.017213 0.743443 -2.201112 0
M  V30 33 C 1.722199 0.434074 -1.408223 0
M  V30 34 C 2.849598 -0.293392 -1.020981 0
M  V30 35 C 3.419261 -0.074043 0.308450 0
M  V30 36 F 4.725406 0.364765 0.277892 0
M  V30 37 F 3.409916 -1.200456 1.101809 0
M  V30 38 F 2.692767 0.881063 1.004962 0
M  V30 39 C 5.247151 -3.909831 -0.271551 0
M  V30 40 C 4.778679 -4.828875 0.827407 0
M  V30 41 H 3.968452 -5.663958 2.946345 0
M  V30 42 H 3.685978 -3.893712 3.296737 0
M  V30 43 H 2.463784 -5.187775 3.765530 0
M  V30 44 H 2.191363 -3.686791 1.534495 0
M  V30 45 H 1.616208 -5.383814 1.663955 0
M  V30 46 H 3.290136 -6.030853 -1.257234 0
M  V30 47 H 1.791075 -5.329891 -0.601752 0
M  V30 48 H 2.197171 -3.283767 -1.450961 0
M  V30 49 H 3.476192 -4.092638 -2.395729 0
M  V30 50 H 5.005284 -2.526234 -2.428922 0
M  V30 51 H 5.337401 -1.454859 -0.969947 0
M  V30 52 H 3.294090 -2.124878 -3.858999 0
M  V30 53 H 1.349807 -0.882258 -4.550854 0
M  V30 54 H -0.720550 0.252713 -2.901262 0
M  V30 55 H -1.673668 3.519663 -4.013223 0
M  V30 56 H -1.500619 2.571091 -5.502040 0
M  V30 57 H -3.167523 1.148144 -4.669959 0
M  V30 58 H -1.498147 2.846733 -1.802768 0
M  V30 59 H -2.117259 2.627869 0.506097 0
M  V30 60 H -6.186711 0.813664 0.936317 0
M  V30 61 H -6.933891 0.587021 3.241369 0
M  V30 62 H -5.672689 0.026035 6.120667 0
M  V30 63 H -5.871267 3.282719 7.571879 0
M  V30 64 H -6.453290 1.633463 7.888320 0
M  V30 65 H -7.491886 2.795364 7.026575 0
M  V30 66 H -2.140570 1.402516 2.284304 0
M  V30 67 H -5.274892 -0.091403 -0.662582 0
M  V30 68 H -4.565650 0.200065 -2.973363 0
M  V30 69 H 1.227783 1.161243 -0.787225 0
M  V30 70 H 6.020120 -3.216847 0.125074 0
M  V30 71 H 5.570649 -4.467366 -1.150033 0
M  V30 72 H 4.988413 -4.328966 1.791653 0
M  V30 73 H 5.475844 -5.703987 0.801853 0
M  V30 END ATOM
M  V30 BEGIN BOND
M  V30 1 1 1 2
M  V30 2 1 2 3
M  V30 3 1 3 4
M  V30 4 1 4 5
M  V30 5 1 5 6
M  V30 6 1 6 7
M  V30 7 1 7 8
M  V30 8 2 8 9
M  V30 9 1 9 10
M  V30 10 2 10 11
M  V30 11 1 11 12
M  V30 12 1 12 13
M  V30 13 2 13 14
M  V30 14 1 13 15
M  V30 15 1 15 16
M  V30 16 1 16 17
M  V30 17 2 17 18
M  V30 18 1 18 19
M  V30 19 2 19 20
M  V30 20 1 20 21
M  V30 21 2 21 22
M  V30 22 1 22 23
M  V30 23 2 23 24
M  V30 24 1 24 25
M  V30 25 1 25 26
M  V30 26 1 26 27
M  V30 27 2 26 28
M  V30 28 1 24 29
M  V30 29 2 29 30
M  V30 30 1 20 31
M  V30 31 2 31 32
M  V30 32 1 11 33
M  V30 33 2 33 34
M  V30 34 1 34 35
M  V30 35 1 35 36
M  V30 36 1 35 37
M  V30 37 1 35 38
M  V30 38 1 6 39
M  V30 39 1 39 40
M  V30 40 1 40 3
M  V30 41 1 34 8
M  V30 42 1 32 17
M  V30 43 1 30 21
M  V30 44 1 1 41
M  V30 45 1 1 42
M  V30 46 1 1 43
M  V30 47 1 2 44
M  V30 48 1 2 45
M  V30 49 1 4 46
M  V30 50 1 4 47
M  V30 51 1 5 48
M  V30 52 1 5 49
M  V30 53 1 7 50
M  V30 54 1 7 51
M  V30 55 1 9 52
M  V30 56 1 10 53
M  V30 57 1 12 54
M  V30 58 1 15 55
M  V30 59 1 15 56
M  V30 60 1 16 57
M  V30 61 1 18 58
M  V30 62 1 19 59
M  V30 63 1 22 60
M  V30 64 1 23 61
M  V30 65 1 25 62
M  V30 66 1 27 63
M  V30 67 1 27 64
M  V30 68 1 27 65
M  V30 69 1 30 66
M  V30 70 1 31 67
M  V30 71 1 32 68
M  V30 72 1 33 69
M  V30 73 1 39 70
M  V30 74 1 39 71
M  V30 75 1 40 72
M  V30 76 1 40 73
M  V30 END BOND
M  V30 END CTAB
M  END
>  <Dataset>  (975) 
ChEMBL_Kinases

>  <Ligand_Instance>  (975) 
nan

>  <PDB_ID>  (975) 
nan

>  <Standardized_SMILES>  (975) 
CCN1CCN(Cc2ccc(NC(=O)CNc3ccc(-c4ccc(NC(C)=O)nc4)cc3)cc2C(F)(F)F)CC1

>  <Name>  (975) 
nan

>  <Pocket>  (975) 
nan

>  <ATP_Site>  (975) 
nan

>  <Peripheral>  (975) 
nan

>  <Num_H_Atoms_ProtBoundConf>  (975) 
nan

>  <Num_Resolved_Atoms>  (975) 
nan

>  <Num_Not_Resolved_Atoms>  (975) 
nan

$$$$
CHEMBL3805956
     RDKit          3D

  0  0  0  0  0  0  0  0  0  0999 V3000
M  V30 BEGIN CTAB
M  V30 COUNTS 65 68 0 0 0
M  V30 BEGIN ATOM
M  V30 1 C 4.506395 -3.474573 -0.421796 0
M  V30 2 C 3.985936 -3.615855 -1.813534 0
M  V30 3 N 3.693635 -2.362852 -2.440976 0
M  V30 4 C 3.187000 -2.477080 -3.764932 0
M  V30 5 C 1.679504 -2.424129 -3.843033 0
M  V30 6 N 1.224050 -1.314022 -3.104549 0
M  V30 7 C 1.208587 -0.037106 -3.684270 0
M  V30 8 C 0.630988 0.965470 -2.724332 0
M  V30 9 C 1.479326 1.827728 -2.069072 0
M  V30 10 C 0.974916 2.763172 -1.181823 0
M  V30 11 C -0.393292 2.785318 -0.993674 0
M  V30 12 N -0.914275 3.745920 -0.081131 0
M  V30 13 C -1.054615 3.341309 1.258592 0
M  V30 14 O -0.755748 2.183049 1.723480 0
M  V30 15 C -1.500143 3.846226 2.576986 0
M  V30 16 O -1.403442 2.926613 3.594768 0
M  V30 17 C -1.993177 1.729652 3.803213 0
M  V30 18 C -2.910568 0.970733 3.113205 0
M  V30 19 C -3.384121 -0.253801 3.519869 0
M  V30 20 C -2.922631 -0.782655 4.700700 0
M  V30 21 C -3.386071 -2.082210 5.184975 0
M  V30 22 C -3.704793 -3.003382 4.230864 0
M  V30 23 C -4.147340 -4.242177 4.723348 0
M  V30 24 C -4.243519 -4.489074 6.093483 0
M  V30 25 N -3.900101 -3.501001 6.945613 0
M  V30 26 C -3.475502 -2.306634 6.540371 0
M  V30 27 C -2.000407 -0.082969 5.451200 0
M  V30 28 C -1.555285 1.140730 5.004236 0
M  V30 29 C -1.229453 1.915721 -1.657473 0
M  V30 30 C -0.736678 0.958819 -2.561958 0
M  V30 31 C -1.684975 0.054068 -3.252790 0
M  V30 32 F -1.626463 0.215745 -4.624587 0
M  V30 33 F -1.386738 -1.262829 -2.927952 0
M  V30 34 F -2.949843 0.298894 -2.772132 0
M  V30 35 C 1.568974 -1.437047 -1.732190 0
M  V30 36 C 3.078414 -1.375138 -1.628060 0
M  V30 37 H 5.068502 -4.399156 -0.180626 0
M  V30 38 H 3.686557 -3.424391 0.337398 0
M  V30 39 H 5.229215 -2.645906 -0.270627 0
M  V30 40 H 4.792714 -4.109015 -2.430448 0
M  V30 41 H 3.102001 -4.283996 -1.791742 0
M  V30 42 H 3.491941 -3.498222 -4.136652 0
M  V30 43 H 3.568499 -1.682260 -4.470934 0
M  V30 44 H 1.311859 -3.359693 -3.326553 0
M  V30 45 H 1.400179 -2.428100 -4.918068 0
M  V30 46 H 2.264266 0.232550 -3.940040 0
M  V30 47 H 0.671280 -0.054400 -4.644140 0
M  V30 48 H 2.547346 1.847527 -2.189423 0
M  V30 49 H 1.605903 3.455387 -0.649689 0
M  V30 50 H -1.262326 4.751515 -0.042389 0
M  V30 51 H -0.842516 4.711608 2.811906 0
M  V30 52 H -2.527174 4.273962 2.505178 0
M  V30 53 H -3.261350 1.409197 2.209819 0
M  V30 54 H -4.093605 -0.754575 2.913026 0
M  V30 55 H -3.638697 -2.833931 3.184745 0
M  V30 56 H -4.423129 -5.041784 4.069626 0
M  V30 57 H -4.580452 -5.434234 6.488168 0
M  V30 58 H -3.205926 -1.524940 7.255215 0
M  V30 59 H -1.662911 -0.533814 6.374608 0
M  V30 60 H -0.828233 1.589666 5.689019 0
M  V30 61 H -2.272121 2.013638 -1.440455 0
M  V30 62 H 1.302796 -2.470554 -1.377913 0
M  V30 63 H 1.091517 -0.697819 -1.059546 0
M  V30 64 H 3.385894 -0.365833 -1.966143 0
M  V30 65 H 3.438365 -1.494866 -0.583169 0
M  V30 END ATOM
M  V30 BEGIN BOND
M  V30 1 1 1 2
M  V30 2 1 2 3
M  V30 3 1 3 4
M  V30 4 1 4 5
M  V30 5 1 5 6
M  V30 6 1 6 7
M  V30 7 1 7 8
M  V30 8 2 8 9
M  V30 9 1 9 10
M  V30 10 2 10 11
M  V30 11 1 11 12
M  V30 12 1 12 13
M  V30 13 2 13 14
M  V30 14 1 13 15
M  V30 15 1 15 16
M  V30 16 1 16 17
M  V30 17 2 17 18
M  V30 18 1 18 19
M  V30 19 2 19 20
M  V30 20 1 20 21
M  V30 21 2 21 22
M  V30 22 1 22 23
M  V30 23 2 23 24
M  V30 24 1 24 25
M  V30 25 2 25 26
M  V30 26 1 20 27
M  V30 27 2 27 28
M  V30 28 1 11 29
M  V30 29 2 29 30
M  V30 30 1 30 31
M  V30 31 1 31 32
M  V30 32 1 31 33
M  V30 33 1 31 34
M  V30 34 1 6 35
M  V30 35 1 35 36
M  V30 36 1 36 3
M  V30 37 1 30 8
M  V30 38 1 28 17
M  V30 39 1 26 21
M  V30 40 1 1 37
M  V30 41 1 1 38
M  V30 42 1 1 39
M  V30 43 1 2 40
M  V30 44 1 2 41
M  V30 45 1 4 42
M  V30 46 1 4 43
M  V30 47 1 5 44
M  V30 48 1 5 45
M  V30 49 1 7 46
M  V30 50 1 7 47
M  V30 51 1 9 48
M  V30 52 1 10 49
M  V30 53 1 12 50
M  V30 54 1 15 51
M  V30 55 1 15 52
M  V30 56 1 18 53
M  V30 57 1 19 54
M  V30 58 1 22 55
M  V30 59 1 23 56
M  V30 60 1 24 57
M  V30 61 1 26 58
M  V30 62 1 27 59
M  V30 63 1 28 60
M  V30 64 1 29 61
M  V30 65 1 35 62
M  V30 66 1 35 63
M  V30 67 1 36 64
M  V30 68 1 36 65
M  V30 END BOND
M  V30 END CTAB
M  END
>  <Dataset>  (976) 
ChEMBL_Kinases

>  <Ligand_Instance>  (976) 
nan

>  <PDB_ID>  (976) 
nan

>  <Standardized_SMILES>  (976) 
CCN1CCN(Cc2ccc(NC(=O)COc3ccc(-c4cccnc4)cc3)cc2C(F)(F)F)CC1

>  <Name>  (976) 
nan

>  <Pocket>  (976) 
nan

>  <ATP_Site>  (976) 
nan

>  <Peripheral>  (976) 
nan

>  <Num_H_Atoms_ProtBoundConf>  (976) 
nan

>  <Num_Resolved_Atoms>  (976) 
nan

>  <Num_Not_Resolved_Atoms>  (976) 
nan

$$$$
CHEMBL3799117
     RDKit          3D

  0  0  0  0  0  0  0  0  0  0999 V3000
M  V30 BEGIN CTAB
M  V30 COUNTS 46 49 0 0 0
M  V30 BEGIN ATOM
M  V30 1 C -2.608902 -3.959105 -0.574212 0
M  V30 2 C -1.204206 -4.246099 -0.941315 0
M  V30 3 C -0.412610 -3.151098 -1.221180 0
M  V30 4 C 0.904730 -3.366371 -1.568507 0
M  V30 5 C 1.910884 -2.388362 -1.900354 0
M  V30 6 N 2.784712 -2.437859 -2.926471 0
M  V30 7 N 3.561162 -1.388989 -2.941168 0
M  V30 8 C 3.218674 -0.589254 -1.898444 0
M  V30 9 C 3.668427 0.620071 -1.412952 0
M  V30 10 C 3.099816 1.216941 -0.281651 0
M  V30 11 C 2.063377 0.594170 0.376018 0
M  V30 12 C 1.486868 1.255165 1.568761 0
M  V30 13 O 2.052339 2.371908 1.847396 0
M  V30 14 N 0.416894 0.757179 2.366990 0
M  V30 15 C 0.024488 1.581420 3.486360 0
M  V30 16 C 0.207282 0.803921 4.754434 0
M  V30 17 C -1.360215 2.055195 3.249988 0
M  V30 18 C -2.469715 1.404770 2.775261 0
M  V30 19 Cl -2.276947 -0.274224 2.406178 0
M  V30 20 C -3.689766 2.017554 2.603724 0
M  V30 21 N -3.842592 3.332525 2.909661 0
M  V30 22 C -2.818416 4.061081 3.382393 0
M  V30 23 Cl -3.048714 5.730634 3.761222 0
M  V30 24 C -1.615043 3.405199 3.537653 0
M  V30 25 Cl -0.306878 4.422598 4.164523 0
M  V30 26 C 1.641054 -0.597020 -0.125552 0
M  V30 27 C 2.180640 -1.202606 -1.231230 0
M  V30 28 C 1.382394 -4.673565 -1.623012 0
M  V30 29 C 0.568919 -5.750688 -1.338203 0
M  V30 30 N -0.723705 -5.502426 -0.999540 0
M  V30 31 H -3.132429 -4.929565 -0.452828 0
M  V30 32 H -2.691635 -3.321680 0.327846 0
M  V30 33 H -3.080393 -3.484786 -1.460580 0
M  V30 34 H -0.711039 -2.111189 -1.200130 0
M  V30 35 H 4.332154 -1.136490 -3.603414 0
M  V30 36 H 4.475018 1.089714 -1.937109 0
M  V30 37 H 3.537876 2.162286 0.000279 0
M  V30 38 H 0.133957 -0.149276 1.954951 0
M  V30 39 H 0.722156 2.459371 3.566136 0
M  V30 40 H 1.032870 0.077509 4.598912 0
M  V30 41 H 0.519755 1.455103 5.575033 0
M  V30 42 H -0.682849 0.174110 4.996730 0
M  V30 43 H -4.495462 1.421324 2.225781 0
M  V30 44 H 0.845883 -1.122621 0.339755 0
M  V30 45 H 2.391808 -4.953980 -1.882464 0
M  V30 46 H 0.895675 -6.778964 -1.367764 0
M  V30 END ATOM
M  V30 BEGIN BOND
M  V30 1 1 1 2
M  V30 2 2 2 3
M  V30 3 1 3 4
M  V30 4 1 4 5
M  V30 5 2 5 6
M  V30 6 1 6 7
M  V30 7 1 7 8
M  V30 8 2 8 9
M  V30 9 1 9 10
M  V30 10 2 10 11
M  V30 11 1 11 12
M  V30 12 2 12 13
M  V30 13 1 12 14
M  V30 14 1 14 15
M  V30 15 1 15 16
M  V30 16 1 15 17
M  V30 17 2 17 18
M  V30 18 1 18 19
M  V30 19 1 18 20
M  V30 20 2 20 21
M  V30 21 1 21 22
M  V30 22 1 22 23
M  V30 23 2 22 24
M  V30 24 1 24 25
M  V30 25 1 11 26
M  V30 26 2 26 27
M  V30 27 2 4 28
M  V30 28 1 28 29
M  V30 29 2 29 30
M  V30 30 1 30 2
M  V30 31 1 27 5
M  V30 32 1 27 8
M  V30 33 1 24 17
M  V30 34 1 1 31
M  V30 35 1 1 32
M  V30 36 1 1 33
M  V30 37 1 3 34
M  V30 38 1 7 35
M  V30 39 1 9 36
M  V30 40 1 10 37
M  V30 41 1 14 38
M  V30 42 1 15 39
M  V30 43 1 16 40
M  V30 44 1 16 41
M  V30 45 1 16 42
M  V30 46 1 20 43
M  V30 47 1 26 44
M  V30 48 1 28 45
M  V30 49 1 29 46
M  V30 END BOND
M  V30 END CTAB
M  END
>  <Dataset>  (977) 
ChEMBL_Kinases

>  <Ligand_Instance>  (977) 
nan

>  <PDB_ID>  (977) 
nan

>  <Standardized_SMILES>  (977) 
Cc1cc(-c2n[nH]c3ccc(C(=O)NC(C)c4c(Cl)cnc(Cl)c4Cl)cc23)ccn1

>  <Name>  (977) 
nan

>  <Pocket>  (977) 
nan

>  <ATP_Site>  (977) 
nan

>  <Peripheral>  (977) 
nan

>  <Num_H_Atoms_ProtBoundConf>  (977) 
nan

>  <Num_Resolved_Atoms>  (977) 
nan

>  <Num_Not_Resolved_Atoms>  (977) 
nan

$$$$
CHEMBL380625
     RDKit          3D

  0  0  0  0  0  0  0  0  0  0999 V3000
M  V30 BEGIN CTAB
M  V30 COUNTS 45 48 0 0 0
M  V30 BEGIN ATOM
M  V30 1 O 1.156723 -5.459661 -0.011652 0
M  V30 2 C 0.016270 -5.258231 0.477347 0
M  V30 3 N -0.289363 -4.035519 1.082678 0
M  V30 4 C 0.376432 -2.806805 1.343483 0
M  V30 5 C 0.345737 -1.763638 0.450982 0
M  V30 6 C 0.981403 -0.552852 0.668867 0
M  V30 7 C 0.941790 0.555562 -0.291673 0
M  V30 8 C 0.870624 0.342869 -1.653072 0
M  V30 9 C 0.837932 1.447108 -2.475122 0
M  V30 10 N 0.871379 2.682993 -2.014632 0
M  V30 11 C 0.940337 2.967697 -0.703347 0
M  V30 12 N 0.990038 4.320897 -0.293436 0
M  V30 13 C 0.941682 5.005055 0.943914 0
M  V30 14 C 1.617496 6.178314 1.226547 0
M  V30 15 C 1.490590 6.782229 2.454644 0
M  V30 16 C 0.702932 6.265001 3.446737 0
M  V30 17 C 0.023183 5.089427 3.168812 0
M  V30 18 C 0.147359 4.473868 1.928339 0
M  V30 19 C 0.973828 1.871014 0.121065 0
M  V30 20 C 1.666681 -0.452029 1.868039 0
M  V30 21 C 1.709008 -1.489327 2.777627 0
M  V30 22 N 1.065934 -2.638183 2.496365 0
M  V30 23 C -0.992747 -6.307534 0.412075 0
M  V30 24 C -0.587523 -7.469645 -0.210724 0
M  V30 25 C -1.508372 -8.520554 -0.308160 0
M  V30 26 C -2.791305 -8.352181 0.225039 0
M  V30 27 N -3.128688 -7.191895 0.822413 0
M  V30 28 C -2.262103 -6.166552 0.929010 0
M  V30 29 H -1.199060 -3.770748 1.515385 0
M  V30 30 H -0.195658 -1.857026 -0.485608 0
M  V30 31 H 0.841817 -0.657918 -2.055523 0
M  V30 32 H 0.781961 1.281108 -3.549491 0
M  V30 33 H 1.083212 5.043916 -1.044927 0
M  V30 34 H 2.237526 6.586300 0.445856 0
M  V30 35 H 2.033859 7.700670 2.644146 0
M  V30 36 H 0.637386 6.777478 4.394310 0
M  V30 37 H -0.584583 4.744153 4.017899 0
M  V30 38 H -0.464020 3.596471 1.921079 0
M  V30 39 H 1.041056 2.000389 1.178329 0
M  V30 40 H 2.167467 0.503905 2.037747 0
M  V30 41 H 2.271793 -1.305511 3.681981 0
M  V30 42 H 0.395750 -7.647586 -0.639676 0
M  V30 43 H -1.239008 -9.464948 -0.792407 0
M  V30 44 H -3.522650 -9.162271 0.157834 0
M  V30 45 H -2.565269 -5.258815 1.411048 0
M  V30 END ATOM
M  V30 BEGIN BOND
M  V30 1 2 1 2
M  V30 2 1 2 3
M  V30 3 1 3 4
M  V30 4 2 4 5
M  V30 5 1 5 6
M  V30 6 1 6 7
M  V30 7 2 7 8
M  V30 8 1 8 9
M  V30 9 2 9 10
M  V30 10 1 10 11
M  V30 11 1 11 12
M  V30 12 1 12 13
M  V30 13 2 13 14
M  V30 14 1 14 15
M  V30 15 2 15 16
M  V30 16 1 16 17
M  V30 17 2 17 18
M  V30 18 2 11 19
M  V30 19 2 6 20
M  V30 20 1 20 21
M  V30 21 2 21 22
M  V30 22 1 2 23
M  V30 23 2 23 24
M  V30 24 1 24 25
M  V30 25 2 25 26
M  V30 26 1 26 27
M  V30 27 2 27 28
M  V30 28 1 22 4
M  V30 29 1 28 23
M  V30 30 1 19 7
M  V30 31 1 18 13
M  V30 32 1 3 29
M  V30 33 1 5 30
M  V30 34 1 8 31
M  V30 35 1 9 32
M  V30 36 1 12 33
M  V30 37 1 14 34
M  V30 38 1 15 35
M  V30 39 1 16 36
M  V30 40 1 17 37
M  V30 41 1 18 38
M  V30 42 1 19 39
M  V30 43 1 20 40
M  V30 44 1 21 41
M  V30 45 1 24 42
M  V30 46 1 25 43
M  V30 47 1 26 44
M  V30 48 1 28 45
M  V30 END BOND
M  V30 END CTAB
M  END
>  <Dataset>  (978) 
ChEMBL_Kinases

>  <Ligand_Instance>  (978) 
nan

>  <PDB_ID>  (978) 
nan

>  <Standardized_SMILES>  (978) 
O=C(Nc1cc(-c2ccnc(Nc3ccccc3)c2)ccn1)c1cccnc1

>  <Name>  (978) 
nan

>  <Pocket>  (978) 
nan

>  <ATP_Site>  (978) 
nan

>  <Peripheral>  (978) 
nan

>  <Num_H_Atoms_ProtBoundConf>  (978) 
nan

>  <Num_Resolved_Atoms>  (978) 
nan

>  <Num_Not_Resolved_Atoms>  (978) 
nan

$$$$
CHEMBL3806261
     RDKit          3D

  0  0  0  0  0  0  0  0  0  0999 V3000
M  V30 BEGIN CTAB
M  V30 COUNTS 66 69 0 0 0
M  V30 BEGIN ATOM
M  V30 1 C 3.383832 -4.057696 1.260514 0
M  V30 2 C 3.986742 -2.838415 0.622129 0
M  V30 3 N 3.807584 -2.778783 -0.794470 0
M  V30 4 C 2.433926 -2.581977 -1.204744 0
M  V30 5 C 2.046458 -1.134625 -0.985272 0
M  V30 6 N 2.791502 -0.270609 -1.833154 0
M  V30 7 C 2.979398 1.060497 -1.313017 0
M  V30 8 C 1.699651 1.757668 -1.058450 0
M  V30 9 C 1.320325 1.835197 0.286030 0
M  V30 10 C 0.132459 2.464675 0.600394 0
M  V30 11 C -0.607330 2.980276 -0.449093 0
M  V30 12 N -1.836603 3.616207 -0.029051 0
M  V30 13 C -2.791700 2.585392 -0.021067 0
M  V30 14 O -2.259661 1.471872 -0.377004 0
M  V30 15 C -4.236829 2.627261 0.325817 0
M  V30 16 N -4.809224 1.277301 0.198575 0
M  V30 17 C -4.404748 0.177135 1.032919 0
M  V30 18 C -4.882453 -1.121053 0.943720 0
M  V30 19 C -4.444778 -2.100335 1.792035 0
M  V30 20 C -3.516351 -1.860007 2.772182 0
M  V30 21 C -3.051394 -2.910038 3.675777 0
M  V30 22 C -2.995684 -4.198530 3.182678 0
M  V30 23 C -2.566807 -5.234138 3.982747 0
M  V30 24 C -2.180379 -5.027500 5.293347 0
M  V30 25 N -2.255496 -3.755949 5.717875 0
M  V30 26 C -2.662336 -2.721844 4.985566 0
M  V30 27 C -3.012819 -0.575048 2.895801 0
M  V30 28 C -3.472758 0.390529 2.027047 0
M  V30 29 C -0.243605 2.910349 -1.778108 0
M  V30 30 C 0.960478 2.273087 -2.104440 0
M  V30 31 C 1.401985 2.169959 -3.505884 0
M  V30 32 F 0.441334 2.782616 -4.322483 0
M  V30 33 F 2.535705 2.944091 -3.644792 0
M  V30 34 F 1.627733 0.905054 -3.950931 0
M  V30 35 C 3.966787 -0.887548 -2.346385 0
M  V30 36 C 4.680672 -1.749967 -1.333920 0
M  V30 37 H 4.111343 -4.516689 1.962802 0
M  V30 38 H 3.097534 -4.840836 0.532184 0
M  V30 39 H 2.518005 -3.773696 1.928724 0
M  V30 40 H 5.103950 -2.879588 0.789309 0
M  V30 41 H 3.656987 -1.945561 1.182789 0
M  V30 42 H 2.205107 -2.966145 -2.199949 0
M  V30 43 H 1.814688 -3.153334 -0.452241 0
M  V30 44 H 2.262916 -0.936675 0.101033 0
M  V30 45 H 0.944456 -0.992693 -1.090336 0
M  V30 46 H 3.622562 0.998290 -0.414533 0
M  V30 47 H 3.551016 1.640782 -2.057212 0
M  V30 48 H 1.930033 1.418721 1.065550 0
M  V30 49 H -0.176641 2.534409 1.633114 0
M  V30 50 H -2.234937 4.563015 0.258425 0
M  V30 51 H -4.473831 3.101179 1.274658 0
M  V30 52 H -4.740621 3.219128 -0.465254 0
M  V30 53 H -5.543428 1.013404 -0.496579 0
M  V30 54 H -5.626357 -1.299591 0.153399 0
M  V30 55 H -4.848509 -3.108546 1.684617 0
M  V30 56 H -3.294512 -4.386208 2.153693 0
M  V30 57 H -2.545900 -6.218681 3.538317 0
M  V30 58 H -1.844500 -5.858480 5.909560 0
M  V30 59 H -2.710311 -1.700717 5.365616 0
M  V30 60 H -2.287986 -0.418086 3.672151 0
M  V30 61 H -3.001926 1.361566 2.234234 0
M  V30 62 H -0.870213 3.334384 -2.537844 0
M  V30 63 H 3.634054 -1.581464 -3.159382 0
M  V30 64 H 4.656441 -0.115799 -2.712687 0
M  V30 65 H 5.218314 -1.179588 -0.562751 0
M  V30 66 H 5.463430 -2.311907 -1.917059 0
M  V30 END ATOM
M  V30 BEGIN BOND
M  V30 1 1 1 2
M  V30 2 1 2 3
M  V30 3 1 3 4
M  V30 4 1 4 5
M  V30 5 1 5 6
M  V30 6 1 6 7
M  V30 7 1 7 8
M  V30 8 2 8 9
M  V30 9 1 9 10
M  V30 10 2 10 11
M  V30 11 1 11 12
M  V30 12 1 12 13
M  V30 13 2 13 14
M  V30 14 1 13 15
M  V30 15 1 15 16
M  V30 16 1 16 17
M  V30 17 2 17 18
M  V30 18 1 18 19
M  V30 19 2 19 20
M  V30 20 1 20 21
M  V30 21 2 21 22
M  V30 22 1 22 23
M  V30 23 2 23 24
M  V30 24 1 24 25
M  V30 25 2 25 26
M  V30 26 1 20 27
M  V30 27 2 27 28
M  V30 28 1 11 29
M  V30 29 2 29 30
M  V30 30 1 30 31
M  V30 31 1 31 32
M  V30 32 1 31 33
M  V30 33 1 31 34
M  V30 34 1 6 35
M  V30 35 1 35 36
M  V30 36 1 36 3
M  V30 37 1 30 8
M  V30 38 1 28 17
M  V30 39 1 26 21
M  V30 40 1 1 37
M  V30 41 1 1 38
M  V30 42 1 1 39
M  V30 43 1 2 40
M  V30 44 1 2 41
M  V30 45 1 4 42
M  V30 46 1 4 43
M  V30 47 1 5 44
M  V30 48 1 5 45
M  V30 49 1 7 46
M  V30 50 1 7 47
M  V30 51 1 9 48
M  V30 52 1 10 49
M  V30 53 1 12 50
M  V30 54 1 15 51
M  V30 55 1 15 52
M  V30 56 1 16 53
M  V30 57 1 18 54
M  V30 58 1 19 55
M  V30 59 1 22 56
M  V30 60 1 23 57
M  V30 61 1 24 58
M  V30 62 1 26 59
M  V30 63 1 27 60
M  V30 64 1 28 61
M  V30 65 1 29 62
M  V30 66 1 35 63
M  V30 67 1 35 64
M  V30 68 1 36 65
M  V30 69 1 36 66
M  V30 END BOND
M  V30 END CTAB
M  END
>  <Dataset>  (979) 
ChEMBL_Kinases

>  <Ligand_Instance>  (979) 
nan

>  <PDB_ID>  (979) 
nan

>  <Standardized_SMILES>  (979) 
CCN1CCN(Cc2ccc(NC(=O)CNc3ccc(-c4cccnc4)cc3)cc2C(F)(F)F)CC1

>  <Name>  (979) 
nan

>  <Pocket>  (979) 
nan

>  <ATP_Site>  (979) 
nan

>  <Peripheral>  (979) 
nan

>  <Num_H_Atoms_ProtBoundConf>  (979) 
nan

>  <Num_Resolved_Atoms>  (979) 
nan

>  <Num_Not_Resolved_Atoms>  (979) 
nan

$$$$
CHEMBL4089551
     RDKit          3D

  0  0  0  0  0  0  0  0  0  0999 V3000
M  V30 BEGIN CTAB
M  V30 COUNTS 32 34 0 0 0
M  V30 BEGIN ATOM
M  V30 1 N 2.167392 -0.636033 3.407214 0
M  V30 2 C 2.490004 -0.825710 2.312807 0
M  V30 3 C 2.908295 -1.074165 0.967227 0
M  V30 4 C 4.190540 -1.512726 0.664657 0
M  V30 5 N 4.288400 -1.677516 -0.667287 0
M  V30 6 C 3.114242 -1.361462 -1.243237 0
M  V30 7 N 2.654942 -1.355713 -2.506482 0
M  V30 8 C 1.383615 -0.987390 -2.746418 0
M  V30 9 N 0.923931 -0.992115 -4.099117 0
M  V30 10 N 0.559125 -0.623031 -1.749958 0
M  V30 11 C 0.946720 -0.600268 -0.438327 0
M  V30 12 C -0.053967 -0.193483 0.506142 0
M  V30 13 C -0.089098 0.748236 1.510540 0
M  V30 14 C -1.186372 0.936132 2.321033 0
M  V30 15 C -2.328036 0.181991 2.170089 0
M  V30 16 S -3.631067 0.543231 3.277234 0
M  V30 17 N -3.520497 -0.408360 4.707983 0
M  V30 18 O -4.926880 0.251433 2.537751 0
M  V30 19 O -3.618866 2.003309 3.599063 0
M  V30 20 C -2.341290 -0.773454 1.177144 0
M  V30 21 C -1.232414 -0.945205 0.377635 0
M  V30 22 C 2.251721 -0.984916 -0.237515 0
M  V30 23 H 5.002474 -1.702157 1.352820 0
M  V30 24 H 5.162991 -2.006158 -1.167462 0
M  V30 25 H 0.535525 -1.658859 -4.808059 0
M  V30 26 H 0.532740 -1.690432 -4.795598 0
M  V30 27 H 0.826084 1.317889 1.569831 0
M  V30 28 H -1.047067 1.717595 3.061265 0
M  V30 29 H -3.143332 -1.366663 4.505359 0
M  V30 30 H -4.479711 -0.590145 5.112532 0
M  V30 31 H -3.249992 -1.339331 1.092491 0
M  V30 32 H -1.392265 -1.738820 -0.363984 0
M  V30 END ATOM
M  V30 BEGIN BOND
M  V30 1 3 1 2
M  V30 2 1 2 3
M  V30 3 2 3 4
M  V30 4 1 4 5
M  V30 5 1 5 6
M  V30 6 2 6 7
M  V30 7 1 7 8
M  V30 8 1 8 9
M  V30 9 2 8 10
M  V30 10 1 10 11
M  V30 11 1 11 12
M  V30 12 2 12 13
M  V30 13 1 13 14
M  V30 14 2 14 15
M  V30 15 1 15 16
M  V30 16 1 16 17
M  V30 17 2 16 18
M  V30 18 2 16 19
M  V30 19 1 15 20
M  V30 20 2 20 21
M  V30 21 2 11 22
M  V30 22 1 22 3
M  V30 23 1 22 6
M  V30 24 1 21 12
M  V30 25 1 4 23
M  V30 26 1 5 24
M  V30 27 1 9 25
M  V30 28 1 9 26
M  V30 29 1 13 27
M  V30 30 1 14 28
M  V30 31 1 17 29
M  V30 32 1 17 30
M  V30 33 1 20 31
M  V30 34 1 21 32
M  V30 END BOND
M  V30 END CTAB
M  END
>  <Dataset>  (980) 
ChEMBL_Kinases

>  <Ligand_Instance>  (980) 
nan

>  <PDB_ID>  (980) 
nan

>  <Standardized_SMILES>  (980) 
N#Cc1c[nH]c2nc(N)nc(-c3ccc(S(N)(=O)=O)cc3)c12

>  <Name>  (980) 
nan

>  <Pocket>  (980) 
nan

>  <ATP_Site>  (980) 
nan

>  <Peripheral>  (980) 
nan

>  <Num_H_Atoms_ProtBoundConf>  (980) 
nan

>  <Num_Resolved_Atoms>  (980) 
nan

>  <Num_Not_Resolved_Atoms>  (980) 
nan

$$$$
CHEMBL4089338
     RDKit          3D

  0  0  0  0  0  0  0  0  0  0999 V3000
M  V30 BEGIN CTAB
M  V30 COUNTS 51 55 0 0 0
M  V30 BEGIN ATOM
M  V30 1 C 0.863020 -1.193040 4.280634 0
M  V30 2 C 0.928373 -2.686535 4.239475 0 CFG=2
M  V30 3 C 1.430828 -3.176171 2.894248 0
M  V30 4 N 0.468097 -2.979127 1.854679 0
M  V30 5 C 0.815377 -2.144792 0.746585 0
M  V30 6 O 1.986743 -1.751521 0.948427 0
M  V30 7 C -0.068608 -1.849541 -0.370615 0
M  V30 8 N -0.153670 -0.535156 -0.632347 0
M  V30 9 C -0.916209 -0.029435 -1.606722 0
M  V30 10 N -0.982011 1.363692 -1.859675 0
M  V30 11 C -0.210854 2.320439 -1.148547 0
M  V30 12 C 0.734977 2.104109 -0.171583 0
M  V30 13 C 1.273286 3.298448 0.290358 0
M  V30 14 C 2.329880 3.464480 1.344907 0
M  V30 15 C 2.528137 2.392237 2.319825 0
M  V30 16 C 3.528886 2.593814 1.215301 0
M  V30 17 N 0.633492 4.222010 -0.426237 0
M  V30 18 N -0.213729 3.663951 -1.246900 0
M  V30 19 C -1.633480 -0.932853 -2.355205 0
M  V30 20 C -2.449489 -0.526642 -3.381959 0
M  V30 21 C -3.191103 -1.414531 -4.162896 0
M  V30 22 Br -4.321156 -0.828672 -5.584016 0
M  V30 23 C -3.118057 -2.771665 -3.911902 0
M  V30 24 C -2.299036 -3.207676 -2.878758 0
M  V30 25 C -1.576538 -2.286780 -2.123085 0
M  V30 26 N -0.772303 -2.720879 -1.107567 0
M  V30 27 C -0.738834 -3.718996 2.163124 0
M  V30 28 C -1.313858 -3.144791 3.455416 0
M  V30 29 N -0.336217 -3.345874 4.484415 0
M  V30 30 H 1.076553 -0.782806 5.292019 0
M  V30 31 H -0.113125 -0.793860 3.951457 0
M  V30 32 H 1.670570 -0.766986 3.632184 0
M  V30 33 H 1.621328 -3.023077 5.035920 0
M  V30 34 H 2.377589 -2.642613 2.679347 0
M  V30 35 H 1.603155 -4.278445 3.011941 0
M  V30 36 H -1.589333 1.812047 -2.571972 0
M  V30 37 H 1.092462 1.175969 0.257333 0
M  V30 38 H 2.536319 4.517919 1.587141 0
M  V30 39 H 2.828158 2.685163 3.349848 0
M  V30 40 H 1.903171 1.468347 2.209344 0
M  V30 41 H 3.574498 1.842732 0.383543 0
M  V30 42 H 4.517934 3.028494 1.418644 0
M  V30 43 H 0.772974 5.254361 -0.359243 0
M  V30 44 H -2.560755 0.507848 -3.645426 0
M  V30 45 H -3.644253 -3.544192 -4.448440 0
M  V30 46 H -2.190865 -4.250095 -2.622418 0
M  V30 47 H -1.491167 -3.659227 1.373999 0
M  V30 48 H -0.468821 -4.783192 2.417003 0
M  V30 49 H -2.231618 -3.684768 3.768003 0
M  V30 50 H -1.590279 -2.082190 3.284383 0
M  V30 51 H -0.672739 -3.306638 5.450670 0
M  V30 END ATOM
M  V30 BEGIN BOND
M  V30 1 1 1 2
M  V30 2 1 2 3
M  V30 3 1 3 4
M  V30 4 1 4 5
M  V30 5 2 5 6
M  V30 6 1 5 7
M  V30 7 2 7 8
M  V30 8 1 8 9
M  V30 9 1 9 10
M  V30 10 1 10 11
M  V30 11 1 11 12
M  V30 12 2 12 13
M  V30 13 1 13 14
M  V30 14 1 14 15
M  V30 15 1 15 16
M  V30 16 1 13 17
M  V30 17 1 17 18
M  V30 18 2 9 19
M  V30 19 1 19 20
M  V30 20 2 20 21
M  V30 21 1 21 22
M  V30 22 1 21 23
M  V30 23 2 23 24
M  V30 24 1 24 25
M  V30 25 2 25 26
M  V30 26 1 4 27
M  V30 27 1 27 28
M  V30 28 1 28 29
M  V30 29 1 29 2
M  V30 30 1 26 7
M  V30 31 2 18 11
M  V30 32 1 25 19
M  V30 33 1 16 14
M  V30 34 1 1 30
M  V30 35 1 1 31
M  V30 36 1 1 32
M  V30 37 1 2 33 CFG=1
M  V30 38 1 3 34
M  V30 39 1 3 35
M  V30 40 1 10 36
M  V30 41 1 12 37
M  V30 42 1 14 38
M  V30 43 1 15 39
M  V30 44 1 15 40
M  V30 45 1 16 41
M  V30 46 1 16 42
M  V30 47 1 17 43
M  V30 48 1 20 44
M  V30 49 1 23 45
M  V30 50 1 24 46
M  V30 51 1 27 47
M  V30 52 1 27 48
M  V30 53 1 28 49
M  V30 54 1 28 50
M  V30 55 1 29 51
M  V30 END BOND
M  V30 END CTAB
M  END
>  <Dataset>  (981) 
ChEMBL_Kinases

>  <Ligand_Instance>  (981) 
nan

>  <PDB_ID>  (981) 
nan

>  <Standardized_SMILES>  (981) 
C[C@@H]1CN(C(=O)c2nc(Nc3cc(C4CC4)[nH]n3)c3cc(Br)ccc3n2)CCN1

>  <Name>  (981) 
nan

>  <Pocket>  (981) 
nan

>  <ATP_Site>  (981) 
nan

>  <Peripheral>  (981) 
nan

>  <Num_H_Atoms_ProtBoundConf>  (981) 
nan

>  <Num_Resolved_Atoms>  (981) 
nan

>  <Num_Not_Resolved_Atoms>  (981) 
nan

$$$$
CHEMBL380724
     RDKit          3D

  0  0  0  0  0  0  0  0  0  0999 V3000
M  V30 BEGIN CTAB
M  V30 COUNTS 43 46 0 0 0
M  V30 BEGIN ATOM
M  V30 1 O -0.176413 -4.767212 0.122732 0
M  V30 2 C 0.261011 -5.220460 1.210800 0
M  V30 3 N 0.525226 -4.308531 2.252062 0
M  V30 4 C 0.379358 -2.899865 2.294724 0
M  V30 5 C -0.052542 -2.098307 1.266689 0
M  V30 6 C -0.190539 -0.739062 1.369409 0
M  V30 7 C -0.651092 0.115210 0.281324 0
M  V30 8 C -1.547565 -0.460745 -0.590507 0
M  V30 9 C -2.010866 0.340247 -1.632303 0
M  V30 10 N -1.589550 1.583692 -1.746324 0
M  V30 11 C -0.722172 2.194011 -0.931920 0
M  V30 12 N -0.353564 3.548077 -1.130289 0
M  V30 13 C 0.595287 4.403299 -0.525669 0
M  V30 14 C 0.319310 5.765833 -0.356646 0
M  V30 15 C 1.231777 6.615510 0.211949 0
M  V30 16 C 2.451619 6.136206 0.631233 0
M  V30 17 C 2.751513 4.806018 0.478122 0
M  V30 18 C 1.817397 3.961260 -0.098153 0
M  V30 19 C -0.253636 1.416809 0.103757 0
M  V30 20 C 0.113742 -0.114994 2.558278 0
M  V30 21 C 0.545728 -0.931017 3.580055 0
M  V30 22 N 0.665561 -2.258907 3.433095 0
M  V30 23 C 0.473199 -6.658096 1.346777 0
M  V30 24 C 0.963396 -7.270385 2.478328 0
M  V30 25 C 1.005260 -8.636685 2.177154 0
M  V30 26 C 0.529892 -8.757848 0.863103 0
M  V30 27 O 0.236626 -7.567384 0.436543 0
M  V30 28 H 0.883925 -4.783261 3.112094 0
M  V30 29 H -0.303903 -2.517282 0.320450 0
M  V30 30 H -1.928702 -1.477939 -0.542360 0
M  V30 31 H -2.709687 -0.068740 -2.331892 0
M  V30 32 H -0.888927 4.052758 -1.893489 0
M  V30 33 H -0.663872 6.096399 -0.707170 0
M  V30 34 H 0.877463 7.648103 0.277604 0
M  V30 35 H 3.117300 6.846336 1.066471 0
M  V30 36 H 3.730035 4.484374 0.826984 0
M  V30 37 H 2.161786 2.958831 -0.177353 0
M  V30 38 H 0.429617 1.784885 0.825945 0
M  V30 39 H 0.027679 0.950141 2.707042 0
M  V30 40 H 0.811748 -0.547116 4.556889 0
M  V30 41 H 1.272085 -6.860156 3.430466 0
M  V30 42 H 1.355692 -9.396404 2.892221 0
M  V30 43 H 0.484765 -9.746985 0.440566 0
M  V30 END ATOM
M  V30 BEGIN BOND
M  V30 1 2 1 2
M  V30 2 1 2 3
M  V30 3 1 3 4
M  V30 4 2 4 5
M  V30 5 1 5 6
M  V30 6 1 6 7
M  V30 7 2 7 8
M  V30 8 1 8 9
M  V30 9 2 9 10
M  V30 10 1 10 11
M  V30 11 1 11 12
M  V30 12 1 12 13
M  V30 13 2 13 14
M  V30 14 1 14 15
M  V30 15 2 15 16
M  V30 16 1 16 17
M  V30 17 2 17 18
M  V30 18 2 11 19
M  V30 19 2 6 20
M  V30 20 1 20 21
M  V30 21 2 21 22
M  V30 22 1 2 23
M  V30 23 2 23 24
M  V30 24 1 24 25
M  V30 25 2 25 26
M  V30 26 1 26 27
M  V30 27 1 22 4
M  V30 28 1 27 23
M  V30 29 1 19 7
M  V30 30 1 18 13
M  V30 31 1 3 28
M  V30 32 1 5 29
M  V30 33 1 8 30
M  V30 34 1 9 31
M  V30 35 1 12 32
M  V30 36 1 14 33
M  V30 37 1 15 34
M  V30 38 1 16 35
M  V30 39 1 17 36
M  V30 40 1 18 37
M  V30 41 1 19 38
M  V30 42 1 20 39
M  V30 43 1 21 40
M  V30 44 1 24 41
M  V30 45 1 25 42
M  V30 46 1 26 43
M  V30 END BOND
M  V30 END CTAB
M  END
>  <Dataset>  (982) 
ChEMBL_Kinases

>  <Ligand_Instance>  (982) 
nan

>  <PDB_ID>  (982) 
nan

>  <Standardized_SMILES>  (982) 
O=C(Nc1cc(-c2ccnc(Nc3ccccc3)c2)ccn1)c1ccco1

>  <Name>  (982) 
nan

>  <Pocket>  (982) 
nan

>  <ATP_Site>  (982) 
nan

>  <Peripheral>  (982) 
nan

>  <Num_H_Atoms_ProtBoundConf>  (982) 
nan

>  <Num_Resolved_Atoms>  (982) 
nan

>  <Num_Not_Resolved_Atoms>  (982) 
nan

$$$$
CHEMBL3808445
     RDKit          3D

  0  0  0  0  0  0  0  0  0  0999 V3000
M  V30 BEGIN CTAB
M  V30 COUNTS 45 49 0 0 0
M  V30 BEGIN ATOM
M  V30 1 C 4.555938 -2.517467 0.955315 0
M  V30 2 C 3.644539 -2.032785 -0.081913 0
M  V30 3 N 3.590667 -1.881723 -1.424629 0
M  V30 4 C 2.437978 -1.370885 -1.951875 0
M  V30 5 C 2.320523 -1.208403 -3.310111 0
M  V30 6 C 1.169128 -0.708878 -3.879777 0
M  V30 7 C 0.046470 -0.329928 -3.175499 0
M  V30 8 C 0.194136 -0.502561 -1.828194 0
M  V30 9 C 1.328608 -0.997713 -1.225745 0
M  V30 10 N 1.421570 -1.161371 0.102500 0
M  V30 11 C 2.546351 -1.663653 0.653235 0
M  V30 12 N 2.138665 -1.631841 2.011353 0
M  V30 13 C 1.958658 -0.427154 2.839087 0
M  V30 14 C 0.942771 -0.671695 3.846282 0
M  V30 15 C -0.144102 0.141634 3.860427 0
M  V30 16 C -0.542133 1.275085 3.042773 0
M  V30 17 C -1.817426 1.163273 2.303831 0 CFG=2
M  V30 18 C -2.939274 0.520867 3.070039 0
M  V30 19 N -4.127798 0.473801 2.195740 0
M  V30 20 C -3.993502 -0.150309 0.894962 0
M  V30 21 O -4.920993 -0.723117 0.271597 0
M  V30 22 C -2.699623 -0.114027 0.263664 0
M  V30 23 C -2.162485 -0.595020 -0.937795 0
M  V30 24 C -0.849824 -0.206927 -0.865214 0
M  V30 25 N -0.586668 0.457102 0.268065 0
M  V30 26 C -1.714698 0.525797 0.984447 0
M  V30 27 H 5.460667 -2.975819 0.457907 0
M  V30 28 H 4.854757 -1.764075 1.700070 0
M  V30 29 H 4.137466 -3.392409 1.536244 0
M  V30 30 H 3.162076 -1.484937 -3.926983 0
M  V30 31 H 1.094615 -0.588002 -4.949711 0
M  V30 32 H -0.904754 0.064060 -3.472167 0
M  V30 33 H 2.102797 -2.682652 2.025896 0
M  V30 34 H 1.874737 0.407675 2.179160 0
M  V30 35 H 2.969531 -0.307906 3.355009 0
M  V30 36 H 1.003023 -1.457241 4.578299 0
M  V30 37 H -0.893476 -0.083399 4.641961 0
M  V30 38 H 0.239420 1.667220 2.366129 0
M  V30 39 H -0.687243 2.135341 3.773075 0
M  V30 40 H -2.166974 2.224315 2.101056 0
M  V30 41 H -3.191223 1.138638 3.931961 0
M  V30 42 H -2.606837 -0.504528 3.356799 0
M  V30 43 H -5.104214 0.848320 2.399164 0
M  V30 44 H -2.651063 -1.132903 -1.729267 0
M  V30 45 H 0.338051 0.853197 0.512984 0
M  V30 END ATOM
M  V30 BEGIN BOND
M  V30 1 1 1 2
M  V30 2 2 2 3
M  V30 3 1 3 4
M  V30 4 2 4 5
M  V30 5 1 5 6
M  V30 6 2 6 7
M  V30 7 1 7 8
M  V30 8 2 8 9
M  V30 9 1 9 10
M  V30 10 2 10 11
M  V30 11 1 11 12
M  V30 12 1 12 13
M  V30 13 1 13 14
M  V30 14 2 14 15
M  V30 15 1 15 16
M  V30 16 1 16 17
M  V30 17 1 17 18
M  V30 18 1 18 19
M  V30 19 1 19 20
M  V30 20 2 20 21
M  V30 21 1 20 22
M  V30 22 1 22 23
M  V30 23 2 23 24
M  V30 24 1 24 25
M  V30 25 1 25 26
M  V30 26 1 11 2
M  V30 27 1 26 17
M  V30 28 1 9 4
M  V30 29 2 26 22
M  V30 30 1 24 8
M  V30 31 1 1 27
M  V30 32 1 1 28
M  V30 33 1 1 29
M  V30 34 1 5 30
M  V30 35 1 6 31
M  V30 36 1 7 32
M  V30 37 1 12 33
M  V30 38 1 13 34
M  V30 39 1 13 35
M  V30 40 1 14 36
M  V30 41 1 15 37
M  V30 42 1 16 38
M  V30 43 1 16 39
M  V30 44 1 17 40 CFG=3
M  V30 45 1 18 41
M  V30 46 1 18 42
M  V30 47 1 19 43
M  V30 48 1 23 44
M  V30 49 1 25 45
M  V30 END BOND
M  V30 END CTAB
M  END
>  <Dataset>  (983) 
ChEMBL_Kinases

>  <Ligand_Instance>  (983) 
nan

>  <PDB_ID>  (983) 
nan

>  <Standardized_SMILES>  (983) 
Cc1nc2cccc3c2nc1NC/C=C\C[C@@H]1CNC(=O)c2cc-3[nH]c21

>  <Name>  (983) 
nan

>  <Pocket>  (983) 
nan

>  <ATP_Site>  (983) 
nan

>  <Peripheral>  (983) 
nan

>  <Num_H_Atoms_ProtBoundConf>  (983) 
nan

>  <Num_Resolved_Atoms>  (983) 
nan

>  <Num_Not_Resolved_Atoms>  (983) 
nan

$$$$
CHEMBL3808459
     RDKit          3D

  0  0  0  0  0  0  0  0  0  0999 V3000
M  V30 BEGIN CTAB
M  V30 COUNTS 46 49 0 0 0
M  V30 BEGIN ATOM
M  V30 1 C -0.747076 -1.080208 -2.880196 0
M  V30 2 C -1.396839 -1.650804 -1.664154 0
M  V30 3 C -2.562209 -0.814093 -1.173095 0
M  V30 4 N -3.113464 -1.427578 -0.008143 0
M  V30 5 C -2.384221 -1.557804 1.218952 0
M  V30 6 N -1.133757 -1.093904 1.369812 0
M  V30 7 C -0.530528 -1.247844 2.546643 0
M  V30 8 C 0.752200 -0.789009 2.745476 0
M  V30 9 C 1.525976 -0.098976 1.722089 0
M  V30 10 C 1.202942 0.273193 0.449242 0
M  V30 11 C 2.239607 0.912708 -0.159116 0
M  V30 12 C 3.260761 0.946843 0.766514 0
M  V30 13 N 2.801880 0.339736 1.865353 0
M  V30 14 C 4.580111 1.565423 0.483400 0
M  V30 15 C 4.419952 2.682281 -0.523790 0
M  V30 16 N 3.784667 2.120825 -1.700391 0
M  V30 17 C 2.490320 1.525726 -1.470843 0
M  V30 18 O 1.562462 1.506125 -2.342961 0
M  V30 19 C 1.328223 -0.982844 3.996051 0
M  V30 20 C 0.687338 -1.606866 5.045130 0
M  V30 21 C -0.598674 -2.071129 4.860585 0
M  V30 22 C -1.154347 -1.871990 3.618164 0
M  V30 23 N -2.413751 -2.346362 3.487759 0
M  V30 24 C -3.018120 -2.188022 2.297549 0
M  V30 25 C -4.410036 -2.696797 2.108871 0
M  V30 26 H -0.722560 -1.789317 -3.731391 0
M  V30 27 H -1.186944 -0.131819 -3.239432 0
M  V30 28 H 0.341567 -0.942164 -2.612204 0
M  V30 29 H -1.816358 -2.650492 -1.979170 0
M  V30 30 H -0.727796 -1.885565 -0.827001 0
M  V30 31 H -3.316310 -0.700266 -1.971568 0
M  V30 32 H -2.176168 0.209535 -0.962272 0
M  V30 33 H -4.088498 -1.791848 -0.066836 0
M  V30 34 H 0.284023 0.113784 -0.044655 0
M  V30 35 H 3.375208 0.219222 2.742774 0
M  V30 36 H 5.239171 0.809930 -0.013787 0
M  V30 37 H 5.068227 1.952931 1.395448 0
M  V30 38 H 5.419054 3.118267 -0.772663 0
M  V30 39 H 3.754599 3.472514 -0.096360 0
M  V30 40 H 4.121593 2.081345 -2.694195 0
M  V30 41 H 2.345806 -0.654984 4.257429 0
M  V30 42 H 1.148826 -1.750278 6.012398 0
M  V30 43 H -1.120463 -2.561461 5.663970 0
M  V30 44 H -5.097172 -1.924183 1.701022 0
M  V30 45 H -4.810811 -3.028244 3.077325 0
M  V30 46 H -4.320115 -3.562006 1.390171 0
M  V30 END ATOM
M  V30 BEGIN BOND
M  V30 1 1 1 2
M  V30 2 1 2 3
M  V30 3 1 3 4
M  V30 4 1 4 5
M  V30 5 2 5 6
M  V30 6 1 6 7
M  V30 7 2 7 8
M  V30 8 1 8 9
M  V30 9 2 9 10
M  V30 10 1 10 11
M  V30 11 2 11 12
M  V30 12 1 12 13
M  V30 13 1 12 14
M  V30 14 1 14 15
M  V30 15 1 15 16
M  V30 16 1 16 17
M  V30 17 2 17 18
M  V30 18 1 8 19
M  V30 19 2 19 20
M  V30 20 1 20 21
M  V30 21 2 21 22
M  V30 22 1 22 23
M  V30 23 2 23 24
M  V30 24 1 24 25
M  V30 25 1 24 5
M  V30 26 1 22 7
M  V30 27 1 13 9
M  V30 28 1 17 11
M  V30 29 1 1 26
M  V30 30 1 1 27
M  V30 31 1 1 28
M  V30 32 1 2 29
M  V30 33 1 2 30
M  V30 34 1 3 31
M  V30 35 1 3 32
M  V30 36 1 4 33
M  V30 37 1 10 34
M  V30 38 1 13 35
M  V30 39 1 14 36
M  V30 40 1 14 37
M  V30 41 1 15 38
M  V30 42 1 15 39
M  V30 43 1 16 40
M  V30 44 1 19 41
M  V30 45 1 20 42
M  V30 46 1 21 43
M  V30 47 1 25 44
M  V30 48 1 25 45
M  V30 49 1 25 46
M  V30 END BOND
M  V30 END CTAB
M  END
>  <Dataset>  (984) 
ChEMBL_Kinases

>  <Ligand_Instance>  (984) 
nan

>  <PDB_ID>  (984) 
nan

>  <Standardized_SMILES>  (984) 
CCCNc1nc2c(-c3cc4c([nH]3)CCNC4=O)cccc2nc1C

>  <Name>  (984) 
nan

>  <Pocket>  (984) 
nan

>  <ATP_Site>  (984) 
nan

>  <Peripheral>  (984) 
nan

>  <Num_H_Atoms_ProtBoundConf>  (984) 
nan

>  <Num_Resolved_Atoms>  (984) 
nan

>  <Num_Not_Resolved_Atoms>  (984) 
nan

$$$$
CHEMBL3808565
     RDKit          3D

  0  0  0  0  0  0  0  0  0  0999 V3000
M  V30 BEGIN CTAB
M  V30 COUNTS 62 66 0 0 0
M  V30 BEGIN ATOM
M  V30 1 C -0.283666 1.007684 5.986110 0
M  V30 2 C -0.609361 -0.122948 5.082478 0
M  V30 3 C 0.270331 -0.350494 4.133382 0
M  V30 4 C 1.516339 0.272002 3.777413 0
M  V30 5 O 2.231503 -0.122972 2.784980 0
M  V30 6 N 2.379885 1.320463 4.178154 0
M  V30 7 C 3.509360 1.339977 3.283895 0
M  V30 8 C 4.621477 0.602961 3.566740 0
M  V30 9 C 5.679547 0.669217 2.656270 0
M  V30 10 C 5.533134 1.472154 1.534354 0
M  V30 11 N 6.368296 1.726128 0.506076 0
M  V30 12 N 5.793748 2.569122 -0.349783 0
M  V30 13 C 4.571807 2.902782 0.071085 0
M  V30 14 C 4.389744 2.213446 1.268972 0
M  V30 15 C 3.348080 2.152199 2.159157 0
M  V30 16 C -0.046123 -1.407663 3.172253 0
M  V30 17 C -0.372001 -0.876187 1.792756 0
M  V30 18 C -0.330844 0.464153 1.474969 0
M  V30 19 C -0.631062 0.864136 0.189849 0
M  V30 20 C -0.962362 -0.106671 -0.726477 0
M  V30 21 F -1.251467 0.276449 -1.969702 0
M  V30 22 C -1.018151 -1.454691 -0.460123 0
M  V30 23 C -1.361041 -2.540662 -1.365394 0
M  V30 24 O -1.349534 -3.763656 -0.993264 0
M  V30 25 N -1.741242 -2.470207 -2.713990 0
M  V30 26 C -2.002263 -3.745149 -3.282897 0
M  V30 27 C -2.411885 -3.644692 -4.736926 0
M  V30 28 C -3.641883 -2.841305 -4.944359 0
M  V30 29 C -4.845940 -3.551652 -4.880334 0
M  V30 30 C -6.060658 -2.930643 -5.057498 0
M  V30 31 N -6.115710 -1.621496 -5.297025 0
M  V30 32 C -4.980247 -0.895212 -5.367644 0
M  V30 33 C -3.747169 -1.489521 -5.194301 0
M  V30 34 C -0.708712 -1.821474 0.847099 0
M  V30 35 N -1.120903 -2.246230 3.596253 0
M  V30 36 C -2.094688 -2.020380 4.601825 0
M  V30 37 O -3.100045 -2.730663 4.788929 0
M  V30 38 N -1.774709 -0.872869 5.373637 0
M  V30 39 H -0.251031 1.918674 5.388071 0
M  V30 40 H 0.637029 0.805422 6.547971 0
M  V30 41 H -1.124893 1.151357 6.726665 0
M  V30 42 H 1.983357 1.800425 5.005129 0
M  V30 43 H 4.668669 -0.000533 4.457907 0
M  V30 44 H 6.585022 0.100055 2.839346 0
M  V30 45 H 7.342654 1.352001 0.336228 0
M  V30 46 H 3.811853 3.555957 -0.351087 0
M  V30 47 H 2.439538 2.717818 1.984567 0
M  V30 48 H 0.845722 -2.076503 2.971974 0
M  V30 49 H -0.075979 1.213914 2.206867 0
M  V30 50 H -0.615031 1.900406 -0.116385 0
M  V30 51 H -1.794557 -1.527245 -3.153995 0
M  V30 52 H -1.080607 -4.375686 -3.248370 0
M  V30 53 H -2.779823 -4.353273 -2.784198 0
M  V30 54 H -1.582070 -3.108475 -5.268321 0
M  V30 55 H -2.485192 -4.646294 -5.196255 0
M  V30 56 H -4.914715 -4.616621 -4.691603 0
M  V30 57 H -7.022852 -3.430697 -5.018286 0
M  V30 58 H -4.916454 0.163849 -5.555498 0
M  V30 59 H -2.810578 -0.968157 -5.240867 0
M  V30 60 H -0.732742 -2.879914 1.125547 0
M  V30 61 H -1.186021 -3.165760 3.076635 0
M  V30 62 H -2.394069 -0.578394 6.154744 0
M  V30 END ATOM
M  V30 BEGIN BOND
M  V30 1 1 1 2
M  V30 2 2 2 3
M  V30 3 1 3 4
M  V30 4 2 4 5
M  V30 5 1 4 6
M  V30 6 1 6 7
M  V30 7 2 7 8
M  V30 8 1 8 9
M  V30 9 2 9 10
M  V30 10 1 10 11
M  V30 11 1 11 12
M  V30 12 2 12 13
M  V30 13 1 13 14
M  V30 14 2 14 15
M  V30 15 1 3 16
M  V30 16 1 16 17
M  V30 17 2 17 18
M  V30 18 1 18 19
M  V30 19 2 19 20
M  V30 20 1 20 21
M  V30 21 1 20 22
M  V30 22 1 22 23
M  V30 23 2 23 24
M  V30 24 1 23 25
M  V30 25 1 25 26
M  V30 26 1 26 27
M  V30 27 1 27 28
M  V30 28 2 28 29
M  V30 29 1 29 30
M  V30 30 2 30 31
M  V30 31 1 31 32
M  V30 32 2 32 33
M  V30 33 2 22 34
M  V30 34 1 16 35
M  V30 35 1 35 36
M  V30 36 2 36 37
M  V30 37 1 36 38
M  V30 38 1 38 2
M  V30 39 1 15 7
M  V30 40 1 34 17
M  V30 41 1 14 10
M  V30 42 1 33 28
M  V30 43 1 1 39
M  V30 44 1 1 40
M  V30 45 1 1 41
M  V30 46 1 6 42
M  V30 47 1 8 43
M  V30 48 1 9 44
M  V30 49 1 11 45
M  V30 50 1 13 46
M  V30 51 1 15 47
M  V30 52 1 16 48
M  V30 53 1 18 49
M  V30 54 1 19 50
M  V30 55 1 25 51
M  V30 56 1 26 52
M  V30 57 1 26 53
M  V30 58 1 27 54
M  V30 59 1 27 55
M  V30 60 1 29 56
M  V30 61 1 30 57
M  V30 62 1 32 58
M  V30 63 1 33 59
M  V30 64 1 34 60
M  V30 65 1 35 61
M  V30 66 1 38 62
M  V30 END BOND
M  V30 END CTAB
M  END
>  <Dataset>  (985) 
ChEMBL_Kinases

>  <Ligand_Instance>  (985) 
nan

>  <PDB_ID>  (985) 
nan

>  <Standardized_SMILES>  (985) 
CC1=C(C(=O)Nc2ccc3[nH]ncc3c2)C(c2ccc(F)c(C(=O)NCCc3ccncc3)c2)NC(=O)N1

>  <Name>  (985) 
nan

>  <Pocket>  (985) 
nan

>  <ATP_Site>  (985) 
nan

>  <Peripheral>  (985) 
nan

>  <Num_H_Atoms_ProtBoundConf>  (985) 
nan

>  <Num_Resolved_Atoms>  (985) 
nan

>  <Num_Not_Resolved_Atoms>  (985) 
nan

$$$$
CHEMBL3808657
     RDKit          3D

  0  0  0  0  0  0  0  0  0  0999 V3000
M  V30 BEGIN CTAB
M  V30 COUNTS 66 70 0 0 0
M  V30 BEGIN ATOM
M  V30 1 C 4.823530 -4.406437 2.964169 0
M  V30 2 C 3.526088 -3.737881 3.242616 0
M  V30 3 C 3.008109 -2.728974 2.539903 0
M  V30 4 C 3.768086 -2.216387 1.399106 0
M  V30 5 O 4.870956 -2.747467 1.121446 0
M  V30 6 N 3.350574 -1.158025 0.580392 0
M  V30 7 C 3.965048 -0.559762 -0.544195 0
M  V30 8 C 5.165943 -0.897145 -1.120439 0
M  V30 9 C 5.735495 -0.296439 -2.211096 0
M  V30 10 C 5.055499 0.745124 -2.798515 0
M  V30 11 N 5.311754 1.541614 -3.854107 0
M  V30 12 N 4.306560 2.402813 -3.993486 0
M  V30 13 C 3.406243 2.178523 -3.048880 0
M  V30 14 C 3.849772 1.132024 -2.271610 0
M  V30 15 C 3.331257 0.487332 -1.173805 0
M  V30 16 C 1.706529 -2.115716 2.774622 0
M  V30 17 C 0.720966 -2.448392 1.668073 0
M  V30 18 C 1.015171 -3.217598 0.561836 0
M  V30 19 C 0.055421 -3.457503 -0.394440 0
M  V30 20 C -1.184223 -2.900345 -0.189962 0
M  V30 21 F -2.109271 -3.145560 -1.134714 0
M  V30 22 C -1.551342 -2.124980 0.884078 0
M  V30 23 C -2.842800 -1.515827 1.140384 0
M  V30 24 O -3.027370 -0.812193 2.184415 0
M  V30 25 N -4.018858 -1.578709 0.364234 0
M  V30 26 C -5.292802 -0.952854 0.651454 0
M  V30 27 C -5.295551 0.487533 0.351654 0
M  V30 28 C -5.643710 0.835665 -0.960661 0
M  V30 29 C -5.710210 2.129105 -1.444435 0
M  V30 30 C -6.086987 2.408721 -2.845930 0
M  V30 31 F -5.440962 1.546843 -3.721075 0
M  V30 32 F -7.450298 2.353058 -2.986312 0
M  V30 33 F -5.690642 3.715090 -3.136459 0
M  V30 34 C -5.403212 3.123445 -0.534376 0
M  V30 35 C -5.049183 2.865111 0.782386 0
M  V30 36 C -4.722912 3.938630 1.743214 0
M  V30 37 F -5.154033 3.661041 3.025086 0
M  V30 38 F -5.294228 5.134290 1.312798 0
M  V30 39 F -3.350309 4.173902 1.808202 0
M  V30 40 C -5.010950 1.545264 1.170245 0
M  V30 41 C -0.546847 -1.919483 1.809499 0
M  V30 42 N 1.075044 -2.469811 4.032598 0
M  V30 43 C 1.532162 -3.543087 4.843935 0
M  V30 44 O 0.950960 -3.960341 5.851179 0
M  V30 45 N 2.750469 -4.124855 4.399027 0
M  V30 46 H 4.839332 -4.897515 1.969051 0
M  V30 47 H 4.916710 -5.242118 3.713811 0
M  V30 48 H 5.686741 -3.700159 3.071056 0
M  V30 49 H 2.427160 -0.758447 0.881612 0
M  V30 50 H 5.733842 -1.705834 -0.695974 0
M  V30 51 H 6.675819 -0.608555 -2.611101 0
M  V30 52 H 6.186776 1.428799 -4.416929 0
M  V30 53 H 2.468225 2.715839 -2.892990 0
M  V30 54 H 2.366927 0.857783 -0.817458 0
M  V30 55 H 1.735022 -0.988461 2.780604 0
M  V30 56 H 2.010754 -3.624637 0.470879 0
M  V30 57 H 0.267891 -4.056706 -1.266463 0
M  V30 58 H -3.979201 -2.133785 -0.516491 0
M  V30 59 H -6.107601 -1.439797 0.070898 0
M  V30 60 H -5.593949 -1.140493 1.726455 0
M  V30 61 H -5.889954 0.059548 -1.693854 0
M  V30 62 H -5.448083 4.143388 -0.889445 0
M  V30 63 H -4.746772 1.296642 2.178447 0
M  V30 64 H -0.764520 -1.318187 2.681735 0
M  V30 65 H 0.254071 -1.906920 4.343672 0
M  V30 66 H 3.112655 -4.924043 4.987674 0
M  V30 END ATOM
M  V30 BEGIN BOND
M  V30 1 1 1 2
M  V30 2 2 2 3
M  V30 3 1 3 4
M  V30 4 2 4 5
M  V30 5 1 4 6
M  V30 6 1 6 7
M  V30 7 2 7 8
M  V30 8 1 8 9
M  V30 9 2 9 10
M  V30 10 1 10 11
M  V30 11 1 11 12
M  V30 12 2 12 13
M  V30 13 1 13 14
M  V30 14 2 14 15
M  V30 15 1 3 16
M  V30 16 1 16 17
M  V30 17 2 17 18
M  V30 18 1 18 19
M  V30 19 2 19 20
M  V30 20 1 20 21
M  V30 21 1 20 22
M  V30 22 1 22 23
M  V30 23 2 23 24
M  V30 24 1 23 25
M  V30 25 1 25 26
M  V30 26 1 26 27
M  V30 27 2 27 28
M  V30 28 1 28 29
M  V30 29 1 29 30
M  V30 30 1 30 31
M  V30 31 1 30 32
M  V30 32 1 30 33
M  V30 33 2 29 34
M  V30 34 1 34 35
M  V30 35 1 35 36
M  V30 36 1 36 37
M  V30 37 1 36 38
M  V30 38 1 36 39
M  V30 39 2 35 40
M  V30 40 2 22 41
M  V30 41 1 16 42
M  V30 42 1 42 43
M  V30 43 2 43 44
M  V30 44 1 43 45
M  V30 45 1 45 2
M  V30 46 1 15 7
M  V30 47 1 41 17
M  V30 48 1 14 10
M  V30 49 1 40 27
M  V30 50 1 1 46
M  V30 51 1 1 47
M  V30 52 1 1 48
M  V30 53 1 6 49
M  V30 54 1 8 50
M  V30 55 1 9 51
M  V30 56 1 11 52
M  V30 57 1 13 53
M  V30 58 1 15 54
M  V30 59 1 16 55
M  V30 60 1 18 56
M  V30 61 1 19 57
M  V30 62 1 25 58
M  V30 63 1 26 59
M  V30 64 1 26 60
M  V30 65 1 28 61
M  V30 66 1 34 62
M  V30 67 1 40 63
M  V30 68 1 41 64
M  V30 69 1 42 65
M  V30 70 1 45 66
M  V30 END BOND
M  V30 END CTAB
M  END
>  <Dataset>  (986) 
ChEMBL_Kinases

>  <Ligand_Instance>  (986) 
nan

>  <PDB_ID>  (986) 
nan

>  <Standardized_SMILES>  (986) 
CC1=C(C(=O)Nc2ccc3[nH]ncc3c2)C(c2ccc(F)c(C(=O)NCc3cc(C(F)(F)F)cc(C(F)(F)F)c3)c2)NC(=O)N1

>  <Name>  (986) 
nan

>  <Pocket>  (986) 
nan

>  <ATP_Site>  (986) 
nan

>  <Peripheral>  (986) 
nan

>  <Num_H_Atoms_ProtBoundConf>  (986) 
nan

>  <Num_Resolved_Atoms>  (986) 
nan

>  <Num_Not_Resolved_Atoms>  (986) 
nan

$$$$
CHEMBL3806189
     RDKit          3D

  0  0  0  0  0  0  0  0  0  0999 V3000
M  V30 BEGIN CTAB
M  V30 COUNTS 74 78 0 0 0
M  V30 BEGIN ATOM
M  V30 1 C 3.693828 -4.900656 3.518121 0
M  V30 2 N 3.993561 -4.516980 2.144961 0
M  V30 3 C 3.131087 -3.391276 1.810191 0
M  V30 4 C 3.501658 -2.755286 0.511805 0
M  V30 5 N 4.941300 -2.463830 0.421595 0
M  V30 6 C 5.195096 -1.940760 -0.906681 0
M  V30 7 C 4.428272 -0.696144 -1.161428 0
M  V30 8 C 3.284094 -0.782708 -1.963647 0
M  V30 9 C 2.592557 0.377910 -2.179829 0
M  V30 10 C 2.891766 1.621084 -1.699586 0
M  V30 11 N 2.202159 2.822084 -1.902398 0
M  V30 12 C 1.023628 3.005300 -2.645865 0
M  V30 13 O 0.443350 2.054756 -3.230993 0
M  V30 14 C 0.198890 4.218398 -2.937337 0
M  V30 15 N -0.967327 3.851748 -3.723135 0
M  V30 16 C -1.930511 3.052930 -3.008496 0
M  V30 17 C -1.781941 2.698615 -1.671550 0
M  V30 18 C -2.669944 1.959924 -0.953538 0
M  V30 19 C -3.817141 1.514889 -1.576406 0
M  V30 20 C -4.716267 0.721622 -0.718877 0
M  V30 21 C -4.770266 1.029435 0.641159 0
M  V30 22 C -5.575807 0.317804 1.511119 0
M  V30 23 C -6.323175 -0.717317 0.944225 0
M  V30 24 N -7.135095 -1.421665 1.897694 0
M  V30 25 C -6.361391 -2.475906 2.422920 0
M  V30 26 O -5.294496 -3.144208 2.493869 0
M  V30 27 C -6.633591 -3.521273 3.416101 0
M  V30 28 C -7.257435 -3.046187 4.768684 0
M  V30 29 C -7.974080 -3.958666 3.815645 0
M  V30 30 N -6.262377 -1.005170 -0.374436 0
M  V30 31 C -5.479970 -0.315074 -1.223602 0
M  V30 32 C -4.020403 1.835327 -2.902389 0
M  V30 33 C -3.099096 2.585739 -3.599895 0
M  V30 34 F -3.330400 2.881603 -4.902686 0
M  V30 35 C 4.023322 1.653255 -0.918272 0
M  V30 36 C 4.777843 0.533685 -0.649819 0
M  V30 37 C 5.974287 0.657851 0.190161 0
M  V30 38 F 5.829303 -0.147931 1.295378 0
M  V30 39 F 7.141709 0.423181 -0.505089 0
M  V30 40 F 6.112939 1.954769 0.698323 0
M  V30 41 C 5.624554 -3.727647 0.613220 0
M  V30 42 C 5.368761 -4.112520 2.075098 0
M  V30 43 H 4.446464 -5.593235 3.951052 0
M  V30 44 H 3.570515 -3.982437 4.123634 0
M  V30 45 H 2.714273 -5.457660 3.556110 0
M  V30 46 H 3.078773 -2.720595 2.675080 0
M  V30 47 H 2.111799 -3.852359 1.658001 0
M  V30 48 H 2.882611 -1.862020 0.372953 0
M  V30 49 H 3.204978 -3.490122 -0.292842 0
M  V30 50 H 4.915052 -2.704580 -1.659129 0
M  V30 51 H 6.288046 -1.814841 -1.007589 0
M  V30 52 H 2.995226 -1.731647 -2.371214 0
M  V30 53 H 1.722508 0.256970 -2.804072 0
M  V30 54 H 2.523954 3.723004 -1.499234 0
M  V30 55 H 0.868871 4.922420 -3.482897 0
M  V30 56 H -0.073565 4.697751 -1.994795 0
M  V30 57 H -1.216236 4.071478 -4.710687 0
M  V30 58 H -0.889483 3.038520 -1.119538 0
M  V30 59 H -2.456634 1.731222 0.101813 0
M  V30 60 H -4.196849 1.840589 1.114075 0
M  V30 61 H -5.615156 0.558328 2.568836 0
M  V30 62 H -8.084589 -1.412841 2.320812 0
M  V30 63 H -5.739682 -4.193732 3.566851 0
M  V30 64 H -6.782151 -3.414597 5.685542 0
M  V30 65 H -7.566949 -1.978454 4.820404 0
M  V30 66 H -8.056896 -5.005543 4.175333 0
M  V30 67 H -8.815463 -3.499007 3.248956 0
M  V30 68 H -5.446533 -0.561539 -2.275433 0
M  V30 69 H -4.933839 1.462831 -3.341382 0
M  V30 70 H 4.349272 2.610807 -0.482819 0
M  V30 71 H 5.180801 -4.461349 -0.080954 0
M  V30 72 H 6.710243 -3.660820 0.407942 0
M  V30 73 H 6.050962 -4.877746 2.445966 0
M  V30 74 H 5.522639 -3.184706 2.686372 0
M  V30 END ATOM
M  V30 BEGIN BOND
M  V30 1 1 1 2
M  V30 2 1 2 3
M  V30 3 1 3 4
M  V30 4 1 4 5
M  V30 5 1 5 6
M  V30 6 1 6 7
M  V30 7 2 7 8
M  V30 8 1 8 9
M  V30 9 2 9 10
M  V30 10 1 10 11
M  V30 11 1 11 12
M  V30 12 2 12 13
M  V30 13 1 12 14
M  V30 14 1 14 15
M  V30 15 1 15 16
M  V30 16 2 16 17
M  V30 17 1 17 18
M  V30 18 2 18 19
M  V30 19 1 19 20
M  V30 20 2 20 21
M  V30 21 1 21 22
M  V30 22 2 22 23
M  V30 23 1 23 24
M  V30 24 1 24 25
M  V30 25 2 25 26
M  V30 26 1 25 27
M  V30 27 1 27 28
M  V30 28 1 28 29
M  V30 29 1 23 30
M  V30 30 2 30 31
M  V30 31 1 19 32
M  V30 32 2 32 33
M  V30 33 1 33 34
M  V30 34 1 10 35
M  V30 35 2 35 36
M  V30 36 1 36 37
M  V30 37 1 37 38
M  V30 38 1 37 39
M  V30 39 1 37 40
M  V30 40 1 5 41
M  V30 41 1 41 42
M  V30 42 1 42 2
M  V30 43 1 36 7
M  V30 44 1 33 16
M  V30 45 1 31 20
M  V30 46 1 29 27
M  V30 47 1 1 43
M  V30 48 1 1 44
M  V30 49 1 1 45
M  V30 50 1 3 46
M  V30 51 1 3 47
M  V30 52 1 4 48
M  V30 53 1 4 49
M  V30 54 1 6 50
M  V30 55 1 6 51
M  V30 56 1 8 52
M  V30 57 1 9 53
M  V30 58 1 11 54
M  V30 59 1 14 55
M  V30 60 1 14 56
M  V30 61 1 15 57
M  V30 62 1 17 58
M  V30 63 1 18 59
M  V30 64 1 21 60
M  V30 65 1 22 61
M  V30 66 1 24 62
M  V30 67 1 27 63
M  V30 68 1 28 64
M  V30 69 1 28 65
M  V30 70 1 29 66
M  V30 71 1 29 67
M  V30 72 1 31 68
M  V30 73 1 32 69
M  V30 74 1 35 70
M  V30 75 1 41 71
M  V30 76 1 41 72
M  V30 77 1 42 73
M  V30 78 1 42 74
M  V30 END BOND
M  V30 END CTAB
M  END
>  <Dataset>  (987) 
ChEMBL_Kinases

>  <Ligand_Instance>  (987) 
nan

>  <PDB_ID>  (987) 
nan

>  <Standardized_SMILES>  (987) 
CN1CCN(Cc2ccc(NC(=O)CNc3ccc(-c4ccc(NC(=O)C5CC5)nc4)cc3F)cc2C(F)(F)F)CC1

>  <Name>  (987) 
nan

>  <Pocket>  (987) 
nan

>  <ATP_Site>  (987) 
nan

>  <Peripheral>  (987) 
nan

>  <Num_H_Atoms_ProtBoundConf>  (987) 
nan

>  <Num_Resolved_Atoms>  (987) 
nan

>  <Num_Not_Resolved_Atoms>  (987) 
nan

$$$$
CHEMBL4091451
     RDKit          3D

  0  0  0  0  0  0  0  0  0  0999 V3000
M  V30 BEGIN CTAB
M  V30 COUNTS 32 34 0 0 0
M  V30 BEGIN ATOM
M  V30 1 C -3.531990 -2.837671 1.640674 0
M  V30 2 C -2.645213 -1.912684 2.129767 0
M  V30 3 C -1.299062 -2.150690 1.958411 0
M  V30 4 C -0.766871 -3.251222 1.330389 0
M  V30 5 N 0.614517 -3.494791 1.148405 0
M  V30 6 C 1.727643 -2.667443 1.546838 0
M  V30 7 C 1.767273 -1.350918 0.855770 0
M  V30 8 N 1.351184 -0.078374 0.972124 0
M  V30 9 C 1.740654 0.679090 -0.065535 0
M  V30 10 C 1.379007 2.096069 -0.112586 0
M  V30 11 C 0.702823 2.485579 -1.250587 0
M  V30 12 C 0.341105 3.827366 -1.332711 0
M  V30 13 N 0.625015 4.723536 -0.362506 0
M  V30 14 C 1.283151 4.341628 0.743825 0
M  V30 15 C 1.667157 3.021733 0.879596 0
M  V30 16 N 2.433641 -0.135299 -0.881314 0
M  V30 17 N 2.448284 -1.344242 -0.330542 0
M  V30 18 C -1.699817 -4.141798 0.861903 0
M  V30 19 C -3.039130 -3.955994 1.004121 0
M  V30 20 H -4.603776 -2.651567 1.775206 0
M  V30 21 H -3.036088 -1.042341 2.625392 0
M  V30 22 H -0.641507 -1.402157 2.361487 0
M  V30 23 H 0.893498 -4.388602 0.661323 0
M  V30 24 H 1.530613 -2.439893 2.641759 0
M  V30 25 H 2.684632 -3.185906 1.515499 0
M  V30 26 H 0.444441 1.807268 -2.069779 0
M  V30 27 H -0.194958 4.201703 -2.204447 0
M  V30 28 H 1.514791 5.057523 1.528304 0
M  V30 29 H 2.208302 2.649014 1.762003 0
M  V30 30 H 2.971504 -2.069604 -0.893815 0
M  V30 31 H -1.409189 -5.064196 0.340235 0
M  V30 32 H -3.763747 -4.669413 0.628166 0
M  V30 END ATOM
M  V30 BEGIN BOND
M  V30 1 2 1 2
M  V30 2 1 2 3
M  V30 3 2 3 4
M  V30 4 1 4 5
M  V30 5 1 5 6
M  V30 6 1 6 7
M  V30 7 2 7 8
M  V30 8 1 8 9
M  V30 9 1 9 10
M  V30 10 2 10 11
M  V30 11 1 11 12
M  V30 12 2 12 13
M  V30 13 1 13 14
M  V30 14 2 14 15
M  V30 15 2 9 16
M  V30 16 1 16 17
M  V30 17 1 4 18
M  V30 18 2 18 19
M  V30 19 1 19 1
M  V30 20 1 17 7
M  V30 21 1 15 10
M  V30 22 1 1 20
M  V30 23 1 2 21
M  V30 24 1 3 22
M  V30 25 1 5 23
M  V30 26 1 6 24
M  V30 27 1 6 25
M  V30 28 1 11 26
M  V30 29 1 12 27
M  V30 30 1 14 28
M  V30 31 1 15 29
M  V30 32 1 17 30
M  V30 33 1 18 31
M  V30 34 1 19 32
M  V30 END BOND
M  V30 END CTAB
M  END
>  <Dataset>  (988) 
ChEMBL_Kinases

>  <Ligand_Instance>  (988) 
nan

>  <PDB_ID>  (988) 
nan

>  <Standardized_SMILES>  (988) 
c1ccc(NCc2nc(-c3ccncc3)n[nH]2)cc1

>  <Name>  (988) 
nan

>  <Pocket>  (988) 
nan

>  <ATP_Site>  (988) 
nan

>  <Peripheral>  (988) 
nan

>  <Num_H_Atoms_ProtBoundConf>  (988) 
nan

>  <Num_Resolved_Atoms>  (988) 
nan

>  <Num_Not_Resolved_Atoms>  (988) 
nan

$$$$
CHEMBL3421978
     RDKit          3D

  0  0  0  0  0  0  0  0  0  0999 V3000
M  V30 BEGIN CTAB
M  V30 COUNTS 37 40 0 0 0
M  V30 BEGIN ATOM
M  V30 1 C -1.324376 -1.867452 0.976190 0
M  V30 2 C -0.864729 -1.897721 2.214064 0
M  V30 3 C 0.325075 -1.149666 2.631848 0
M  V30 4 N 0.766653 -1.201030 3.902908 0
M  V30 5 C 1.871147 -0.516167 4.322958 0
M  V30 6 C 2.517741 0.245873 3.343588 0
M  V30 7 C 2.085247 0.314665 2.035945 0
M  V30 8 C 2.830966 1.139372 1.088388 0
M  V30 9 C 3.959571 1.889022 1.352190 0
M  V30 10 N 4.352426 2.513905 0.203831 0
M  V30 11 C 3.515233 2.191185 -0.787325 0
M  V30 12 C 3.394203 2.498089 -2.135378 0
M  V30 13 N 2.427280 2.026527 -2.942943 0
M  V30 14 C 1.487897 1.191795 -2.444246 0
M  V30 15 C 1.594153 0.872817 -1.092031 0
M  V30 16 C 2.571095 1.342146 -0.251801 0
M  V30 17 N 0.998915 -0.393559 1.740260 0
M  V30 18 C -2.498944 -2.589548 0.507594 0
M  V30 19 C -3.262238 -3.391933 1.325856 0
M  V30 20 C -4.348271 -4.016758 0.748124 0
M  V30 21 C -4.756866 -3.925952 -0.567575 0
M  V30 22 C -3.955779 -3.101764 -1.365939 0
M  V30 23 C -2.862954 -2.463199 -0.817936 0
M  V30 24 H -0.750797 -1.251945 0.319220 0
M  V30 25 H -1.380548 -2.494976 2.954004 0
M  V30 26 H 2.210975 -0.569606 5.348062 0
M  V30 27 H 3.385255 0.769984 3.720316 0
M  V30 28 H 4.488389 2.004821 2.277962 0
M  V30 29 H 5.176599 3.149888 0.094803 0
M  V30 30 H 4.184655 3.179060 -2.482231 0
M  V30 31 H 0.717973 0.816698 -3.089222 0
M  V30 32 H 0.862250 0.214852 -0.677221 0
M  V30 33 H -3.021199 -3.523250 2.364043 0
M  V30 34 H -4.950986 -4.655876 1.412764 0
M  V30 35 H -5.631942 -4.470106 -0.895481 0
M  V30 36 H -4.250369 -3.010339 -2.402501 0
M  V30 37 H -2.266052 -1.826277 -1.490115 0
M  V30 END ATOM
M  V30 BEGIN BOND
M  V30 1 2 1 2
M  V30 2 1 2 3
M  V30 3 2 3 4
M  V30 4 1 4 5
M  V30 5 2 5 6
M  V30 6 1 6 7
M  V30 7 1 7 8
M  V30 8 2 8 9
M  V30 9 1 9 10
M  V30 10 1 10 11
M  V30 11 2 11 12
M  V30 12 1 12 13
M  V30 13 2 13 14
M  V30 14 1 14 15
M  V30 15 2 15 16
M  V30 16 2 7 17
M  V30 17 1 1 18
M  V30 18 2 18 19
M  V30 19 1 19 20
M  V30 20 2 20 21
M  V30 21 1 21 22
M  V30 22 2 22 23
M  V30 23 1 17 3
M  V30 24 1 23 18
M  V30 25 1 16 8
M  V30 26 1 16 11
M  V30 27 1 1 24
M  V30 28 1 2 25
M  V30 29 1 5 26
M  V30 30 1 6 27
M  V30 31 1 9 28
M  V30 32 1 10 29
M  V30 33 1 12 30
M  V30 34 1 14 31
M  V30 35 1 15 32
M  V30 36 1 19 33
M  V30 37 1 20 34
M  V30 38 1 21 35
M  V30 39 1 22 36
M  V30 40 1 23 37
M  V30 END BOND
M  V30 END CTAB
M  END
>  <Dataset>  (989) 
ChEMBL_Kinases

>  <Ligand_Instance>  (989) 
nan

>  <PDB_ID>  (989) 
nan

>  <Standardized_SMILES>  (989) 
C(=C/c1nccc(-c2c[nH]c3cnccc23)n1)\c1ccccc1

>  <Name>  (989) 
nan

>  <Pocket>  (989) 
nan

>  <ATP_Site>  (989) 
nan

>  <Peripheral>  (989) 
nan

>  <Num_H_Atoms_ProtBoundConf>  (989) 
nan

>  <Num_Resolved_Atoms>  (989) 
nan

>  <Num_Not_Resolved_Atoms>  (989) 
nan

$$$$
CHEMBL3804921
     RDKit          3D

  0  0  0  0  0  0  0  0  0  0999 V3000
M  V30 BEGIN CTAB
M  V30 COUNTS 67 70 0 0 0
M  V30 BEGIN ATOM
M  V30 1 C 6.555059 -6.344597 4.567606 0
M  V30 2 C 6.045708 -5.491932 3.435495 0
M  V30 3 O 6.004002 -5.972027 2.278699 0
M  V30 4 N 5.614583 -4.172551 3.635695 0
M  V30 5 C 5.111750 -3.234188 2.702643 0
M  V30 6 C 4.932137 -3.418368 1.356301 0
M  V30 7 C 4.441259 -2.471703 0.496230 0
M  V30 8 C 4.093093 -1.234227 0.987756 0
M  V30 9 C 3.562433 -0.124658 0.206127 0
M  V30 10 C 3.904910 0.112474 -1.128056 0
M  V30 11 C 3.358973 1.193117 -1.812822 0
M  V30 12 C 2.467410 2.055812 -1.192656 0
M  V30 13 N 1.888358 3.191683 -1.863859 0
M  V30 14 C 0.931562 4.073079 -1.204169 0
M  V30 15 C -0.318200 3.298618 -0.864131 0
M  V30 16 O -0.580831 2.066126 -1.089983 0
M  V30 17 N -1.418190 3.911284 -0.204464 0
M  V30 18 C -2.410361 2.878226 -0.050556 0
M  V30 19 C -2.407178 2.075117 1.072994 0
M  V30 20 C -3.381517 1.091608 1.172984 0
M  V30 21 C -4.361976 0.867817 0.206397 0
M  V30 22 C -5.169835 -0.305184 0.552079 0
M  V30 23 N -4.603071 -1.545252 0.242379 0
M  V30 24 C -4.174268 -1.949828 -0.998527 0
M  V30 25 C -3.348126 -3.233558 -0.869857 0
M  V30 26 N -4.227570 -4.216426 -0.259348 0
M  V30 27 C -4.518356 -3.862622 1.120362 0
M  V30 28 C -4.329055 -2.394623 1.375854 0
M  V30 29 C -4.355730 1.666732 -0.890801 0
M  V30 30 C -5.405432 1.578149 -1.919835 0
M  V30 31 F -5.432233 0.356335 -2.504096 0
M  V30 32 F -6.653784 1.900719 -1.382672 0
M  V30 33 F -5.099783 2.488461 -2.945126 0
M  V30 34 C -3.376587 2.655940 -0.996473 0
M  V30 35 C 2.100287 1.851061 0.142266 0
M  V30 36 C 2.678787 0.749147 0.784672 0
M  V30 37 C 4.275947 -1.057496 2.339098 0
M  V30 38 N 4.761218 -2.014998 3.146966 0
M  V30 39 H 6.091459 -6.032007 5.527269 0
M  V30 40 H 7.632030 -6.196012 4.675003 0
M  V30 41 H 6.364136 -7.387433 4.286750 0
M  V30 42 H 5.691863 -3.874263 4.640617 0
M  V30 43 H 5.182379 -4.350138 0.920699 0
M  V30 44 H 4.311378 -2.644890 -0.556002 0
M  V30 45 H 4.600332 -0.563909 -1.606113 0
M  V30 46 H 3.605044 1.397476 -2.838603 0
M  V30 47 H 2.198629 3.340740 -2.849219 0
M  V30 48 H 1.341207 4.556000 -0.312654 0
M  V30 49 H 0.660780 4.854646 -1.940072 0
M  V30 50 H -1.401785 4.911758 0.066050 0
M  V30 51 H -1.640712 2.277115 1.791624 0
M  V30 52 H -3.252690 0.538903 2.111611 0
M  V30 53 H -6.136101 -0.236856 -0.065915 0
M  V30 54 H -5.482208 -0.199870 1.623366 0
M  V30 55 H -3.525874 -1.143410 -1.452332 0
M  V30 56 H -5.010013 -2.142825 -1.724383 0
M  V30 57 H -3.070600 -3.598865 -1.863518 0
M  V30 58 H -2.456825 -3.006874 -0.279949 0
M  V30 59 H -3.874073 -5.191689 -0.331990 0
M  V30 60 H -5.499997 -4.257570 1.464450 0
M  V30 61 H -3.762307 -4.407763 1.721723 0
M  V30 62 H -3.270365 -2.224713 1.656225 0
M  V30 63 H -4.946167 -2.120802 2.255893 0
M  V30 64 H -3.373825 3.289355 -1.875118 0
M  V30 65 H 1.432288 2.449710 0.712044 0
M  V30 66 H 2.406840 0.566091 1.834261 0
M  V30 67 H 4.040543 -0.119387 2.867886 0
M  V30 END ATOM
M  V30 BEGIN BOND
M  V30 1 1 1 2
M  V30 2 2 2 3
M  V30 3 1 2 4
M  V30 4 1 4 5
M  V30 5 2 5 6
M  V30 6 1 6 7
M  V30 7 2 7 8
M  V30 8 1 8 9
M  V30 9 2 9 10
M  V30 10 1 10 11
M  V30 11 2 11 12
M  V30 12 1 12 13
M  V30 13 1 13 14
M  V30 14 1 14 15
M  V30 15 2 15 16
M  V30 16 1 15 17
M  V30 17 1 17 18
M  V30 18 2 18 19
M  V30 19 1 19 20
M  V30 20 2 20 21
M  V30 21 1 21 22
M  V30 22 1 22 23
M  V30 23 1 23 24
M  V30 24 1 24 25
M  V30 25 1 25 26
M  V30 26 1 26 27
M  V30 27 1 27 28
M  V30 28 1 21 29
M  V30 29 1 29 30
M  V30 30 1 30 31
M  V30 31 1 30 32
M  V30 32 1 30 33
M  V30 33 2 29 34
M  V30 34 1 12 35
M  V30 35 2 35 36
M  V30 36 1 8 37
M  V30 37 2 37 38
M  V30 38 1 38 5
M  V30 39 1 36 9
M  V30 40 1 34 18
M  V30 41 1 28 23
M  V30 42 1 1 39
M  V30 43 1 1 40
M  V30 44 1 1 41
M  V30 45 1 4 42
M  V30 46 1 6 43
M  V30 47 1 7 44
M  V30 48 1 10 45
M  V30 49 1 11 46
M  V30 50 1 13 47
M  V30 51 1 14 48
M  V30 52 1 14 49
M  V30 53 1 17 50
M  V30 54 1 19 51
M  V30 55 1 20 52
M  V30 56 1 22 53
M  V30 57 1 22 54
M  V30 58 1 24 55
M  V30 59 1 24 56
M  V30 60 1 25 57
M  V30 61 1 25 58
M  V30 62 1 26 59
M  V30 63 1 27 60
M  V30 64 1 27 61
M  V30 65 1 28 62
M  V30 66 1 28 63
M  V30 67 1 34 64
M  V30 68 1 35 65
M  V30 69 1 36 66
M  V30 70 1 37 67
M  V30 END BOND
M  V30 END CTAB
M  END
>  <Dataset>  (990) 
ChEMBL_Kinases

>  <Ligand_Instance>  (990) 
nan

>  <PDB_ID>  (990) 
nan

>  <Standardized_SMILES>  (990) 
CC(=O)Nc1ccc(-c2ccc(NCC(=O)Nc3ccc(CN4CCNCC4)c(C(F)(F)F)c3)cc2)cn1

>  <Name>  (990) 
nan

>  <Pocket>  (990) 
nan

>  <ATP_Site>  (990) 
nan

>  <Peripheral>  (990) 
nan

>  <Num_H_Atoms_ProtBoundConf>  (990) 
nan

>  <Num_Resolved_Atoms>  (990) 
nan

>  <Num_Not_Resolved_Atoms>  (990) 
nan

$$$$
CHEMBL3421981
     RDKit          3D

  0  0  0  0  0  0  0  0  0  0999 V3000
M  V30 BEGIN CTAB
M  V30 COUNTS 28 31 0 0 0
M  V30 BEGIN ATOM
M  V30 1 C -2.179133 -2.370224 2.628650 0
M  V30 2 C -1.378357 -1.481825 1.939867 0
M  V30 3 C 0.003255 -1.547374 2.086931 0
M  V30 4 C 0.956417 -0.752088 1.486131 0
M  V30 5 C 0.705537 0.349134 0.549275 0
M  V30 6 C 0.534866 1.619410 1.112495 0
M  V30 7 C 0.293617 2.712340 0.289759 0
M  V30 8 N 0.228382 2.527373 -1.039734 0
M  V30 9 C 0.386923 1.325505 -1.613307 0
M  V30 10 N 0.371996 0.861820 -2.888244 0
M  V30 11 C 0.595432 -0.478782 -2.882826 0
M  V30 12 C 0.761604 -0.917557 -1.592685 0
M  V30 13 C 0.627838 0.221110 -0.821641 0
M  V30 14 C 2.180299 -1.226806 1.964530 0
M  V30 15 N 1.917983 -2.247950 2.800190 0
M  V30 16 C 0.598698 -2.482198 2.907774 0
M  V30 17 C -0.247317 -3.339634 3.567664 0
M  V30 18 N -1.587598 -3.275527 3.424567 0
M  V30 19 H -3.250562 -2.320278 2.515342 0
M  V30 20 H -1.855680 -0.744203 1.291680 0
M  V30 21 H 0.572520 1.850115 2.165505 0
M  V30 22 H 0.152161 3.728588 0.672253 0
M  V30 23 H 0.205419 1.509013 -3.703818 0
M  V30 24 H 0.634571 -1.101764 -3.776063 0
M  V30 25 H 0.956760 -1.933365 -1.230518 0
M  V30 26 H 3.139248 -0.841424 1.706590 0
M  V30 27 H 2.630584 -2.823693 3.328854 0
M  V30 28 H 0.250139 -4.072699 4.213388 0
M  V30 END ATOM
M  V30 BEGIN BOND
M  V30 1 2 1 2
M  V30 2 1 2 3
M  V30 3 1 3 4
M  V30 4 1 4 5
M  V30 5 2 5 6
M  V30 6 1 6 7
M  V30 7 2 7 8
M  V30 8 1 8 9
M  V30 9 1 9 10
M  V30 10 1 10 11
M  V30 11 2 11 12
M  V30 12 1 12 13
M  V30 13 2 4 14
M  V30 14 1 14 15
M  V30 15 1 15 16
M  V30 16 1 16 17
M  V30 17 2 17 18
M  V30 18 1 18 1
M  V30 19 2 16 3
M  V30 20 1 13 5
M  V30 21 2 13 9
M  V30 22 1 1 19
M  V30 23 1 2 20
M  V30 24 1 6 21
M  V30 25 1 7 22
M  V30 26 1 10 23
M  V30 27 1 11 24
M  V30 28 1 12 25
M  V30 29 1 14 26
M  V30 30 1 15 27
M  V30 31 1 17 28
M  V30 END BOND
M  V30 END CTAB
M  END
>  <Dataset>  (991) 
ChEMBL_Kinases

>  <Ligand_Instance>  (991) 
nan

>  <PDB_ID>  (991) 
nan

>  <Standardized_SMILES>  (991) 
c1cc2c(-c3ccnc4[nH]ccc34)c[nH]c2cn1

>  <Name>  (991) 
nan

>  <Pocket>  (991) 
nan

>  <ATP_Site>  (991) 
nan

>  <Peripheral>  (991) 
nan

>  <Num_H_Atoms_ProtBoundConf>  (991) 
nan

>  <Num_Resolved_Atoms>  (991) 
nan

>  <Num_Not_Resolved_Atoms>  (991) 
nan

$$$$
CHEMBL4091320
     RDKit          3D

  0  0  0  0  0  0  0  0  0  0999 V3000
M  V30 BEGIN CTAB
M  V30 COUNTS 34 36 0 0 0
M  V30 BEGIN ATOM
M  V30 1 C 0.755523 -2.782361 3.914191 0
M  V30 2 O 0.048099 -1.598354 3.973597 0
M  V30 3 C -1.254892 -1.773896 3.564189 0
M  V30 4 C -1.454171 -2.245058 2.167514 0
M  V30 5 N -0.894240 -1.350474 1.181714 0
M  V30 6 C 0.297676 -1.239866 0.574307 0
M  V30 7 C 0.339049 -0.204888 -0.306294 0
M  V30 8 C 1.523125 0.147007 -1.111539 0
M  V30 9 C 2.796874 0.206084 -0.595748 0
M  V30 10 C 3.851350 0.548391 -1.438430 0
M  V30 11 N 3.668137 0.820953 -2.728897 0
M  V30 12 C 2.453616 0.774467 -3.263317 0
M  V30 13 C 1.376401 0.437767 -2.458684 0
M  V30 14 C -0.907336 0.384887 -0.259189 0
M  V30 15 C -1.413134 1.465289 -0.941138 0
M  V30 16 C -2.716091 1.855707 -0.703383 0
M  V30 17 N -3.448692 1.163205 0.190516 0
M  V30 18 C -2.940685 0.094391 0.861857 0
M  V30 19 C -1.636195 -0.340812 0.660771 0
M  V30 20 H 1.809557 -2.657866 4.267099 0
M  V30 21 H 0.761590 -3.107946 2.833350 0
M  V30 22 H 0.187558 -3.552828 4.464365 0
M  V30 23 H -1.794778 -2.482567 4.266525 0
M  V30 24 H -1.853118 -0.821296 3.707083 0
M  V30 25 H -2.562949 -2.401369 1.962667 0
M  V30 26 H -1.029954 -3.254748 2.028656 0
M  V30 27 H 1.097815 -1.913530 0.789437 0
M  V30 28 H 2.882951 -0.024933 0.456122 0
M  V30 29 H 4.810990 0.572523 -0.961639 0
M  V30 30 H 2.320244 1.001340 -4.325902 0
M  V30 31 H 0.420445 0.420143 -2.961608 0
M  V30 32 H -0.813413 2.009931 -1.654302 0
M  V30 33 H -3.100269 2.713478 -1.252317 0
M  V30 34 H -3.582687 -0.406257 1.556669 0
M  V30 END ATOM
M  V30 BEGIN BOND
M  V30 1 1 1 2
M  V30 2 1 2 3
M  V30 3 1 3 4
M  V30 4 1 4 5
M  V30 5 1 5 6
M  V30 6 2 6 7
M  V30 7 1 7 8
M  V30 8 2 8 9
M  V30 9 1 9 10
M  V30 10 2 10 11
M  V30 11 1 11 12
M  V30 12 2 12 13
M  V30 13 1 7 14
M  V30 14 2 14 15
M  V30 15 1 15 16
M  V30 16 2 16 17
M  V30 17 1 17 18
M  V30 18 2 18 19
M  V30 19 1 19 5
M  V30 20 1 13 8
M  V30 21 1 19 14
M  V30 22 1 1 20
M  V30 23 1 1 21
M  V30 24 1 1 22
M  V30 25 1 3 23
M  V30 26 1 3 24
M  V30 27 1 4 25
M  V30 28 1 4 26
M  V30 29 1 6 27
M  V30 30 1 9 28
M  V30 31 1 10 29
M  V30 32 1 12 30
M  V30 33 1 13 31
M  V30 34 1 15 32
M  V30 35 1 16 33
M  V30 36 1 18 34
M  V30 END BOND
M  V30 END CTAB
M  END
>  <Dataset>  (992) 
ChEMBL_Kinases

>  <Ligand_Instance>  (992) 
nan

>  <PDB_ID>  (992) 
nan

>  <Standardized_SMILES>  (992) 
COCCn1cc(-c2ccncc2)c2ccncc21

>  <Name>  (992) 
nan

>  <Pocket>  (992) 
nan

>  <ATP_Site>  (992) 
nan

>  <Peripheral>  (992) 
nan

>  <Num_H_Atoms_ProtBoundConf>  (992) 
nan

>  <Num_Resolved_Atoms>  (992) 
nan

>  <Num_Not_Resolved_Atoms>  (992) 
nan

$$$$
CHEMBL3804941
     RDKit          3D

  0  0  0  0  0  0  0  0  0  0999 V3000
M  V30 BEGIN CTAB
M  V30 COUNTS 66 69 0 0 0
M  V30 BEGIN ATOM
M  V30 1 C 2.592993 1.193606 6.724958 0
M  V30 2 C 3.417059 1.353403 5.463109 0
M  V30 3 C 2.631847 1.975080 4.348607 0
M  V30 4 C 2.134181 3.360532 4.748681 0
M  V30 5 C 1.617522 4.051688 3.512843 0
M  V30 6 N 1.389571 3.079302 2.430475 0
M  V30 7 C 0.653112 3.752311 1.407117 0
M  V30 8 C 0.358893 2.871781 0.240801 0
M  V30 9 C 1.088931 3.024580 -0.917329 0
M  V30 10 C 0.849828 2.230751 -2.013404 0
M  V30 11 C -0.115267 1.249321 -2.028971 0
M  V30 12 N -0.316462 0.460312 -3.184745 0
M  V30 13 C -1.211388 -0.580536 -3.475684 0
M  V30 14 O -2.003143 -0.900354 -2.555385 0
M  V30 15 C -1.246308 -1.281018 -4.778747 0
M  V30 16 O -2.250092 -2.263340 -4.725688 0
M  V30 17 C -2.313500 -3.340811 -3.895570 0
M  V30 18 C -3.417768 -4.155224 -4.029263 0
M  V30 19 C -3.599528 -5.277721 -3.249048 0
M  V30 20 C -2.663268 -5.620411 -2.297259 0
M  V30 21 C -2.763559 -6.798319 -1.412361 0
M  V30 22 C -3.945949 -7.332774 -0.944815 0
M  V30 23 C -3.917683 -8.447848 -0.114214 0
M  V30 24 C -2.703667 -9.033866 0.252327 0
M  V30 25 N -1.549759 -8.512968 -0.203467 0
M  V30 26 C -1.589521 -7.438278 -1.003065 0
M  V30 27 C -1.539047 -4.835958 -2.125240 0
M  V30 28 C -1.410348 -3.727517 -2.932459 0
M  V30 29 C -0.810795 1.143659 -0.846719 0
M  V30 30 C -0.621782 1.905565 0.286446 0
M  V30 31 C -1.436235 1.703958 1.515952 0
M  V30 32 F -2.137814 2.845713 1.850405 0
M  V30 33 F -2.286388 0.625823 1.317815 0
M  V30 34 F -0.653212 1.405552 2.609173 0
M  V30 35 C 2.709192 2.661671 2.004422 0
M  V30 36 C 3.548937 2.191144 3.172953 0
M  V30 37 H 2.763415 2.017674 7.449619 0
M  V30 38 H 2.851529 0.228395 7.207920 0
M  V30 39 H 1.510001 1.116243 6.447950 0
M  V30 40 H 4.319703 1.946592 5.615676 0
M  V30 41 H 3.708800 0.333560 5.110141 0
M  V30 42 H 1.803602 1.340815 3.985850 0
M  V30 43 H 2.945061 3.958633 5.172883 0
M  V30 44 H 1.369658 3.215907 5.518910 0
M  V30 45 H 0.666259 4.560832 3.783757 0
M  V30 46 H 2.338172 4.813004 3.207509 0
M  V30 47 H 1.234732 4.649268 1.097532 0
M  V30 48 H -0.267691 4.163689 1.873854 0
M  V30 49 H 1.860131 3.771086 -0.981676 0
M  V30 50 H 1.458430 2.395464 -2.903178 0
M  V30 51 H 0.319539 0.674970 -4.010951 0
M  V30 52 H -0.247912 -1.794026 -4.869232 0
M  V30 53 H -1.379993 -0.585602 -5.626278 0
M  V30 54 H -4.197667 -3.956059 -4.752043 0
M  V30 55 H -4.437097 -5.964613 -3.294539 0
M  V30 56 H -4.858311 -6.845242 -1.254789 0
M  V30 57 H -4.835985 -8.851291 0.240034 0
M  V30 58 H -2.700958 -9.906039 0.902848 0
M  V30 59 H -0.606647 -7.102880 -1.310687 0
M  V30 60 H -0.778078 -5.066450 -1.390665 0
M  V30 61 H -0.525315 -3.133165 -2.795004 0
M  V30 62 H -1.590263 0.404401 -0.752484 0
M  V30 63 H 2.651244 1.876219 1.247085 0
M  V30 64 H 3.282114 3.507817 1.541495 0
M  V30 65 H 4.382109 2.885096 3.407265 0
M  V30 66 H 4.028616 1.232594 2.895786 0
M  V30 END ATOM
M  V30 BEGIN BOND
M  V30 1 1 1 2
M  V30 2 1 2 3
M  V30 3 1 3 4
M  V30 4 1 4 5
M  V30 5 1 5 6
M  V30 6 1 6 7
M  V30 7 1 7 8
M  V30 8 2 8 9
M  V30 9 1 9 10
M  V30 10 2 10 11
M  V30 11 1 11 12
M  V30 12 1 12 13
M  V30 13 2 13 14
M  V30 14 1 13 15
M  V30 15 1 15 16
M  V30 16 1 16 17
M  V30 17 2 17 18
M  V30 18 1 18 19
M  V30 19 2 19 20
M  V30 20 1 20 21
M  V30 21 2 21 22
M  V30 22 1 22 23
M  V30 23 2 23 24
M  V30 24 1 24 25
M  V30 25 2 25 26
M  V30 26 1 20 27
M  V30 27 2 27 28
M  V30 28 1 11 29
M  V30 29 2 29 30
M  V30 30 1 30 31
M  V30 31 1 31 32
M  V30 32 1 31 33
M  V30 33 1 31 34
M  V30 34 1 6 35
M  V30 35 1 35 36
M  V30 36 1 36 3
M  V30 37 1 30 8
M  V30 38 1 28 17
M  V30 39 1 26 21
M  V30 40 1 1 37
M  V30 41 1 1 38
M  V30 42 1 1 39
M  V30 43 1 2 40
M  V30 44 1 2 41
M  V30 45 1 3 42
M  V30 46 1 4 43
M  V30 47 1 4 44
M  V30 48 1 5 45
M  V30 49 1 5 46
M  V30 50 1 7 47
M  V30 51 1 7 48
M  V30 52 1 9 49
M  V30 53 1 10 50
M  V30 54 1 12 51
M  V30 55 1 15 52
M  V30 56 1 15 53
M  V30 57 1 18 54
M  V30 58 1 19 55
M  V30 59 1 22 56
M  V30 60 1 23 57
M  V30 61 1 24 58
M  V30 62 1 26 59
M  V30 63 1 27 60
M  V30 64 1 28 61
M  V30 65 1 29 62
M  V30 66 1 35 63
M  V30 67 1 35 64
M  V30 68 1 36 65
M  V30 69 1 36 66
M  V30 END BOND
M  V30 END CTAB
M  END
>  <Dataset>  (993) 
ChEMBL_Kinases

>  <Ligand_Instance>  (993) 
nan

>  <PDB_ID>  (993) 
nan

>  <Standardized_SMILES>  (993) 
CCC1CCN(Cc2ccc(NC(=O)COc3ccc(-c4cccnc4)cc3)cc2C(F)(F)F)CC1

>  <Name>  (993) 
nan

>  <Pocket>  (993) 
nan

>  <ATP_Site>  (993) 
nan

>  <Peripheral>  (993) 
nan

>  <Num_H_Atoms_ProtBoundConf>  (993) 
nan

>  <Num_Resolved_Atoms>  (993) 
nan

>  <Num_Not_Resolved_Atoms>  (993) 
nan

$$$$
CHEMBL3804952
     RDKit          3D

  0  0  0  0  0  0  0  0  0  0999 V3000
M  V30 BEGIN CTAB
M  V30 COUNTS 70 73 0 0 0
M  V30 BEGIN ATOM
M  V30 1 C 1.506404 -0.755192 6.992882 0
M  V30 2 C 1.441183 -2.021257 6.198164 0
M  V30 3 N 0.323907 -2.112758 5.302894 0
M  V30 4 C 0.323314 -1.222940 4.197388 0
M  V30 5 C 0.356552 -1.869703 2.840324 0
M  V30 6 N 1.001950 -3.138176 2.816868 0
M  V30 7 C 2.421572 -3.107706 2.576832 0
M  V30 8 C 2.733227 -2.487150 1.275014 0
M  V30 9 C 3.213203 -1.193734 1.243172 0
M  V30 10 C 3.525160 -0.524587 0.084941 0
M  V30 11 C 3.329963 -1.229915 -1.091381 0
M  V30 12 N 3.662689 -0.496501 -2.263593 0
M  V30 13 C 2.565301 0.220834 -2.787436 0
M  V30 14 O 1.332282 0.406090 -2.509506 0
M  V30 15 C 2.284618 1.129248 -3.932777 0
M  V30 16 C 0.851444 1.542444 -3.910474 0
M  V30 17 C 0.024658 0.662156 -4.604452 0
M  V30 18 C -1.332613 0.892598 -4.685340 0
M  V30 19 C -1.900634 2.006736 -4.076540 0
M  V30 20 O -3.271385 2.173296 -4.200124 0
M  V30 21 C -4.207313 1.662026 -3.314422 0
M  V30 22 C -4.593047 0.374024 -3.707544 0
M  V30 23 C -5.532973 -0.321623 -2.946717 0
M  V30 24 N -6.055987 0.249061 -1.848981 0
M  V30 25 C -5.695333 1.485910 -1.458363 0
M  V30 26 N -6.222501 2.141895 -0.296021 0
M  V30 27 C -5.851585 3.470502 0.134651 0
M  V30 28 C -4.773438 2.199718 -2.182701 0
M  V30 29 C -1.068285 2.867750 -3.393737 0
M  V30 30 C 0.285598 2.644530 -3.308757 0
M  V30 31 C 2.851503 -2.523753 -1.087025 0
M  V30 32 C 2.544107 -3.174216 0.115834 0
M  V30 33 C 2.038834 -4.563039 0.041003 0
M  V30 34 F 2.909404 -5.378294 0.712576 0
M  V30 35 F 0.755119 -4.678023 0.550646 0
M  V30 36 F 1.938488 -4.972619 -1.283786 0
M  V30 37 C 0.560371 -4.066329 3.802802 0
M  V30 38 C -0.062443 -3.469983 5.012811 0
M  V30 39 H 0.471888 -0.446379 7.240966 0
M  V30 40 H 2.112829 0.047787 6.527986 0
M  V30 41 H 2.008856 -0.975906 7.955494 0
M  V30 42 H 2.392304 -2.283435 5.692416 0
M  V30 43 H 1.291657 -2.861321 6.940109 0
M  V30 44 H -0.632777 -0.635697 4.254090 0
M  V30 45 H 1.124089 -0.464581 4.327537 0
M  V30 46 H 0.928941 -1.180015 2.163214 0
M  V30 47 H -0.648481 -1.976205 2.381045 0
M  V30 48 H 2.809122 -4.136105 2.603542 0
M  V30 49 H 2.930753 -2.516871 3.366178 0
M  V30 50 H 3.351203 -0.677417 2.197346 0
M  V30 51 H 3.897514 0.490611 0.131168 0
M  V30 52 H 4.455060 -0.285403 -2.905306 0
M  V30 53 H 2.549232 0.706137 -4.911833 0
M  V30 54 H 2.893633 2.050952 -3.816259 0
M  V30 55 H 0.377230 -0.241675 -5.116279 0
M  V30 56 H -1.985716 0.201239 -5.230712 0
M  V30 57 H -4.273345 -0.227626 -4.556923 0
M  V30 58 H -5.895804 -1.318399 -3.165427 0
M  V30 59 H -6.918822 1.583740 0.246681 0
M  V30 60 H -6.408532 4.261561 -0.421945 0
M  V30 61 H -4.772795 3.675795 -0.027612 0
M  V30 62 H -6.030775 3.554387 1.226106 0
M  V30 63 H -4.390118 3.209199 -1.982211 0
M  V30 64 H -1.490821 3.732407 -2.917732 0
M  V30 65 H 0.990527 3.277781 -2.790958 0
M  V30 66 H 2.722510 -3.018856 -2.050275 0
M  V30 67 H 1.411135 -4.714465 4.115691 0
M  V30 68 H -0.142898 -4.783858 3.290758 0
M  V30 69 H 0.121126 -4.045374 5.954470 0
M  V30 70 H -1.180269 -3.457654 4.888056 0
M  V30 END ATOM
M  V30 BEGIN BOND
M  V30 1 1 1 2
M  V30 2 1 2 3
M  V30 3 1 3 4
M  V30 4 1 4 5
M  V30 5 1 5 6
M  V30 6 1 6 7
M  V30 7 1 7 8
M  V30 8 2 8 9
M  V30 9 1 9 10
M  V30 10 2 10 11
M  V30 11 1 11 12
M  V30 12 1 12 13
M  V30 13 2 13 14
M  V30 14 1 13 15
M  V30 15 1 15 16
M  V30 16 2 16 17
M  V30 17 1 17 18
M  V30 18 2 18 19
M  V30 19 1 19 20
M  V30 20 1 20 21
M  V30 21 2 21 22
M  V30 22 1 22 23
M  V30 23 2 23 24
M  V30 24 1 24 25
M  V30 25 1 25 26
M  V30 26 1 26 27
M  V30 27 2 25 28
M  V30 28 1 19 29
M  V30 29 2 29 30
M  V30 30 1 11 31
M  V30 31 2 31 32
M  V30 32 1 32 33
M  V30 33 1 33 34
M  V30 34 1 33 35
M  V30 35 1 33 36
M  V30 36 1 6 37
M  V30 37 1 37 38
M  V30 38 1 38 3
M  V30 39 1 32 8
M  V30 40 1 30 16
M  V30 41 1 28 21
M  V30 42 1 1 39
M  V30 43 1 1 40
M  V30 44 1 1 41
M  V30 45 1 2 42
M  V30 46 1 2 43
M  V30 47 1 4 44
M  V30 48 1 4 45
M  V30 49 1 5 46
M  V30 50 1 5 47
M  V30 51 1 7 48
M  V30 52 1 7 49
M  V30 53 1 9 50
M  V30 54 1 10 51
M  V30 55 1 12 52
M  V30 56 1 15 53
M  V30 57 1 15 54
M  V30 58 1 17 55
M  V30 59 1 18 56
M  V30 60 1 22 57
M  V30 61 1 23 58
M  V30 62 1 26 59
M  V30 63 1 27 60
M  V30 64 1 27 61
M  V30 65 1 27 62
M  V30 66 1 28 63
M  V30 67 1 29 64
M  V30 68 1 30 65
M  V30 69 1 31 66
M  V30 70 1 37 67
M  V30 71 1 37 68
M  V30 72 1 38 69
M  V30 73 1 38 70
M  V30 END BOND
M  V30 END CTAB
M  END
>  <Dataset>  (994) 
ChEMBL_Kinases

>  <Ligand_Instance>  (994) 
nan

>  <PDB_ID>  (994) 
nan

>  <Standardized_SMILES>  (994) 
CCN1CCN(Cc2ccc(NC(=O)Cc3ccc(Oc4ccnc(NC)c4)cc3)cc2C(F)(F)F)CC1

>  <Name>  (994) 
nan

>  <Pocket>  (994) 
nan

>  <ATP_Site>  (994) 
nan

>  <Peripheral>  (994) 
nan

>  <Num_H_Atoms_ProtBoundConf>  (994) 
nan

>  <Num_Resolved_Atoms>  (994) 
nan

>  <Num_Not_Resolved_Atoms>  (994) 
nan

$$$$
CHEMBL3804972
     RDKit          3D

  0  0  0  0  0  0  0  0  0  0999 V3000
M  V30 BEGIN CTAB
M  V30 COUNTS 73 76 0 0 0
M  V30 BEGIN ATOM
M  V30 1 C 4.811477 -3.701319 6.731755 0
M  V30 2 C 5.406713 -3.903516 5.353857 0
M  V30 3 C 4.716237 -5.092183 4.721808 0
M  V30 4 C 5.138244 -2.665537 4.572376 0
M  V30 5 O 6.111711 -2.002461 4.111381 0
M  V30 6 N 3.789281 -2.324130 4.405606 0
M  V30 7 C 3.248303 -1.206266 3.710880 0
M  V30 8 C 2.974584 -1.433464 2.356336 0
M  V30 9 C 2.441128 -0.382521 1.598484 0
M  V30 10 C 2.179323 0.874498 2.159278 0
M  V30 11 C 1.621846 1.900924 1.282641 0
M  V30 12 C 2.009602 1.839905 -0.041574 0
M  V30 13 C 1.517638 2.770809 -0.916043 0
M  V30 14 C 0.636107 3.801163 -0.572680 0
M  V30 15 N 0.124022 4.754283 -1.499968 0
M  V30 16 C 0.548823 4.562367 -2.851604 0
M  V30 17 C 0.009521 3.313976 -3.477595 0
M  V30 18 O 0.343507 3.028192 -4.659767 0
M  V30 19 N -0.853326 2.502641 -2.724101 0
M  V30 20 C -1.558910 1.286249 -2.909772 0
M  V30 21 C -0.955945 0.086630 -2.587471 0
M  V30 22 C -1.668322 -1.081927 -2.774677 0
M  V30 23 C -2.978650 -1.112859 -3.277584 0
M  V30 24 C -3.517246 -2.476434 -3.269689 0
M  V30 25 N -4.037726 -3.002896 -2.090601 0
M  V30 26 C -4.982516 -2.406219 -1.290738 0
M  V30 27 C -5.075650 -2.892643 0.119844 0
M  V30 28 N -4.372916 -4.084651 0.441530 0
M  V30 29 C -3.223499 -4.383494 -0.350869 0
M  V30 30 C -3.691918 -4.367223 -1.807543 0
M  V30 31 C -3.592811 0.071070 -3.607337 0
M  V30 32 C -4.912128 0.113121 -4.213137 0
M  V30 33 F -5.878593 -0.415904 -3.455755 0
M  V30 34 F -5.228967 1.472269 -4.374193 0
M  V30 35 F -4.911898 -0.367814 -5.522173 0
M  V30 36 C -2.839173 1.236520 -3.401981 0
M  V30 37 C 0.284216 3.806210 0.782962 0
M  V30 38 C 0.752968 2.891165 1.700004 0
M  V30 39 C 2.477568 1.014516 3.499574 0
M  V30 40 N 2.989246 0.009839 4.231779 0
M  V30 41 H 3.726015 -3.431119 6.594124 0
M  V30 42 H 4.890791 -4.619242 7.349044 0
M  V30 43 H 5.276807 -2.831092 7.238901 0
M  V30 44 H 6.479861 -4.061398 5.493596 0
M  V30 45 H 4.981554 -5.219768 3.649684 0
M  V30 46 H 5.042632 -6.008918 5.252689 0
M  V30 47 H 3.624849 -5.007382 4.841691 0
M  V30 48 H 2.974966 -2.848551 4.773150 0
M  V30 49 H 3.171243 -2.405636 1.898757 0
M  V30 50 H 2.255932 -0.642238 0.556048 0
M  V30 51 H 2.688283 1.084704 -0.412867 0
M  V30 52 H 1.833505 2.707488 -1.947880 0
M  V30 53 H -0.498492 5.483780 -1.101151 0
M  V30 54 H 1.644327 4.550740 -2.916560 0
M  V30 55 H 0.217882 5.476787 -3.417319 0
M  V30 56 H -1.196142 2.672471 -1.753240 0
M  V30 57 H 0.049945 0.132595 -2.204429 0
M  V30 58 H -1.075988 -1.961919 -2.479676 0
M  V30 59 H -4.358477 -2.506437 -4.028469 0
M  V30 60 H -2.702631 -3.177703 -3.627454 0
M  V30 61 H -4.764028 -1.288564 -1.254819 0
M  V30 62 H -5.995900 -2.469756 -1.780354 0
M  V30 63 H -4.836033 -2.081235 0.862114 0
M  V30 64 H -6.166417 -3.102847 0.331857 0
M  V30 65 H -4.061296 -4.025297 1.454426 0
M  V30 66 H -2.459401 -3.584933 -0.214951 0
M  V30 67 H -2.851769 -5.383837 -0.046574 0
M  V30 68 H -2.931362 -4.694894 -2.514048 0
M  V30 69 H -4.619095 -4.971664 -1.859649 0
M  V30 70 H -3.289125 2.187945 -3.647515 0
M  V30 71 H -0.407773 4.596827 1.101403 0
M  V30 72 H 0.466673 2.919375 2.740370 0
M  V30 73 H 2.277525 1.973201 3.928988 0
M  V30 END ATOM
M  V30 BEGIN BOND
M  V30 1 1 1 2
M  V30 2 1 2 3
M  V30 3 1 2 4
M  V30 4 2 4 5
M  V30 5 1 4 6
M  V30 6 1 6 7
M  V30 7 2 7 8
M  V30 8 1 8 9
M  V30 9 2 9 10
M  V30 10 1 10 11
M  V30 11 2 11 12
M  V30 12 1 12 13
M  V30 13 2 13 14
M  V30 14 1 14 15
M  V30 15 1 15 16
M  V30 16 1 16 17
M  V30 17 2 17 18
M  V30 18 1 17 19
M  V30 19 1 19 20
M  V30 20 2 20 21
M  V30 21 1 21 22
M  V30 22 2 22 23
M  V30 23 1 23 24
M  V30 24 1 24 25
M  V30 25 1 25 26
M  V30 26 1 26 27
M  V30 27 1 27 28
M  V30 28 1 28 29
M  V30 29 1 29 30
M  V30 30 1 23 31
M  V30 31 1 31 32
M  V30 32 1 32 33
M  V30 33 1 32 34
M  V30 34 1 32 35
M  V30 35 2 31 36
M  V30 36 1 14 37
M  V30 37 2 37 38
M  V30 38 1 10 39
M  V30 39 2 39 40
M  V30 40 1 40 7
M  V30 41 1 38 11
M  V30 42 1 36 20
M  V30 43 1 30 25
M  V30 44 1 1 41
M  V30 45 1 1 42
M  V30 46 1 1 43
M  V30 47 1 2 44
M  V30 48 1 3 45
M  V30 49 1 3 46
M  V30 50 1 3 47
M  V30 51 1 6 48
M  V30 52 1 8 49
M  V30 53 1 9 50
M  V30 54 1 12 51
M  V30 55 1 13 52
M  V30 56 1 15 53
M  V30 57 1 16 54
M  V30 58 1 16 55
M  V30 59 1 19 56
M  V30 60 1 21 57
M  V30 61 1 22 58
M  V30 62 1 24 59
M  V30 63 1 24 60
M  V30 64 1 26 61
M  V30 65 1 26 62
M  V30 66 1 27 63
M  V30 67 1 27 64
M  V30 68 1 28 65
M  V30 69 1 29 66
M  V30 70 1 29 67
M  V30 71 1 30 68
M  V30 72 1 30 69
M  V30 73 1 36 70
M  V30 74 1 37 71
M  V30 75 1 38 72
M  V30 76 1 39 73
M  V30 END BOND
M  V30 END CTAB
M  END
>  <Dataset>  (995) 
ChEMBL_Kinases

>  <Ligand_Instance>  (995) 
nan

>  <PDB_ID>  (995) 
nan

>  <Standardized_SMILES>  (995) 
CC(C)C(=O)Nc1ccc(-c2ccc(NCC(=O)Nc3ccc(CN4CCNCC4)c(C(F)(F)F)c3)cc2)cn1

>  <Name>  (995) 
nan

>  <Pocket>  (995) 
nan

>  <ATP_Site>  (995) 
nan

>  <Peripheral>  (995) 
nan

>  <Num_H_Atoms_ProtBoundConf>  (995) 
nan

>  <Num_Resolved_Atoms>  (995) 
nan

>  <Num_Not_Resolved_Atoms>  (995) 
nan

$$$$
CHEMBL4091048
     RDKit          3D

  0  0  0  0  0  0  0  0  0  0999 V3000
M  V30 BEGIN CTAB
M  V30 COUNTS 45 48 0 0 0
M  V30 BEGIN ATOM
M  V30 1 C 0.428303 -6.174328 3.825847 0
M  V30 2 C -0.436736 -4.975486 3.609723 0
M  V30 3 C 0.028728 -3.733669 3.236376 0
M  V30 4 C -1.081849 -2.920060 3.136926 0
M  V30 5 N -1.288748 -1.531387 2.789771 0
M  V30 6 C -0.881583 -0.958814 1.542798 0
M  V30 7 N 0.243488 -0.199813 1.505759 0
M  V30 8 C 0.623550 0.329644 0.335900 0
M  V30 9 N 1.751076 1.179148 0.063983 0
M  V30 10 C 2.091787 1.708284 -1.258335 0
M  V30 11 C 1.739868 3.176539 -1.313710 0
M  V30 12 C 2.425916 3.967821 -0.262700 0
M  V30 13 N 3.622578 4.617025 -0.767888 0
M  V30 14 C 2.606956 3.222586 1.006599 0
M  V30 15 C 2.769052 1.731782 0.901300 0
M  V30 16 N -0.099770 0.115936 -0.807838 0
M  V30 17 C -1.217633 -0.628877 -0.818600 0
M  V30 18 C -1.933354 -0.838151 -1.977105 0
M  V30 19 C -3.095245 -1.614511 -1.975170 0
M  V30 20 C -3.509295 -2.170645 -0.763523 0
M  V30 21 Cl -4.966313 -3.164118 -0.745574 0
M  V30 22 C -2.753510 -1.926545 0.360381 0
M  V30 23 C -1.604064 -1.166261 0.372910 0
M  V30 24 N -2.125286 -3.702001 3.448453 0
M  V30 25 N -1.799061 -4.927456 3.737891 0
M  V30 26 H -0.253617 -7.047931 4.045083 0
M  V30 27 H 0.960753 -6.451568 2.904966 0
M  V30 28 H 1.076460 -6.012959 4.692864 0
M  V30 29 H 1.003139 -3.351925 3.037934 0
M  V30 30 H -1.759982 -0.923755 3.513019 0
M  V30 31 H 1.420112 1.193735 -2.013921 0
M  V30 32 H 3.143269 1.591980 -1.538212 0
M  V30 33 H 2.047350 3.546389 -2.326218 0
M  V30 34 H 0.621162 3.319328 -1.216636 0
M  V30 35 H 1.744398 4.850476 -0.009909 0
M  V30 36 H 3.918950 4.298438 -1.705444 0
M  V30 37 H 4.367987 4.535526 -0.062904 0
M  V30 38 H 1.767247 3.439423 1.706360 0
M  V30 39 H 3.529477 3.637733 1.512118 0
M  V30 40 H 2.721213 1.319559 1.940180 0
M  V30 41 H 3.813054 1.530190 0.566214 0
M  V30 42 H -1.577728 -0.388081 -2.902261 0
M  V30 43 H -3.675791 -1.784180 -2.887856 0
M  V30 44 H -3.128058 -2.377201 1.272041 0
M  V30 45 H -2.449419 -5.714822 4.008552 0
M  V30 END ATOM
M  V30 BEGIN BOND
M  V30 1 1 1 2
M  V30 2 2 2 3
M  V30 3 1 3 4
M  V30 4 1 4 5
M  V30 5 1 5 6
M  V30 6 2 6 7
M  V30 7 1 7 8
M  V30 8 1 8 9
M  V30 9 1 9 10
M  V30 10 1 10 11
M  V30 11 1 11 12
M  V30 12 1 12 13
M  V30 13 1 12 14
M  V30 14 1 14 15
M  V30 15 2 8 16
M  V30 16 1 16 17
M  V30 17 2 17 18
M  V30 18 1 18 19
M  V30 19 2 19 20
M  V30 20 1 20 21
M  V30 21 1 20 22
M  V30 22 2 22 23
M  V30 23 2 4 24
M  V30 24 1 24 25
M  V30 25 1 25 2
M  V30 26 1 23 6
M  V30 27 1 15 9
M  V30 28 1 23 17
M  V30 29 1 1 26
M  V30 30 1 1 27
M  V30 31 1 1 28
M  V30 32 1 3 29
M  V30 33 1 5 30
M  V30 34 1 10 31
M  V30 35 1 10 32
M  V30 36 1 11 33
M  V30 37 1 11 34
M  V30 38 1 12 35
M  V30 39 1 13 36
M  V30 40 1 13 37
M  V30 41 1 14 38
M  V30 42 1 14 39
M  V30 43 1 15 40
M  V30 44 1 15 41
M  V30 45 1 18 42
M  V30 46 1 19 43
M  V30 47 1 22 44
M  V30 48 1 25 45
M  V30 END BOND
M  V30 END CTAB
M  END
>  <Dataset>  (996) 
ChEMBL_Kinases

>  <Ligand_Instance>  (996) 
nan

>  <PDB_ID>  (996) 
nan

>  <Standardized_SMILES>  (996) 
Cc1cc(Nc2nc(N3CCC(N)CC3)nc3ccc(Cl)cc23)n[nH]1

>  <Name>  (996) 
nan

>  <Pocket>  (996) 
nan

>  <ATP_Site>  (996) 
nan

>  <Peripheral>  (996) 
nan

>  <Num_H_Atoms_ProtBoundConf>  (996) 
nan

>  <Num_Resolved_Atoms>  (996) 
nan

>  <Num_Not_Resolved_Atoms>  (996) 
nan

$$$$
CHEMBL3805114
     RDKit          3D

  0  0  0  0  0  0  0  0  0  0999 V3000
M  V30 BEGIN CTAB
M  V30 COUNTS 65 68 0 0 0
M  V30 BEGIN ATOM
M  V30 1 C 3.235649 -2.674777 3.990519 0
M  V30 2 C 4.045613 -3.051205 2.772658 0
M  V30 3 N 4.502382 -1.888516 2.042546 0
M  V30 4 C 5.263678 -2.197217 0.895524 0
M  V30 5 C 5.216346 -1.237627 -0.244346 0
M  V30 6 N 3.959854 -0.613534 -0.456276 0
M  V30 7 C 4.025707 0.717037 -0.981707 0
M  V30 8 C 2.698757 1.334896 -1.190616 0
M  V30 9 C 2.274041 2.293488 -0.262554 0
M  V30 10 C 1.033659 2.862953 -0.462329 0
M  V30 11 C 0.269009 2.477722 -1.545867 0
M  V30 12 N -0.988314 3.176458 -1.584188 0
M  V30 13 C -1.901926 2.391635 -0.843895 0
M  V30 14 O -2.052156 1.335727 -0.171546 0
M  V30 15 C -3.336902 2.587875 -0.530052 0
M  V30 16 C -3.878668 1.485897 0.286127 0
M  V30 17 C -4.412626 0.386297 -0.305829 0
M  V30 18 C -4.927921 -0.668247 0.400239 0
M  V30 19 C -4.915430 -0.635531 1.771867 0
M  V30 20 O -5.432820 -1.695430 2.519058 0
M  V30 21 C -5.955192 -2.780660 1.825090 0
M  V30 22 C -7.275555 -2.882236 1.438901 0
M  V30 23 C -7.750292 -3.998685 0.741428 0
M  V30 24 N -6.909113 -5.013811 0.428259 0
M  V30 25 C -5.615804 -4.920940 0.803005 0
M  V30 26 C -5.135543 -3.829538 1.489168 0
M  V30 27 C -4.384436 0.458923 2.456259 0
M  V30 28 C -3.872964 1.505545 1.681736 0
M  V30 29 C 0.698615 1.531574 -2.453866 0
M  V30 30 C 1.939918 0.931511 -2.293683 0
M  V30 31 C 2.406875 -0.071869 -3.249569 0
M  V30 32 F 1.439936 -0.263816 -4.233353 0
M  V30 33 F 3.524693 0.398205 -3.946276 0
M  V30 34 F 2.632052 -1.267180 -2.637004 0
M  V30 35 C 2.982758 -0.808442 0.562664 0
M  V30 36 C 3.548500 -0.842083 1.955821 0
M  V30 37 H 3.445051 -3.445005 4.782170 0
M  V30 38 H 2.159072 -2.718324 3.777192 0
M  V30 39 H 3.562108 -1.680060 4.367293 0
M  V30 40 H 3.487217 -3.690790 2.052928 0
M  V30 41 H 4.962618 -3.568214 3.122290 0
M  V30 42 H 4.976213 -3.222731 0.541355 0
M  V30 43 H 6.329287 -2.303815 1.222166 0
M  V30 44 H 6.047654 -0.491822 -0.118944 0
M  V30 45 H 5.483653 -1.800317 -1.163424 0
M  V30 46 H 4.634379 1.336440 -0.298456 0
M  V30 47 H 4.589074 0.682650 -1.935652 0
M  V30 48 H 2.922727 2.546687 0.561895 0
M  V30 49 H 0.753967 3.594854 0.280476 0
M  V30 50 H -1.447168 4.035819 -1.958266 0
M  V30 51 H -3.527775 3.522426 0.009733 0
M  V30 52 H -3.915318 2.630222 -1.474356 0
M  V30 53 H -4.424490 0.356833 -1.379323 0
M  V30 54 H -5.353487 -1.545433 -0.074342 0
M  V30 55 H -7.933616 -2.054455 1.701440 0
M  V30 56 H -8.800609 -4.060207 0.444711 0
M  V30 57 H -5.052860 -5.795403 0.493128 0
M  V30 58 H -4.091325 -3.889747 1.721249 0
M  V30 59 H -4.344266 0.547154 3.532110 0
M  V30 60 H -3.448911 2.378825 2.174132 0
M  V30 61 H 0.028417 1.306063 -3.256618 0
M  V30 62 H 2.509788 -1.797944 0.388951 0
M  V30 63 H 2.189170 -0.055354 0.500412 0
M  V30 64 H 3.934491 0.124638 2.301245 0
M  V30 65 H 2.691498 -1.085198 2.621386 0
M  V30 END ATOM
M  V30 BEGIN BOND
M  V30 1 1 1 2
M  V30 2 1 2 3
M  V30 3 1 3 4
M  V30 4 1 4 5
M  V30 5 1 5 6
M  V30 6 1 6 7
M  V30 7 1 7 8
M  V30 8 2 8 9
M  V30 9 1 9 10
M  V30 10 2 10 11
M  V30 11 1 11 12
M  V30 12 1 12 13
M  V30 13 2 13 14
M  V30 14 1 13 15
M  V30 15 1 15 16
M  V30 16 2 16 17
M  V30 17 1 17 18
M  V30 18 2 18 19
M  V30 19 1 19 20
M  V30 20 1 20 21
M  V30 21 2 21 22
M  V30 22 1 22 23
M  V30 23 2 23 24
M  V30 24 1 24 25
M  V30 25 2 25 26
M  V30 26 1 19 27
M  V30 27 2 27 28
M  V30 28 1 11 29
M  V30 29 2 29 30
M  V30 30 1 30 31
M  V30 31 1 31 32
M  V30 32 1 31 33
M  V30 33 1 31 34
M  V30 34 1 6 35
M  V30 35 1 35 36
M  V30 36 1 36 3
M  V30 37 1 30 8
M  V30 38 1 28 16
M  V30 39 1 26 21
M  V30 40 1 1 37
M  V30 41 1 1 38
M  V30 42 1 1 39
M  V30 43 1 2 40
M  V30 44 1 2 41
M  V30 45 1 4 42
M  V30 46 1 4 43
M  V30 47 1 5 44
M  V30 48 1 5 45
M  V30 49 1 7 46
M  V30 50 1 7 47
M  V30 51 1 9 48
M  V30 52 1 10 49
M  V30 53 1 12 50
M  V30 54 1 15 51
M  V30 55 1 15 52
M  V30 56 1 17 53
M  V30 57 1 18 54
M  V30 58 1 22 55
M  V30 59 1 23 56
M  V30 60 1 25 57
M  V30 61 1 26 58
M  V30 62 1 27 59
M  V30 63 1 28 60
M  V30 64 1 29 61
M  V30 65 1 35 62
M  V30 66 1 35 63
M  V30 67 1 36 64
M  V30 68 1 36 65
M  V30 END BOND
M  V30 END CTAB
M  END
>  <Dataset>  (997) 
ChEMBL_Kinases

>  <Ligand_Instance>  (997) 
nan

>  <PDB_ID>  (997) 
nan

>  <Standardized_SMILES>  (997) 
CCN1CCN(Cc2ccc(NC(=O)Cc3ccc(Oc4ccncc4)cc3)cc2C(F)(F)F)CC1

>  <Name>  (997) 
nan

>  <Pocket>  (997) 
nan

>  <ATP_Site>  (997) 
nan

>  <Peripheral>  (997) 
nan

>  <Num_H_Atoms_ProtBoundConf>  (997) 
nan

>  <Num_Resolved_Atoms>  (997) 
nan

>  <Num_Not_Resolved_Atoms>  (997) 
nan

$$$$
CHEMBL3422067
     RDKit          3D

  0  0  0  0  0  0  0  0  0  0999 V3000
M  V30 BEGIN CTAB
M  V30 COUNTS 74 79 0 0 0
M  V30 BEGIN ATOM
M  V30 1 O 0.855625 -0.238515 4.793572 0
M  V30 2 C 0.258095 -0.533009 3.706460 0
M  V30 3 N 0.777561 0.050850 2.493705 0
M  V30 4 C 1.897207 0.855026 2.859483 0
M  V30 5 C 2.600093 1.567344 1.764818 0
M  V30 6 N 3.174311 0.792808 0.733566 0
M  V30 7 C 2.249848 0.000467 0.008090 0
M  V30 8 C 2.928372 -0.335353 -1.333190 0
M  V30 9 O 4.108549 -1.007452 -1.142137 0
M  V30 10 C 4.494973 -1.191017 0.161313 0
M  V30 11 C 4.352779 0.055173 1.025796 0
M  V30 12 C 1.626375 2.567342 1.122022 0
M  V30 13 C 2.268614 3.270912 -0.038585 0
M  V30 14 C 3.757769 3.345119 0.057589 0
M  V30 15 C 4.314782 3.378337 1.443727 0
M  V30 16 C 3.635871 2.489997 2.432288 0
M  V30 17 C -0.886290 -1.427850 3.805060 0
M  V30 18 C -1.241583 -1.845335 5.068073 0
M  V30 19 C -2.334526 -2.707106 5.223606 0
M  V30 20 C -3.078675 -3.159054 4.137840 0
M  V30 21 N -4.143990 -3.963431 3.977696 0
M  V30 22 N -4.425901 -4.035611 2.687900 0
M  V30 23 C -3.582619 -3.301062 1.946856 0
M  V30 24 C -3.584188 -3.136714 0.497945 0
M  V30 25 C -4.748531 -2.877553 -0.199471 0
M  V30 26 C -4.801974 -2.720917 -1.548375 0
M  V30 27 C -3.661012 -2.815191 -2.317295 0
M  V30 28 N -3.606268 -2.663073 -3.729788 0
M  V30 29 C -2.465550 -2.837154 -4.612451 0
M  V30 30 C -2.013005 -1.436137 -4.968712 0
M  V30 31 O -3.084390 -0.592440 -5.077872 0
M  V30 32 C -4.281991 -1.152272 -5.429912 0
M  V30 33 C -4.746459 -2.284804 -4.542317 0
M  V30 34 C -2.490731 -3.073536 -1.636480 0
M  V30 35 C -2.426294 -3.234498 -0.265410 0
M  V30 36 C -2.716579 -2.736617 2.874668 0
M  V30 37 C -1.636605 -1.888547 2.753346 0
M  V30 38 H 0.178618 -0.284429 1.692533 0
M  V30 39 H 2.647692 0.247099 3.405834 0
M  V30 40 H 1.569539 1.638770 3.604563 0
M  V30 41 H 2.092972 -0.998114 0.475262 0
M  V30 42 H 1.320352 0.512410 -0.234828 0
M  V30 43 H 3.167245 0.630791 -1.859528 0
M  V30 44 H 2.187314 -0.881777 -1.958996 0
M  V30 45 H 4.004177 -2.040885 0.683954 0
M  V30 46 H 5.598832 -1.429612 0.154586 0
M  V30 47 H 4.506009 -0.261227 2.057688 0
M  V30 48 H 5.230424 0.710472 0.749701 0
M  V30 49 H 0.684229 2.124290 0.816221 0
M  V30 50 H 1.440644 3.347901 1.915799 0
M  V30 51 H 1.847141 4.296866 -0.183211 0
M  V30 52 H 2.019396 2.751230 -1.001867 0
M  V30 53 H 4.078682 4.301798 -0.436281 0
M  V30 54 H 4.217548 2.553477 -0.577398 0
M  V30 55 H 4.316604 4.447386 1.808464 0
M  V30 56 H 5.414518 3.136506 1.345772 0
M  V30 57 H 3.029499 3.133413 3.110893 0
M  V30 58 H 4.312153 1.926659 3.106766 0
M  V30 59 H -0.743490 -1.564624 5.986293 0
M  V30 60 H -2.622177 -3.043382 6.233684 0
M  V30 61 H -4.660210 -4.449262 4.748007 0
M  V30 62 H -5.671542 -2.793907 0.357513 0
M  V30 63 H -5.725908 -2.524013 -2.027770 0
M  V30 64 H -1.660409 -3.377420 -4.078092 0
M  V30 65 H -2.711789 -3.386472 -5.545929 0
M  V30 66 H -1.423510 -1.094693 -4.066040 0
M  V30 67 H -1.305279 -1.435420 -5.818549 0
M  V30 68 H -4.358554 -1.426605 -6.498459 0
M  V30 69 H -5.053339 -0.335768 -5.304605 0
M  V30 70 H -4.960514 -3.169222 -5.203237 0
M  V30 71 H -5.658238 -2.065889 -3.998004 0
M  V30 72 H -1.509889 -3.178385 -2.076303 0
M  V30 73 H -1.531502 -3.439494 0.300396 0
M  V30 74 H -1.374695 -1.572802 1.773207 0
M  V30 END ATOM
M  V30 BEGIN BOND
M  V30 1 2 1 2
M  V30 2 1 2 3
M  V30 3 1 3 4
M  V30 4 1 4 5
M  V30 5 1 5 6
M  V30 6 1 6 7
M  V30 7 1 7 8
M  V30 8 1 8 9
M  V30 9 1 9 10
M  V30 10 1 10 11
M  V30 11 1 5 12
M  V30 12 1 12 13
M  V30 13 1 13 14
M  V30 14 1 14 15
M  V30 15 1 15 16
M  V30 16 1 2 17
M  V30 17 2 17 18
M  V30 18 1 18 19
M  V30 19 2 19 20
M  V30 20 1 20 21
M  V30 21 1 21 22
M  V30 22 2 22 23
M  V30 23 1 23 24
M  V30 24 2 24 25
M  V30 25 1 25 26
M  V30 26 2 26 27
M  V30 27 1 27 28
M  V30 28 1 28 29
M  V30 29 1 29 30
M  V30 30 1 30 31
M  V30 31 1 31 32
M  V30 32 1 32 33
M  V30 33 1 27 34
M  V30 34 2 34 35
M  V30 35 1 23 36
M  V30 36 2 36 37
M  V30 37 1 16 5
M  V30 38 1 37 17
M  V30 39 1 11 6
M  V30 40 1 36 20
M  V30 41 1 35 24
M  V30 42 1 33 28
M  V30 43 1 3 38
M  V30 44 1 4 39
M  V30 45 1 4 40
M  V30 46 1 7 41
M  V30 47 1 7 42
M  V30 48 1 8 43
M  V30 49 1 8 44
M  V30 50 1 10 45
M  V30 51 1 10 46
M  V30 52 1 11 47
M  V30 53 1 11 48
M  V30 54 1 12 49
M  V30 55 1 12 50
M  V30 56 1 13 51
M  V30 57 1 13 52
M  V30 58 1 14 53
M  V30 59 1 14 54
M  V30 60 1 15 55
M  V30 61 1 15 56
M  V30 62 1 16 57
M  V30 63 1 16 58
M  V30 64 1 18 59
M  V30 65 1 19 60
M  V30 66 1 21 61
M  V30 67 1 25 62
M  V30 68 1 26 63
M  V30 69 1 29 64
M  V30 70 1 29 65
M  V30 71 1 30 66
M  V30 72 1 30 67
M  V30 73 1 32 68
M  V30 74 1 32 69
M  V30 75 1 33 70
M  V30 76 1 33 71
M  V30 77 1 34 72
M  V30 78 1 35 73
M  V30 79 1 37 74
M  V30 END BOND
M  V30 END CTAB
M  END
>  <Dataset>  (998) 
ChEMBL_Kinases

>  <Ligand_Instance>  (998) 
nan

>  <PDB_ID>  (998) 
nan

>  <Standardized_SMILES>  (998) 
O=C(NCC1(N2CCOCC2)CCCCC1)c1ccc2[nH]nc(-c3ccc(N4CCOCC4)cc3)c2c1

>  <Name>  (998) 
nan

>  <Pocket>  (998) 
nan

>  <ATP_Site>  (998) 
nan

>  <Peripheral>  (998) 
nan

>  <Num_H_Atoms_ProtBoundConf>  (998) 
nan

>  <Num_Resolved_Atoms>  (998) 
nan

>  <Num_Not_Resolved_Atoms>  (998) 
nan

$$$$
CHEMBL3422068
     RDKit          3D

  0  0  0  0  0  0  0  0  0  0999 V3000
M  V30 BEGIN CTAB
M  V30 COUNTS 71 76 0 0 0
M  V30 BEGIN ATOM
M  V30 1 C 5.033921 0.502036 7.264330 0
M  V30 2 N 4.962522 -0.902528 6.936186 0
M  V30 3 C 5.809589 -1.172699 5.794814 0
M  V30 4 C 5.428020 -0.197445 4.703731 0
M  V30 5 C 4.011586 -0.523886 4.287678 0
M  V30 6 O 3.242193 0.617070 4.072194 0
M  V30 7 C 2.674348 1.046220 2.905908 0
M  V30 8 C 2.676693 0.515085 1.634023 0
M  V30 9 C 2.040108 1.104919 0.588130 0
M  V30 10 C 1.351880 2.286495 0.769051 0
M  V30 11 C 0.638835 2.991754 -0.289327 0
M  V30 12 N 0.711625 4.324115 -0.511444 0
M  V30 13 N -0.057411 4.658155 -1.549525 0
M  V30 14 C -0.650955 3.554015 -2.030581 0
M  V30 15 C -1.527462 3.258761 -3.053802 0
M  V30 16 C -1.918984 1.950636 -3.233354 0
M  V30 17 C -1.514048 0.881231 -2.476240 0
M  V30 18 N -1.895959 -0.470324 -2.632748 0
M  V30 19 C -2.755987 -1.042812 -3.570647 0
M  V30 20 O -3.310816 -0.326037 -4.433432 0
M  V30 21 C -3.095790 -2.480780 -3.654265 0
M  V30 22 C -4.033617 -2.751474 -4.768676 0
M  V30 23 C -3.935528 -3.669370 -5.750058 0
M  V30 24 C -4.965469 -3.720722 -6.733012 0
M  V30 25 S -6.136335 -2.394201 -6.236587 0
M  V30 26 C -5.221370 -1.841940 -4.773287 0
M  V30 27 C -3.617829 -3.076329 -2.400226 0
M  V30 28 C -3.935319 -4.565253 -2.596570 0
M  V30 29 C -4.863842 -4.892781 -1.419737 0
M  V30 30 C -5.175801 -3.547887 -0.753085 0
M  V30 31 C -4.976772 -2.604322 -1.959568 0
M  V30 32 C -0.641515 1.208928 -1.465778 0
M  V30 33 C -0.222188 2.502434 -1.248377 0
M  V30 34 C 1.317125 2.864974 2.029576 0
M  V30 35 C 1.977707 2.245606 3.097284 0
M  V30 36 C 3.342719 -1.526432 5.200512 0
M  V30 37 C 3.594140 -1.279693 6.662722 0
M  V30 38 H 4.884487 0.699338 8.348526 0
M  V30 39 H 6.015207 0.935442 7.011938 0
M  V30 40 H 4.189447 1.002374 6.731884 0
M  V30 41 H 5.594746 -2.199283 5.448495 0
M  V30 42 H 6.864544 -1.048166 6.112498 0
M  V30 43 H 6.155847 -0.325550 3.877336 0
M  V30 44 H 5.401685 0.848058 5.069139 0
M  V30 45 H 4.104647 -1.058341 3.299608 0
M  V30 46 H 3.236191 -0.408027 1.577799 0
M  V30 47 H 2.069002 0.654576 -0.392981 0
M  V30 48 H -0.248489 5.567453 -2.001491 0
M  V30 49 H -1.888945 4.051476 -3.692254 0
M  V30 50 H -2.603902 1.788686 -4.049434 0
M  V30 51 H -1.512090 -1.189533 -1.983172 0
M  V30 52 H -2.124265 -3.024036 -3.868618 0
M  V30 53 H -3.085099 -4.327236 -5.753316 0
M  V30 54 H -4.852460 -4.532416 -7.577841 0
M  V30 55 H -5.503296 -1.075611 -4.133631 0
M  V30 56 H -2.880648 -3.072054 -1.563757 0
M  V30 57 H -4.535128 -4.636202 -3.522173 0
M  V30 58 H -3.034019 -5.179177 -2.572210 0
M  V30 59 H -5.834656 -5.296672 -1.772038 0
M  V30 60 H -4.326160 -5.567600 -0.720667 0
M  V30 61 H -4.413879 -3.389098 0.011296 0
M  V30 62 H -6.216623 -3.507100 -0.409101 0
M  V30 63 H -5.051194 -1.554131 -1.691716 0
M  V30 64 H -5.728495 -2.972091 -2.690574 0
M  V30 65 H -0.271552 0.413862 -0.814882 0
M  V30 66 H 0.770248 3.807950 2.182765 0
M  V30 67 H 1.882822 2.792563 4.048436 0
M  V30 68 H 3.649946 -2.569358 4.978420 0
M  V30 69 H 2.242980 -1.512480 5.069746 0
M  V30 70 H 2.918335 -0.532134 7.110188 0
M  V30 71 H 3.408022 -2.240433 7.195565 0
M  V30 END ATOM
M  V30 BEGIN BOND
M  V30 1 1 1 2
M  V30 2 1 2 3
M  V30 3 1 3 4
M  V30 4 1 4 5
M  V30 5 1 5 6
M  V30 6 1 6 7
M  V30 7 2 7 8
M  V30 8 1 8 9
M  V30 9 2 9 10
M  V30 10 1 10 11
M  V30 11 2 11 12
M  V30 12 1 12 13
M  V30 13 1 13 14
M  V30 14 2 14 15
M  V30 15 1 15 16
M  V30 16 2 16 17
M  V30 17 1 17 18
M  V30 18 1 18 19
M  V30 19 2 19 20
M  V30 20 1 19 21
M  V30 21 1 21 22
M  V30 22 1 22 23
M  V30 23 2 23 24
M  V30 24 1 24 25
M  V30 25 1 25 26
M  V30 26 1 21 27
M  V30 27 1 27 28
M  V30 28 1 28 29
M  V30 29 1 29 30
M  V30 30 1 30 31
M  V30 31 1 17 32
M  V30 32 2 32 33
M  V30 33 1 10 34
M  V30 34 2 34 35
M  V30 35 1 5 36
M  V30 36 1 36 37
M  V30 37 1 37 2
M  V30 38 1 35 7
M  V30 39 1 33 11
M  V30 40 1 33 14
M  V30 41 2 26 22
M  V30 42 1 31 27
M  V30 43 1 1 38
M  V30 44 1 1 39
M  V30 45 1 1 40
M  V30 46 1 3 41
M  V30 47 1 3 42
M  V30 48 1 4 43
M  V30 49 1 4 44
M  V30 50 1 5 45
M  V30 51 1 8 46
M  V30 52 1 9 47
M  V30 53 1 13 48
M  V30 54 1 15 49
M  V30 55 1 16 50
M  V30 56 1 18 51
M  V30 57 1 21 52
M  V30 58 1 23 53
M  V30 59 1 24 54
M  V30 60 1 26 55
M  V30 61 1 27 56
M  V30 62 1 28 57
M  V30 63 1 28 58
M  V30 64 1 29 59
M  V30 65 1 29 60
M  V30 66 1 30 61
M  V30 67 1 30 62
M  V30 68 1 31 63
M  V30 69 1 31 64
M  V30 70 1 32 65
M  V30 71 1 34 66
M  V30 72 1 35 67
M  V30 73 1 36 68
M  V30 74 1 36 69
M  V30 75 1 37 70
M  V30 76 1 37 71
M  V30 END BOND
M  V30 END CTAB
M  END
>  <Dataset>  (999) 
ChEMBL_Kinases

>  <Ligand_Instance>  (999) 
nan

>  <PDB_ID>  (999) 
nan

>  <Standardized_SMILES>  (999) 
CN1CCC(Oc2ccc(-c3n[nH]c4ccc(NC(=O)C(c5ccsc5)C5CCCC5)cc34)cc2)CC1

>  <Name>  (999) 
nan

>  <Pocket>  (999) 
nan

>  <ATP_Site>  (999) 
nan

>  <Peripheral>  (999) 
nan

>  <Num_H_Atoms_ProtBoundConf>  (999) 
nan

>  <Num_Resolved_Atoms>  (999) 
nan

>  <Num_Not_Resolved_Atoms>  (999) 
nan

$$$$
