CHEMBL557318
     RDKit          3D

  0  0  0  0  0  0  0  0  0  0999 V3000
M  V30 BEGIN CTAB
M  V30 COUNTS 31 34 0 0 0
M  V30 BEGIN ATOM
M  V30 1 C -2.779969 -2.487591 0.916304 0
M  V30 2 C -1.787714 -2.986430 1.973205 0 CFG=2
M  V30 3 C -1.045150 -1.810152 2.579381 0
M  V30 4 N -0.610879 -0.878826 1.534364 0
M  V30 5 C 0.419341 -0.981891 0.558710 0
M  V30 6 C 0.627383 -2.270368 0.014243 0
M  V30 7 S 1.900758 -2.096204 -1.162207 0
M  V30 8 C 2.130010 -0.309118 -0.902497 0
M  V30 9 C 3.011084 0.544378 -1.513316 0
M  V30 10 C 3.011919 1.873765 -1.147205 0
M  V30 11 C 2.099474 2.189557 -0.182573 0
M  V30 12 O 1.952691 3.423720 0.304661 0
M  V30 13 C 1.023880 3.464597 1.213394 0
M  V30 14 C 0.557137 2.172574 1.302125 0
M  V30 15 C 1.212677 1.335090 0.432522 0
M  V30 16 C 1.195114 0.008954 0.081308 0
M  V30 17 C 0.037812 -3.598691 0.235405 0
M  V30 18 O 0.398612 -4.481888 -0.578223 0
M  V30 19 N -0.892690 -3.908726 1.298893 0
M  V30 20 H -3.036570 -1.443696 1.182530 0
M  V30 21 H -2.257833 -2.403622 -0.073467 0
M  V30 22 H -3.673278 -3.118892 0.884116 0
M  V30 23 H -2.370022 -3.481154 2.749500 0
M  V30 24 H -0.133317 -2.159013 3.096451 0
M  V30 25 H -1.732105 -1.257275 3.238414 0
M  V30 26 H -1.154590 0.037221 1.467364 0
M  V30 27 H 3.685641 0.171192 -2.264323 0
M  V30 28 H 3.694608 2.559681 -1.614523 0
M  V30 29 H 0.724361 4.352629 1.751678 0
M  V30 30 H -0.212672 1.959881 1.999781 0
M  V30 31 H -0.841074 -4.944012 1.539447 0
M  V30 END ATOM
M  V30 BEGIN BOND
M  V30 1 1 1 2
M  V30 2 1 2 3
M  V30 3 1 3 4
M  V30 4 1 4 5
M  V30 5 2 5 6
M  V30 6 1 6 7
M  V30 7 1 7 8
M  V30 8 2 8 9
M  V30 9 1 9 10
M  V30 10 2 10 11
M  V30 11 1 11 12
M  V30 12 1 12 13
M  V30 13 2 13 14
M  V30 14 1 14 15
M  V30 15 2 15 16
M  V30 16 1 6 17
M  V30 17 2 17 18
M  V30 18 1 17 19
M  V30 19 1 19 2
M  V30 20 1 16 5
M  V30 21 1 16 8
M  V30 22 1 15 11
M  V30 23 1 1 20
M  V30 24 1 1 21
M  V30 25 1 1 22
M  V30 26 1 2 23 CFG=1
M  V30 27 1 3 24
M  V30 28 1 3 25
M  V30 29 1 4 26
M  V30 30 1 9 27
M  V30 31 1 10 28
M  V30 32 1 13 29
M  V30 33 1 14 30
M  V30 34 1 19 31
M  V30 END BOND
M  V30 END CTAB
M  END
>  <Dataset>  (1) 
ChEMBL_Kinases

>  <Ligand_Instance>  (1) 
nan

>  <PDB_ID>  (1) 
nan

>  <Standardized_SMILES>  (1) 
C[C@@H]1CNc2c(sc3ccc4occc4c23)C(=O)N1

>  <Name>  (1) 
nan

>  <Pocket>  (1) 
nan

>  <ATP_Site>  (1) 
nan

>  <Peripheral>  (1) 
nan

>  <Num_H_Atoms_ProtBoundConf>  (1) 
nan

>  <Num_Resolved_Atoms>  (1) 
nan

>  <Num_Not_Resolved_Atoms>  (1) 
nan

$$$$
CHEMBL557354
     RDKit          3D

  0  0  0  0  0  0  0  0  0  0999 V3000
M  V30 BEGIN CTAB
M  V30 COUNTS 37 39 0 0 0
M  V30 BEGIN ATOM
M  V30 1 O 1.644869 -0.027934 0.886970 0
M  V30 2 C 0.984748 -0.951986 1.467272 0
M  V30 3 N 1.873500 -1.992259 1.758651 0
M  V30 4 C 3.228442 -2.439568 1.664754 0
M  V30 5 C 3.679546 -2.569123 0.255481 0
M  V30 6 C 3.556986 -3.844839 -0.290152 0
M  V30 7 C 3.870936 -4.217209 -1.575835 0
M  V30 8 C 4.354898 -3.249163 -2.421803 0
M  V30 9 F 4.708017 -3.451527 -3.709990 0
M  V30 10 C 4.493366 -1.968758 -1.922608 0
M  V30 11 C 4.166096 -1.619840 -0.608702 0
M  V30 12 F 4.343847 -0.381783 -0.149692 0
M  V30 13 C -0.429384 -0.823217 1.720221 0
M  V30 14 C -0.981206 0.374534 1.276153 0
M  V30 15 C -2.317772 0.636922 1.446055 0
M  V30 16 C -2.937144 1.872254 0.997680 0
M  V30 17 C -4.290860 2.037344 1.215014 0
M  V30 18 C -4.951661 3.176517 0.820595 0
M  V30 19 N -4.318006 4.203533 0.196987 0
M  V30 20 C -2.978346 4.061338 -0.028021 0
M  V30 21 C -2.321193 2.918045 0.369043 0
M  V30 22 N -3.095618 -0.276084 2.047793 0
M  V30 23 N -2.629929 -1.432811 2.491143 0
M  V30 24 C -1.328032 -1.655466 2.310304 0
M  V30 25 O -0.871429 -2.736141 2.719814 0
M  V30 26 H 1.315652 -2.764658 2.247864 0
M  V30 27 H 3.427155 -3.392340 2.155323 0
M  V30 28 H 3.859792 -1.658061 2.194132 0
M  V30 29 H 3.178502 -4.686597 0.311452 0
M  V30 30 H 3.758053 -5.218598 -1.948976 0
M  V30 31 H 4.871619 -1.166715 -2.551689 0
M  V30 32 H -0.412563 1.139233 0.790304 0
M  V30 33 H -4.884162 1.278310 1.702840 0
M  V30 34 H -6.028951 3.278871 1.006963 0
M  V30 35 H -2.442564 4.872734 -0.527998 0
M  V30 36 H -1.277286 2.852641 0.173299 0
M  V30 37 H -3.222272 -2.134025 2.952330 0
M  V30 END ATOM
M  V30 BEGIN BOND
M  V30 1 2 1 2
M  V30 2 1 2 3
M  V30 3 1 3 4
M  V30 4 1 4 5
M  V30 5 2 5 6
M  V30 6 1 6 7
M  V30 7 2 7 8
M  V30 8 1 8 9
M  V30 9 1 8 10
M  V30 10 2 10 11
M  V30 11 1 11 12
M  V30 12 1 2 13
M  V30 13 2 13 14
M  V30 14 1 14 15
M  V30 15 1 15 16
M  V30 16 2 16 17
M  V30 17 1 17 18
M  V30 18 2 18 19
M  V30 19 1 19 20
M  V30 20 2 20 21
M  V30 21 2 15 22
M  V30 22 1 22 23
M  V30 23 1 23 24
M  V30 24 2 24 25
M  V30 25 1 11 5
M  V30 26 1 24 13
M  V30 27 1 21 16
M  V30 28 1 3 26
M  V30 29 1 4 27
M  V30 30 1 4 28
M  V30 31 1 6 29
M  V30 32 1 7 30
M  V30 33 1 10 31
M  V30 34 1 14 32
M  V30 35 1 17 33
M  V30 36 1 18 34
M  V30 37 1 20 35
M  V30 38 1 21 36
M  V30 39 1 23 37
M  V30 END BOND
M  V30 END CTAB
M  END
>  <Dataset>  (2) 
ChEMBL_Kinases

>  <Ligand_Instance>  (2) 
nan

>  <PDB_ID>  (2) 
nan

>  <Standardized_SMILES>  (2) 
O=C(NCc1ccc(F)cc1F)c1cc(-c2ccncc2)n[nH]c1=O

>  <Name>  (2) 
nan

>  <Pocket>  (2) 
nan

>  <ATP_Site>  (2) 
nan

>  <Peripheral>  (2) 
nan

>  <Num_H_Atoms_ProtBoundConf>  (2) 
nan

>  <Num_Resolved_Atoms>  (2) 
nan

>  <Num_Not_Resolved_Atoms>  (2) 
nan

$$$$
CHEMBL557515
     RDKit          3D

  0  0  0  0  0  0  0  0  0  0999 V3000
M  V30 BEGIN CTAB
M  V30 COUNTS 59 62 0 0 0
M  V30 BEGIN ATOM
M  V30 1 C 1.994696 1.739375 5.114514 0
M  V30 2 C 2.113611 1.730379 3.632267 0
M  V30 3 C 3.169029 2.375611 2.977780 0
M  V30 4 C 3.249155 2.346405 1.580750 0
M  V30 5 C 2.309479 1.694022 0.820591 0
M  V30 6 C 2.476320 1.717853 -0.627799 0
M  V30 7 O 3.472148 2.334620 -1.087621 0
M  V30 8 N 1.629486 1.116085 -1.569847 0
M  V30 9 C 1.922672 1.223497 -2.983572 0
M  V30 10 C 3.275784 0.619712 -3.326504 0
M  V30 11 C 1.820622 2.647124 -3.480743 0
M  V30 12 C 0.884865 0.410836 -3.725642 0
M  V30 13 C 1.259052 1.049983 1.439444 0
M  V30 14 C 1.204759 1.094631 2.815328 0
M  V30 15 N 0.142080 0.444509 3.498172 0
M  V30 16 C -0.969758 -0.309225 3.035516 0
M  V30 17 C -2.308730 0.026267 3.262175 0
M  V30 18 C -3.309260 -0.793700 2.759003 0
M  V30 19 O -4.509415 -0.456202 2.985254 0
M  V30 20 N -3.057219 -1.919639 2.048770 0
M  V30 21 C -4.142281 -2.737847 1.547701 0
M  V30 22 C -1.762637 -2.215421 1.847652 0
M  V30 23 C -0.694555 -1.469412 2.303554 0
M  V30 24 C 0.438690 -2.152897 1.861867 0
M  V30 25 N 0.026182 -3.235876 1.187060 0
M  V30 26 N -1.299977 -3.287977 1.169431 0
M  V30 27 C -1.890161 -4.387791 0.486031 0
M  V30 28 C -2.549579 -5.477026 1.018573 0
M  V30 29 C -3.058472 -6.452089 0.186170 0
M  V30 30 C -2.939458 -6.393598 -1.187028 0
M  V30 31 F -3.451286 -7.369070 -1.975844 0
M  V30 32 C -2.283840 -5.313531 -1.743108 0
M  V30 33 C -1.767286 -4.324259 -0.902446 0
M  V30 34 F -1.137351 -3.299426 -1.556244 0
M  V30 35 H 3.006004 1.969725 5.515298 0
M  V30 36 H 1.736200 0.748349 5.542813 0
M  V30 37 H 1.238655 2.455137 5.471653 0
M  V30 38 H 3.907589 2.888300 3.573350 0
M  V30 39 H 4.094375 2.870060 1.176448 0
M  V30 40 H 0.793517 0.597321 -1.202379 0
M  V30 41 H 3.522593 -0.179444 -2.583654 0
M  V30 42 H 3.232086 0.162773 -4.332095 0
M  V30 43 H 4.000914 1.433789 -3.319598 0
M  V30 44 H 0.962765 2.795663 -4.168415 0
M  V30 45 H 1.749078 3.379784 -2.675790 0
M  V30 46 H 2.720527 2.870884 -4.086383 0
M  V30 47 H 1.303459 -0.073998 -4.629041 0
M  V30 48 H 0.053717 1.063886 -4.047271 0
M  V30 49 H 0.457369 -0.360806 -3.067028 0
M  V30 50 H 0.532400 0.544868 0.819971 0
M  V30 51 H 0.001948 0.417034 4.521367 0
M  V30 52 H -2.494122 0.917969 3.824520 0
M  V30 53 H -4.400961 -3.586365 2.203117 0
M  V30 54 H -3.985731 -3.014446 0.489120 0
M  V30 55 H -5.056441 -2.080148 1.529509 0
M  V30 56 H 1.415493 -1.772873 2.089251 0
M  V30 57 H -2.611096 -5.467269 2.098638 0
M  V30 58 H -3.575210 -7.299277 0.662935 0
M  V30 59 H -2.193628 -5.271779 -2.807992 0
M  V30 END ATOM
M  V30 BEGIN BOND
M  V30 1 1 1 2
M  V30 2 2 2 3
M  V30 3 1 3 4
M  V30 4 2 4 5
M  V30 5 1 5 6
M  V30 6 2 6 7
M  V30 7 1 6 8
M  V30 8 1 8 9
M  V30 9 1 9 10
M  V30 10 1 9 11
M  V30 11 1 9 12
M  V30 12 1 5 13
M  V30 13 2 13 14
M  V30 14 1 14 15
M  V30 15 1 15 16
M  V30 16 2 16 17
M  V30 17 1 17 18
M  V30 18 2 18 19
M  V30 19 1 18 20
M  V30 20 1 20 21
M  V30 21 1 20 22
M  V30 22 2 22 23
M  V30 23 1 23 24
M  V30 24 2 24 25
M  V30 25 1 25 26
M  V30 26 1 26 27
M  V30 27 2 27 28
M  V30 28 1 28 29
M  V30 29 2 29 30
M  V30 30 1 30 31
M  V30 31 1 30 32
M  V30 32 2 32 33
M  V30 33 1 33 34
M  V30 34 1 14 2
M  V30 35 1 23 16
M  V30 36 1 33 27
M  V30 37 1 26 22
M  V30 38 1 1 35
M  V30 39 1 1 36
M  V30 40 1 1 37
M  V30 41 1 3 38
M  V30 42 1 4 39
M  V30 43 1 8 40
M  V30 44 1 10 41
M  V30 45 1 10 42
M  V30 46 1 10 43
M  V30 47 1 11 44
M  V30 48 1 11 45
M  V30 49 1 11 46
M  V30 50 1 12 47
M  V30 51 1 12 48
M  V30 52 1 12 49
M  V30 53 1 13 50
M  V30 54 1 15 51
M  V30 55 1 17 52
M  V30 56 1 21 53
M  V30 57 1 21 54
M  V30 58 1 21 55
M  V30 59 1 24 56
M  V30 60 1 28 57
M  V30 61 1 29 58
M  V30 62 1 32 59
M  V30 END BOND
M  V30 END CTAB
M  END
>  <Dataset>  (3) 
ChEMBL_Kinases

>  <Ligand_Instance>  (3) 
nan

>  <PDB_ID>  (3) 
nan

>  <Standardized_SMILES>  (3) 
Cc1ccc(C(=O)NC(C)(C)C)cc1Nc1cc(=O)n(C)c2c1cnn2-c1ccc(F)cc1F

>  <Name>  (3) 
nan

>  <Pocket>  (3) 
nan

>  <ATP_Site>  (3) 
nan

>  <Peripheral>  (3) 
nan

>  <Num_H_Atoms_ProtBoundConf>  (3) 
nan

>  <Num_Resolved_Atoms>  (3) 
nan

>  <Num_Not_Resolved_Atoms>  (3) 
nan

$$$$
CHEMBL557912
     RDKit          3D

  0  0  0  0  0  0  0  0  0  0999 V3000
M  V30 BEGIN CTAB
M  V30 COUNTS 44 46 0 0 0
M  V30 BEGIN ATOM
M  V30 1 C 0.958318 -6.493829 -1.361094 0
M  V30 2 O 1.153401 -5.383284 -0.498713 0
M  V30 3 C 0.129514 -4.421549 -0.515736 0
M  V30 4 C -0.973681 -4.600146 -1.340733 0
M  V30 5 C -1.964447 -3.632612 -1.332692 0
M  V30 6 C -1.828872 -2.518583 -0.506174 0
M  V30 7 C -0.693818 -2.398753 0.300204 0
M  V30 8 C -0.622452 -1.204057 1.139580 0
M  V30 9 C -0.017035 -0.052531 0.637878 0
M  V30 10 N 0.505624 -0.113244 -0.689666 0
M  V30 11 C 0.020643 1.034291 1.467656 0
M  V30 12 C 0.662316 2.228016 0.940697 0
M  V30 13 O 1.178809 2.139414 -0.220920 0
M  V30 14 C 0.871322 3.575567 1.444179 0
M  V30 15 C 2.143195 4.157601 1.378039 0
M  V30 16 C 2.423398 5.421087 1.849591 0
M  V30 17 C 1.403814 6.154796 2.416499 0
M  V30 18 F 1.650551 7.402739 2.889935 0
M  V30 19 C 0.130486 5.634070 2.508901 0
M  V30 20 C -0.087449 4.376012 2.024040 0
M  V30 21 F -1.338811 3.916748 2.122441 0
M  V30 22 C -0.538906 0.893911 2.715877 0
M  V30 23 C -1.131189 -0.248296 3.193069 0
M  V30 24 N -1.162113 -1.309619 2.367962 0 CHG=1 VAL=4
M  V30 25 O -1.743532 -2.486851 2.788868 0 CHG=-1 VAL=1
M  V30 26 C 0.303941 -3.333578 0.318371 0
M  V30 27 O 1.426121 -3.204852 1.122391 0
M  V30 28 C 2.605371 -2.556449 0.698947 0
M  V30 29 H 1.825372 -7.178701 -1.358688 0
M  V30 30 H -0.008724 -7.014172 -1.140148 0
M  V30 31 H 0.828506 -6.061630 -2.388397 0
M  V30 32 H -1.077557 -5.461443 -1.979169 0
M  V30 33 H -2.808052 -3.788476 -1.976394 0
M  V30 34 H -2.629704 -1.793323 -0.537397 0
M  V30 35 H 1.504512 -0.029751 -1.036017 0
M  V30 36 H -0.195254 -0.265158 -1.471459 0
M  V30 37 H 2.981111 3.631027 0.944718 0
M  V30 38 H 3.428970 5.837119 1.778486 0
M  V30 39 H -0.651215 6.232145 2.958718 0
M  V30 40 H -0.511509 1.736678 3.385196 0
M  V30 41 H -1.548275 -0.291029 4.175413 0
M  V30 42 H 3.483796 -3.094871 1.115361 0
M  V30 43 H 2.676160 -2.621961 -0.412249 0
M  V30 44 H 2.635230 -1.483293 0.960213 0
M  V30 END ATOM
M  V30 BEGIN BOND
M  V30 1 1 1 2
M  V30 2 1 2 3
M  V30 3 2 3 4
M  V30 4 1 4 5
M  V30 5 2 5 6
M  V30 6 1 6 7
M  V30 7 1 7 8
M  V30 8 2 8 9
M  V30 9 1 9 10
M  V30 10 1 9 11
M  V30 11 1 11 12
M  V30 12 2 12 13
M  V30 13 1 12 14
M  V30 14 2 14 15
M  V30 15 1 15 16
M  V30 16 2 16 17
M  V30 17 1 17 18
M  V30 18 1 17 19
M  V30 19 2 19 20
M  V30 20 1 20 21
M  V30 21 2 11 22
M  V30 22 1 22 23
M  V30 23 2 23 24
M  V30 24 1 24 25
M  V30 25 2 7 26
M  V30 26 1 26 27
M  V30 27 1 27 28
M  V30 28 1 26 3
M  V30 29 1 24 8
M  V30 30 1 20 14
M  V30 31 1 1 29
M  V30 32 1 1 30
M  V30 33 1 1 31
M  V30 34 1 4 32
M  V30 35 1 5 33
M  V30 36 1 6 34
M  V30 37 1 10 35
M  V30 38 1 10 36
M  V30 39 1 15 37
M  V30 40 1 16 38
M  V30 41 1 19 39
M  V30 42 1 22 40
M  V30 43 1 23 41
M  V30 44 1 28 42
M  V30 45 1 28 43
M  V30 46 1 28 44
M  V30 END BOND
M  V30 END CTAB
M  END
>  <Dataset>  (4) 
ChEMBL_Kinases

>  <Ligand_Instance>  (4) 
nan

>  <PDB_ID>  (4) 
nan

>  <Standardized_SMILES>  (4) 
COc1cccc(-c2c(N)c(C(=O)c3ccc(F)cc3F)cc[n+]2[O-])c1OC

>  <Name>  (4) 
nan

>  <Pocket>  (4) 
nan

>  <ATP_Site>  (4) 
nan

>  <Peripheral>  (4) 
nan

>  <Num_H_Atoms_ProtBoundConf>  (4) 
nan

>  <Num_Resolved_Atoms>  (4) 
nan

>  <Num_Not_Resolved_Atoms>  (4) 
nan

$$$$
CHEMBL557945
     RDKit          3D

  0  0  0  0  0  0  0  0  0  0999 V3000
M  V30 BEGIN CTAB
M  V30 COUNTS 47 50 0 0 0
M  V30 BEGIN ATOM
M  V30 1 C -0.790382 -1.506987 3.839701 0
M  V30 2 C -0.545754 -1.563491 2.324672 0
M  V30 3 O 0.704198 -2.085486 2.017360 0
M  V30 4 C 1.641857 -1.336779 1.339366 0
M  V30 5 C 1.657718 -0.076557 0.829079 0
M  V30 6 C 2.689465 0.440352 0.206046 0
M  V30 7 C 3.070755 1.675118 -0.441564 0
M  V30 8 C 4.320302 1.899028 -1.035624 0
M  V30 9 N 4.356981 3.140366 -1.546693 0
M  V30 10 C 3.180119 3.739192 -1.310891 0
M  V30 11 C 2.733671 5.001050 -1.635067 0
M  V30 12 C 1.459137 5.380865 -1.272248 0
M  V30 13 C 0.687826 4.461854 -0.593400 0
M  V30 14 C 1.211373 3.218560 -0.307782 0
M  V30 15 N 2.441123 2.836321 -0.651551 0
M  V30 16 S 3.855420 -0.897955 0.270664 0
M  V30 17 C 2.822627 -2.065160 1.154287 0
M  V30 18 C 3.409384 -3.365944 1.442579 0
M  V30 19 N 2.951949 -4.503749 2.098849 0
M  V30 20 O 4.536826 -3.766757 1.137666 0
M  V30 21 C -1.687236 -2.301117 1.753621 0
M  V30 22 C -2.834358 -1.646396 1.286173 0
M  V30 23 C -3.945650 -2.249787 0.736311 0
M  V30 24 C -5.096824 -1.438531 0.279318 0
M  V30 25 O -6.001453 -1.280290 1.342788 0
M  V30 26 C -3.936642 -3.624921 0.632604 0
M  V30 27 C -2.847005 -4.347319 1.068827 0
M  V30 28 C -1.776823 -3.667210 1.606179 0
M  V30 29 Cl -0.425888 -4.636528 2.146570 0
M  V30 30 H -1.827238 -1.796253 4.101541 0
M  V30 31 H -0.544670 -0.490665 4.249339 0
M  V30 32 H -0.116640 -2.273750 4.308078 0
M  V30 33 H -0.692570 -0.492660 1.993872 0
M  V30 34 H 0.741034 0.463797 0.982718 0
M  V30 35 H 5.191703 1.296485 -1.146586 0
M  V30 36 H 3.404707 5.676023 -2.175874 0
M  V30 37 H 1.184177 6.384997 -1.562657 0
M  V30 38 H -0.307193 4.782721 -0.319884 0
M  V30 39 H 0.514570 2.596660 0.222212 0
M  V30 40 H 2.467631 -5.259977 1.560187 0
M  V30 41 H 3.051079 -4.680981 3.122188 0
M  V30 42 H -2.870400 -0.558645 1.355133 0
M  V30 43 H -4.726584 -0.444731 -0.062802 0
M  V30 44 H -5.599856 -1.910423 -0.582009 0
M  V30 45 H -5.461962 -1.163208 2.173570 0
M  V30 46 H -4.809701 -4.079388 0.202119 0
M  V30 47 H -2.850719 -5.426015 0.982611 0
M  V30 END ATOM
M  V30 BEGIN BOND
M  V30 1 1 1 2
M  V30 2 1 2 3
M  V30 3 1 3 4
M  V30 4 1 4 5
M  V30 5 2 5 6
M  V30 6 1 6 7
M  V30 7 2 7 8
M  V30 8 1 8 9
M  V30 9 2 9 10
M  V30 10 1 10 11
M  V30 11 2 11 12
M  V30 12 1 12 13
M  V30 13 2 13 14
M  V30 14 1 14 15
M  V30 15 1 6 16
M  V30 16 1 16 17
M  V30 17 1 17 18
M  V30 18 1 18 19
M  V30 19 2 18 20
M  V30 20 1 2 21
M  V30 21 2 21 22
M  V30 22 1 22 23
M  V30 23 1 23 24
M  V30 24 1 24 25
M  V30 25 2 23 26
M  V30 26 1 26 27
M  V30 27 2 27 28
M  V30 28 1 28 29
M  V30 29 2 17 4
M  V30 30 1 28 21
M  V30 31 1 15 7
M  V30 32 1 15 10
M  V30 33 1 1 30
M  V30 34 1 1 31
M  V30 35 1 1 32
M  V30 36 1 2 33
M  V30 37 1 5 34
M  V30 38 1 8 35
M  V30 39 1 11 36
M  V30 40 1 12 37
M  V30 41 1 13 38
M  V30 42 1 14 39
M  V30 43 1 19 40
M  V30 44 1 19 41
M  V30 45 1 22 42
M  V30 46 1 24 43
M  V30 47 1 24 44
M  V30 48 1 25 45
M  V30 49 1 26 46
M  V30 50 1 27 47
M  V30 END BOND
M  V30 END CTAB
M  END
>  <Dataset>  (5) 
ChEMBL_Kinases

>  <Ligand_Instance>  (5) 
nan

>  <PDB_ID>  (5) 
nan

>  <Standardized_SMILES>  (5) 
CC(Oc1cc(-c2cnc3ccccn23)sc1C(N)=O)c1cc(CO)ccc1Cl

>  <Name>  (5) 
nan

>  <Pocket>  (5) 
nan

>  <ATP_Site>  (5) 
nan

>  <Peripheral>  (5) 
nan

>  <Num_H_Atoms_ProtBoundConf>  (5) 
nan

>  <Num_Resolved_Atoms>  (5) 
nan

>  <Num_Not_Resolved_Atoms>  (5) 
nan

$$$$
CHEMBL572560
     RDKit          3D

  0  0  0  0  0  0  0  0  0  0999 V3000
M  V30 BEGIN CTAB
M  V30 COUNTS 39 42 0 0 0
M  V30 BEGIN ATOM
M  V30 1 C 0.329285 -6.781608 0.689872 0
M  V30 2 C 0.318083 -5.310600 0.539918 0
M  V30 3 C 0.196218 -4.494089 1.667442 0
M  V30 4 C 0.218132 -3.178637 1.199013 0
M  V30 5 C 0.350607 -3.270227 -0.171278 0
M  V30 6 C 0.418331 -2.136165 -1.086356 0
M  V30 7 C 0.551540 -2.339581 -2.444416 0
M  V30 8 C 0.611870 -1.234288 -3.276881 0
M  V30 9 C 0.543903 0.073398 -2.802510 0
M  V30 10 O 0.573931 1.271541 -3.334475 0
M  V30 11 C 0.468986 2.190317 -2.402258 0
M  V30 12 C 0.361186 1.581497 -1.162828 0
M  V30 13 C 0.222214 2.090767 0.200346 0
M  V30 14 C 0.948063 3.129247 0.753016 0
M  V30 15 C 0.724499 3.520176 2.057497 0
M  V30 16 C -0.223385 2.894021 2.850329 0
M  V30 17 S -0.577555 3.312324 4.499904 0 CHG=1 VAL=3
M  V30 18 C 0.420171 2.407829 5.662014 0
M  V30 19 O -2.187403 2.937759 4.839642 0 CHG=-1 VAL=1
M  V30 20 C -0.954240 1.851593 2.300508 0
M  V30 21 C -0.732540 1.457938 0.994484 0
M  V30 22 C 0.410719 0.207392 -1.432106 0
M  V30 23 N 0.352606 -0.875118 -0.627019 0
M  V30 24 O 0.405371 -4.530397 -0.515686 0
M  V30 25 H 1.029929 -7.085980 1.471431 0
M  V30 26 H -0.693203 -7.146577 0.920481 0
M  V30 27 H 0.661124 -7.296469 -0.241411 0
M  V30 28 H 0.099494 -4.729228 2.722834 0
M  V30 29 H 0.147742 -2.251916 1.767520 0
M  V30 30 H 0.607823 -3.354509 -2.849533 0
M  V30 31 H 0.717862 -1.344896 -4.366781 0
M  V30 32 H 0.456024 3.269855 -2.462465 0
M  V30 33 H 1.673588 3.596642 0.121529 0
M  V30 34 H 1.280475 4.325839 2.502015 0
M  V30 35 H 1.217262 3.107288 6.020071 0
M  V30 36 H 0.868439 1.524592 5.142658 0
M  V30 37 H -0.188982 2.007436 6.511181 0
M  V30 38 H -1.707028 1.329923 2.879536 0
M  V30 39 H -1.334177 0.632107 0.608873 0
M  V30 END ATOM
M  V30 BEGIN BOND
M  V30 1 1 1 2
M  V30 2 2 2 3
M  V30 3 1 3 4
M  V30 4 2 4 5
M  V30 5 1 5 6
M  V30 6 2 6 7
M  V30 7 1 7 8
M  V30 8 2 8 9
M  V30 9 1 9 10
M  V30 10 1 10 11
M  V30 11 2 11 12
M  V30 12 1 12 13
M  V30 13 2 13 14
M  V30 14 1 14 15
M  V30 15 2 15 16
M  V30 16 1 16 17
M  V30 17 1 17 18
M  V30 18 1 17 19
M  V30 19 1 16 20
M  V30 20 2 20 21
M  V30 21 1 12 22
M  V30 22 2 22 23
M  V30 23 1 5 24
M  V30 24 1 24 2
M  V30 25 1 23 6
M  V30 26 1 22 9
M  V30 27 1 21 13
M  V30 28 1 1 25
M  V30 29 1 1 26
M  V30 30 1 1 27
M  V30 31 1 3 28
M  V30 32 1 4 29
M  V30 33 1 7 30
M  V30 34 1 8 31
M  V30 35 1 11 32
M  V30 36 1 14 33
M  V30 37 1 15 34
M  V30 38 1 18 35
M  V30 39 1 18 36
M  V30 40 1 18 37
M  V30 41 1 20 38
M  V30 42 1 21 39
M  V30 END BOND
M  V30 END CTAB
M  END
>  <Dataset>  (6) 
ChEMBL_Kinases

>  <Ligand_Instance>  (6) 
nan

>  <PDB_ID>  (6) 
nan

>  <Standardized_SMILES>  (6) 
Cc1ccc(-c2ccc3occ(-c4ccc([S+](C)[O-])cc4)c3n2)o1

>  <Name>  (6) 
nan

>  <Pocket>  (6) 
nan

>  <ATP_Site>  (6) 
nan

>  <Peripheral>  (6) 
nan

>  <Num_H_Atoms_ProtBoundConf>  (6) 
nan

>  <Num_Resolved_Atoms>  (6) 
nan

>  <Num_Not_Resolved_Atoms>  (6) 
nan

$$$$
CHEMBL55814
     RDKit          3D

  0  0  0  0  0  0  0  0  0  0999 V3000
M  V30 BEGIN CTAB
M  V30 COUNTS 26 28 0 0 0
M  V30 BEGIN ATOM
M  V30 1 O 0.035216 0.379227 3.404676 0
M  V30 2 C 0.219494 -0.066395 2.259581 0
M  V30 3 C 1.162734 -1.158848 1.990039 0
M  V30 4 C 1.827502 -1.656665 3.080322 0
M  V30 5 C 2.719272 -2.696351 2.793280 0
M  V30 6 C 2.902457 -3.169817 1.511522 0
M  V30 7 C 2.210107 -2.636316 0.446717 0
M  V30 8 C 1.323540 -1.612776 0.684664 0
M  V30 9 C 0.561749 -1.007133 -0.399316 0
M  V30 10 O 0.691567 -1.404137 -1.596919 0
M  V30 11 C -0.378546 0.089152 -0.096532 0
M  V30 12 C -0.552642 0.557357 1.207400 0
M  V30 13 C -1.445339 1.593225 1.471727 0
M  V30 14 C -2.144316 2.136428 0.418340 0
M  V30 15 C -2.001922 1.703940 -0.881257 0
M  V30 16 O -2.697377 2.243585 -1.933195 0
M  V30 17 C -1.114812 0.677742 -1.128917 0
M  V30 18 O -0.929640 0.201649 -2.412761 0
M  V30 19 H 1.665744 -1.269131 4.068340 0
M  V30 20 H 3.263427 -3.113642 3.639614 0
M  V30 21 H 3.615242 -3.985448 1.354435 0
M  V30 22 H 2.349939 -3.000729 -0.545731 0
M  V30 23 H -1.566170 1.941051 2.484442 0
M  V30 24 H -2.828373 2.937463 0.655001 0
M  V30 25 H -3.693878 2.208076 -2.011518 0
M  V30 26 H -1.419014 -0.628435 -2.745808 0
M  V30 END ATOM
M  V30 BEGIN BOND
M  V30 1 2 1 2
M  V30 2 1 2 3
M  V30 3 2 3 4
M  V30 4 1 4 5
M  V30 5 2 5 6
M  V30 6 1 6 7
M  V30 7 2 7 8
M  V30 8 1 8 9
M  V30 9 2 9 10
M  V30 10 1 9 11
M  V30 11 2 11 12
M  V30 12 1 12 13
M  V30 13 2 13 14
M  V30 14 1 14 15
M  V30 15 1 15 16
M  V30 16 2 15 17
M  V30 17 1 17 18
M  V30 18 1 12 2
M  V30 19 1 8 3
M  V30 20 1 17 11
M  V30 21 1 4 19
M  V30 22 1 5 20
M  V30 23 1 6 21
M  V30 24 1 7 22
M  V30 25 1 13 23
M  V30 26 1 14 24
M  V30 27 1 16 25
M  V30 28 1 18 26
M  V30 END BOND
M  V30 END CTAB
M  END
>  <Dataset>  (7) 
ChEMBL_Kinases

>  <Ligand_Instance>  (7) 
nan

>  <PDB_ID>  (7) 
nan

>  <Standardized_SMILES>  (7) 
O=C1c2ccccc2C(=O)c2c1ccc(O)c2O

>  <Name>  (7) 
ATHRAQUINONES A

>  <Pocket>  (7) 
nan

>  <ATP_Site>  (7) 
nan

>  <Peripheral>  (7) 
nan

>  <Num_H_Atoms_ProtBoundConf>  (7) 
nan

>  <Num_Resolved_Atoms>  (7) 
nan

>  <Num_Not_Resolved_Atoms>  (7) 
nan

$$$$
CHEMBL558448
     RDKit          3D

  0  0  0  0  0  0  0  0  0  0999 V3000
M  V30 BEGIN CTAB
M  V30 COUNTS 51 55 0 0 0
M  V30 BEGIN ATOM
M  V30 1 C 1.660479 -4.205346 2.080157 0
M  V30 2 N 0.712460 -3.153747 2.396155 0
M  V30 3 C 0.618258 -2.648713 3.648127 0
M  V30 4 O 1.389717 -3.127496 4.540222 0
M  V30 5 C -0.281266 -1.643424 3.970251 0
M  V30 6 C -1.131326 -1.113557 2.994130 0
M  V30 7 N -2.078830 -0.085049 3.247898 0
M  V30 8 C -2.229080 1.208726 2.714132 0
M  V30 9 C -1.349683 1.658470 1.772058 0
M  V30 10 C -1.554678 2.945217 1.284483 0
M  V30 11 C -0.734941 3.593878 0.289499 0
M  V30 12 O -0.899651 4.756282 -0.166639 0
M  V30 13 N 0.395092 2.959215 -0.306272 0
M  V30 14 C 1.249247 3.561684 -1.305790 0
M  V30 15 C 2.726796 3.215950 -1.217651 0
M  V30 16 C 1.900510 2.713799 -2.335585 0
M  V30 17 C -2.613358 3.709418 1.755183 0
M  V30 18 C -3.477648 3.216507 2.706958 0
M  V30 19 C -3.285701 1.932198 3.203835 0
M  V30 20 Cl -4.378279 1.287955 4.417769 0
M  V30 21 C -1.037731 -1.627737 1.712667 0
M  V30 22 C -1.661080 -1.405391 0.493944 0
M  V30 23 N -1.121263 -2.248597 -0.428674 0
M  V30 24 N -0.187481 -2.982805 0.177602 0
M  V30 25 C 0.486042 -3.927117 -0.645931 0
M  V30 26 C 0.363348 -5.306134 -0.644306 0
M  V30 27 C 1.106465 -6.063021 -1.526022 0
M  V30 28 C 1.966645 -5.437482 -2.402902 0
M  V30 29 F 2.682082 -6.210454 -3.256082 0
M  V30 30 C 2.108504 -4.055146 -2.425096 0
M  V30 31 C 1.365355 -3.322793 -1.545689 0
M  V30 32 F 1.566251 -1.972239 -1.635193 0
M  V30 33 C -0.114245 -2.629455 1.474534 0
M  V30 34 H 1.215742 -5.211069 2.125318 0
M  V30 35 H 2.433319 -4.177666 2.885952 0
M  V30 36 H 2.229745 -3.998839 1.148337 0
M  V30 37 H -0.341808 -1.257479 4.962572 0
M  V30 38 H -2.685189 -0.526356 3.968334 0
M  V30 39 H -0.512327 1.099584 1.377790 0
M  V30 40 H 0.669330 1.979058 -0.031532 0
M  V30 41 H 0.960260 4.585896 -1.590243 0
M  V30 42 H 3.028784 2.547583 -0.376797 0
M  V30 43 H 3.467469 4.041919 -1.423709 0
M  V30 44 H 1.742551 1.599603 -2.338922 0
M  V30 45 H 2.033248 3.156437 -3.333113 0
M  V30 46 H -2.810796 4.720668 1.401404 0
M  V30 47 H -4.302354 3.821842 3.068424 0
M  V30 48 H -2.443789 -0.672321 0.343310 0
M  V30 49 H -0.356901 -5.648657 0.107249 0
M  V30 50 H 0.948982 -7.132101 -1.456901 0
M  V30 51 H 2.810427 -3.648406 -3.150585 0
M  V30 END ATOM
M  V30 BEGIN BOND
M  V30 1 1 1 2
M  V30 2 1 2 3
M  V30 3 2 3 4
M  V30 4 1 3 5
M  V30 5 2 5 6
M  V30 6 1 6 7
M  V30 7 1 7 8
M  V30 8 2 8 9
M  V30 9 1 9 10
M  V30 10 1 10 11
M  V30 11 2 11 12
M  V30 12 1 11 13
M  V30 13 1 13 14
M  V30 14 1 14 15
M  V30 15 1 15 16
M  V30 16 2 10 17
M  V30 17 1 17 18
M  V30 18 2 18 19
M  V30 19 1 19 20
M  V30 20 1 6 21
M  V30 21 1 21 22
M  V30 22 2 22 23
M  V30 23 1 23 24
M  V30 24 1 24 25
M  V30 25 2 25 26
M  V30 26 1 26 27
M  V30 27 2 27 28
M  V30 28 1 28 29
M  V30 29 1 28 30
M  V30 30 2 30 31
M  V30 31 1 31 32
M  V30 32 1 24 33
M  V30 33 1 33 2
M  V30 34 1 19 8
M  V30 35 2 33 21
M  V30 36 1 16 14
M  V30 37 1 31 25
M  V30 38 1 1 34
M  V30 39 1 1 35
M  V30 40 1 1 36
M  V30 41 1 5 37
M  V30 42 1 7 38
M  V30 43 1 9 39
M  V30 44 1 13 40
M  V30 45 1 14 41
M  V30 46 1 15 42
M  V30 47 1 15 43
M  V30 48 1 16 44
M  V30 49 1 16 45
M  V30 50 1 17 46
M  V30 51 1 18 47
M  V30 52 1 22 48
M  V30 53 1 26 49
M  V30 54 1 27 50
M  V30 55 1 30 51
M  V30 END BOND
M  V30 END CTAB
M  END
>  <Dataset>  (8) 
ChEMBL_Kinases

>  <Ligand_Instance>  (8) 
nan

>  <PDB_ID>  (8) 
nan

>  <Standardized_SMILES>  (8) 
Cn1c(=O)cc(Nc2cc(C(=O)NC3CC3)ccc2Cl)c2cnn(-c3ccc(F)cc3F)c21

>  <Name>  (8) 
nan

>  <Pocket>  (8) 
nan

>  <ATP_Site>  (8) 
nan

>  <Peripheral>  (8) 
nan

>  <Num_H_Atoms_ProtBoundConf>  (8) 
nan

>  <Num_Resolved_Atoms>  (8) 
nan

>  <Num_Not_Resolved_Atoms>  (8) 
nan

$$$$
CHEMBL558491
     RDKit          3D

  0  0  0  0  0  0  0  0  0  0999 V3000
M  V30 BEGIN CTAB
M  V30 COUNTS 37 40 0 0 0
M  V30 BEGIN ATOM
M  V30 1 C -1.930198 -5.146400 2.745153 0
M  V30 2 N -0.945613 -5.023706 1.706510 0
M  V30 3 C -0.459891 -3.771447 1.234498 0
M  V30 4 N -0.912054 -2.616705 1.752522 0
M  V30 5 C -0.466078 -1.422899 1.320637 0
M  V30 6 N -0.746905 -0.135719 1.661666 0
M  V30 7 C -0.010435 0.700761 0.909993 0
M  V30 8 C -0.062619 2.156540 1.014556 0
M  V30 9 C -0.918648 2.718190 1.940203 0
M  V30 10 C -0.970371 4.092443 2.041497 0
M  V30 11 C -0.178497 4.877500 1.229379 0
M  V30 12 C 0.685594 4.343023 0.296114 0
M  V30 13 C 1.499241 5.185605 -0.537106 0
M  V30 14 N 2.162643 5.868839 -1.195073 0
M  V30 15 C 0.720831 2.960834 0.212011 0
M  V30 16 C 0.766794 -0.059959 0.061043 0
M  V30 17 C 0.485732 -1.406710 0.313108 0
M  V30 18 C 0.986630 -2.563364 -0.256596 0
M  V30 19 C 0.488181 -3.746786 0.231218 0
M  V30 20 N 1.114088 -4.739616 -0.465316 0
M  V30 21 C 1.962160 -4.152291 -1.343611 0
M  V30 22 N 1.890087 -2.805971 -1.221665 0
M  V30 23 C 2.639291 -1.838227 -1.982334 0
M  V30 24 H -1.611310 -5.853059 3.551659 0
M  V30 25 H -2.887061 -5.458655 2.300041 0
M  V30 26 H -2.099223 -4.164336 3.259672 0
M  V30 27 H -0.601134 -5.908041 1.311720 0
M  V30 28 H -1.445895 0.061739 2.408663 0
M  V30 29 H -1.536741 2.093144 2.573657 0
M  V30 30 H -1.658462 4.485775 2.783604 0
M  V30 31 H -0.273510 5.963402 1.366754 0
M  V30 32 H 1.399792 2.543105 -0.521224 0
M  V30 33 H 1.454654 0.362122 -0.653199 0
M  V30 34 H 2.587425 -4.741341 -2.025782 0
M  V30 35 H 3.199973 -2.354746 -2.791455 0
M  V30 36 H 3.349188 -1.330687 -1.313791 0
M  V30 37 H 1.919986 -1.128780 -2.475757 0
M  V30 END ATOM
M  V30 BEGIN BOND
M  V30 1 1 1 2
M  V30 2 1 2 3
M  V30 3 2 3 4
M  V30 4 1 4 5
M  V30 5 1 5 6
M  V30 6 1 6 7
M  V30 7 1 7 8
M  V30 8 2 8 9
M  V30 9 1 9 10
M  V30 10 2 10 11
M  V30 11 1 11 12
M  V30 12 1 12 13
M  V30 13 3 13 14
M  V30 14 2 12 15
M  V30 15 2 7 16
M  V30 16 1 16 17
M  V30 17 1 17 18
M  V30 18 2 18 19
M  V30 19 1 19 20
M  V30 20 2 20 21
M  V30 21 1 21 22
M  V30 22 1 22 23
M  V30 23 1 19 3
M  V30 24 2 17 5
M  V30 25 1 22 18
M  V30 26 1 15 8
M  V30 27 1 1 24
M  V30 28 1 1 25
M  V30 29 1 1 26
M  V30 30 1 2 27
M  V30 31 1 6 28
M  V30 32 1 9 29
M  V30 33 1 10 30
M  V30 34 1 11 31
M  V30 35 1 15 32
M  V30 36 1 16 33
M  V30 37 1 21 34
M  V30 38 1 23 35
M  V30 39 1 23 36
M  V30 40 1 23 37
M  V30 END BOND
M  V30 END CTAB
M  END
>  <Dataset>  (9) 
ChEMBL_Kinases

>  <Ligand_Instance>  (9) 
nan

>  <PDB_ID>  (9) 
nan

>  <Standardized_SMILES>  (9) 
CNc1nc2[nH]c(-c3cccc(C#N)c3)cc2c2c1ncn2C

>  <Name>  (9) 
nan

>  <Pocket>  (9) 
nan

>  <ATP_Site>  (9) 
nan

>  <Peripheral>  (9) 
nan

>  <Num_H_Atoms_ProtBoundConf>  (9) 
nan

>  <Num_Resolved_Atoms>  (9) 
nan

>  <Num_Not_Resolved_Atoms>  (9) 
nan

$$$$
CHEMBL562606
     RDKit          3D

  0  0  0  0  0  0  0  0  0  0999 V3000
M  V30 BEGIN CTAB
M  V30 COUNTS 46 50 0 0 0
M  V30 BEGIN ATOM
M  V30 1 C 5.143863 -1.104000 1.018356 0
M  V30 2 C 4.853474 -1.913718 -0.183559 0
M  V30 3 C 5.885503 -2.519552 -0.898455 0
M  V30 4 C 5.713248 -3.290282 -2.027123 0
M  V30 5 C 4.423920 -3.474571 -2.481201 0
M  V30 6 C 3.387584 -2.884495 -1.789500 0
M  V30 7 C 3.564071 -2.113141 -0.659322 0
M  V30 8 C 2.439955 -1.504716 0.045401 0
M  V30 9 C 1.123522 -1.638158 -0.339981 0
M  V30 10 C 0.133208 -1.022401 0.396189 0
M  V30 11 C 0.340623 -0.264848 1.515235 0
M  V30 12 C 1.667117 -0.171118 1.841298 0
M  V30 13 C 2.191135 0.567143 2.905531 0
M  V30 14 C 1.244875 1.233970 3.651685 0
M  V30 15 C -0.074010 1.097840 3.274398 0
M  V30 16 S -1.443266 1.883145 4.096782 0
M  V30 17 C -2.688995 1.196090 2.998942 0
M  V30 18 C -1.940139 0.384567 2.048931 0
M  V30 19 C -0.602487 0.386380 2.249502 0
M  V30 20 N -2.722282 -0.341374 1.120290 0
M  V30 21 C -3.805579 -0.016891 0.234432 0
M  V30 22 C -4.713737 1.075197 0.637344 0 CFG=1
M  V30 23 C -6.007722 0.911084 -0.159347 0
M  V30 24 N -5.059457 1.157429 2.033234 0
M  V30 25 C -4.157061 1.493495 3.122735 0
M  V30 26 O -4.463350 2.022405 4.197025 0
M  V30 27 N 2.667029 -0.764478 1.138252 0
M  V30 28 H 6.257488 -1.142180 1.173824 0
M  V30 29 H 4.908732 -0.033887 0.917952 0
M  V30 30 H 4.738748 -1.570990 1.953494 0
M  V30 31 H 6.915597 -2.373483 -0.537347 0
M  V30 32 H 6.581777 -3.716919 -2.509639 0
M  V30 33 H 4.288966 -4.082531 -3.371358 0
M  V30 34 H 2.433070 -3.086497 -2.219515 0
M  V30 35 H 0.936718 -2.232004 -1.218112 0
M  V30 36 H -0.805444 -1.186389 -0.051413 0
M  V30 37 H 3.212745 0.648964 3.170337 0
M  V30 38 H 1.524568 1.829660 4.485791 0
M  V30 39 H -2.390607 -1.373102 1.149953 0
M  V30 40 H -3.339454 0.282184 -0.750696 0
M  V30 41 H -4.373033 -0.954226 -0.044550 0
M  V30 42 H -4.287899 2.038852 0.283051 0
M  V30 43 H -6.419043 -0.102499 0.057859 0
M  V30 44 H -6.686096 1.707400 0.153204 0
M  V30 45 H -5.711810 0.920378 -1.211936 0
M  V30 46 H -5.997768 0.995799 2.469931 0
M  V30 END ATOM
M  V30 BEGIN BOND
M  V30 1 1 1 2
M  V30 2 2 2 3
M  V30 3 1 3 4
M  V30 4 2 4 5
M  V30 5 1 5 6
M  V30 6 2 6 7
M  V30 7 1 7 8
M  V30 8 2 8 9
M  V30 9 1 9 10
M  V30 10 2 10 11
M  V30 11 1 11 12
M  V30 12 1 12 13
M  V30 13 2 13 14
M  V30 14 1 14 15
M  V30 15 1 15 16
M  V30 16 1 16 17
M  V30 17 2 17 18
M  V30 18 1 18 19
M  V30 19 1 18 20
M  V30 20 1 20 21
M  V30 21 1 21 22
M  V30 22 1 22 23
M  V30 23 1 22 24
M  V30 24 1 24 25
M  V30 25 2 25 26
M  V30 26 2 12 27
M  V30 27 1 7 2
M  V30 28 1 27 8
M  V30 29 1 19 11
M  V30 30 2 19 15
M  V30 31 1 25 17
M  V30 32 1 1 28
M  V30 33 1 1 29
M  V30 34 1 1 30
M  V30 35 1 3 31
M  V30 36 1 4 32
M  V30 37 1 5 33
M  V30 38 1 6 34
M  V30 39 1 9 35
M  V30 40 1 10 36
M  V30 41 1 13 37
M  V30 42 1 14 38
M  V30 43 1 20 39
M  V30 44 1 21 40
M  V30 45 1 21 41
M  V30 46 1 22 42 CFG=3
M  V30 47 1 23 43
M  V30 48 1 23 44
M  V30 49 1 23 45
M  V30 50 1 24 46
M  V30 END BOND
M  V30 END CTAB
M  END
>  <Dataset>  (10) 
ChEMBL_Kinases

>  <Ligand_Instance>  (10) 
nan

>  <PDB_ID>  (10) 
nan

>  <Standardized_SMILES>  (10) 
Cc1ccccc1-c1ccc2c(ccc3sc4c(c32)NC[C@@H](C)NC4=O)n1

>  <Name>  (10) 
nan

>  <Pocket>  (10) 
nan

>  <ATP_Site>  (10) 
nan

>  <Peripheral>  (10) 
nan

>  <Num_H_Atoms_ProtBoundConf>  (10) 
nan

>  <Num_Resolved_Atoms>  (10) 
nan

>  <Num_Not_Resolved_Atoms>  (10) 
nan

$$$$
CHEMBL3727783
     RDKit          3D

  0  0  0  0  0  0  0  0  0  0999 V3000
M  V30 BEGIN CTAB
M  V30 COUNTS 38 40 0 0 0
M  V30 BEGIN ATOM
M  V30 1 C -1.154551 -3.160705 4.433281 0
M  V30 2 C -0.979450 -3.203931 2.957347 0
M  V30 3 C -1.450321 -4.385340 2.240424 0
M  V30 4 S -1.016077 -3.992821 0.448759 0
M  V30 5 C -0.315829 -2.440905 0.792231 0
M  V30 6 C 0.258064 -1.498853 -0.087883 0
M  V30 7 N 0.260275 -1.882818 -1.443145 0
M  V30 8 C 0.834172 -0.945494 -2.345745 0
M  V30 9 C 0.161216 0.399031 -2.393680 0 CFG=2
M  V30 10 C -1.278537 0.134014 -2.823615 0
M  V30 11 N 0.749694 1.166834 -3.502280 0
M  V30 12 N 0.740174 -0.355636 0.410129 0
M  V30 13 C 0.624766 -0.211236 1.761286 0
M  V30 14 C 1.134445 1.027774 2.394735 0
M  V30 15 C 1.701391 1.971366 1.571348 0
M  V30 16 C 2.186421 3.130033 2.102348 0
M  V30 17 N 2.134819 3.399186 3.425459 0
M  V30 18 C 1.572240 2.462128 4.239934 0
M  V30 19 C 1.058971 1.257201 3.752530 0
M  V30 20 N 0.084606 -1.104191 2.567673 0
M  V30 21 C -0.424699 -2.277861 2.161331 0
M  V30 22 H -0.498445 -2.359826 4.854710 0
M  V30 23 H -0.838129 -4.138522 4.880966 0
M  V30 24 H -2.192216 -2.908369 4.731029 0
M  V30 25 H -1.974374 -5.292941 2.875444 0
M  V30 26 H -0.112573 -2.770253 -1.827850 0
M  V30 27 H 0.966794 -1.328016 -3.371582 0
M  V30 28 H 1.882316 -0.737909 -1.992608 0
M  V30 29 H 0.219494 0.986402 -1.475138 0
M  V30 30 H -1.850335 -0.229762 -1.946509 0
M  V30 31 H -1.755140 1.018184 -3.281140 0
M  V30 32 H -1.257352 -0.704914 -3.548824 0
M  V30 33 H 0.056919 1.696597 -4.044136 0
M  V30 34 H 1.412127 0.620436 -4.060525 0
M  V30 35 H 1.770370 1.807530 0.491666 0
M  V30 36 H 2.635745 3.871492 1.427407 0
M  V30 37 H 1.509700 2.638569 5.317085 0
M  V30 38 H 0.618026 0.522389 4.389718 0
M  V30 END ATOM
M  V30 BEGIN BOND
M  V30 1 1 1 2
M  V30 2 2 2 3
M  V30 3 1 3 4
M  V30 4 1 4 5
M  V30 5 2 5 6
M  V30 6 1 6 7
M  V30 7 1 7 8
M  V30 8 1 8 9
M  V30 9 1 9 10
M  V30 10 1 9 11
M  V30 11 1 6 12
M  V30 12 2 12 13
M  V30 13 1 13 14
M  V30 14 2 14 15
M  V30 15 1 15 16
M  V30 16 2 16 17
M  V30 17 1 17 18
M  V30 18 2 18 19
M  V30 19 1 13 20
M  V30 20 2 20 21
M  V30 21 1 21 2
M  V30 22 1 21 5
M  V30 23 1 19 14
M  V30 24 1 1 22
M  V30 25 1 1 23
M  V30 26 1 1 24
M  V30 27 1 3 25
M  V30 28 1 7 26
M  V30 29 1 8 27
M  V30 30 1 8 28
M  V30 31 1 9 29 CFG=1
M  V30 32 1 10 30
M  V30 33 1 10 31
M  V30 34 1 10 32
M  V30 35 1 11 33
M  V30 36 1 11 34
M  V30 37 1 15 35
M  V30 38 1 16 36
M  V30 39 1 18 37
M  V30 40 1 19 38
M  V30 END BOND
M  V30 END CTAB
M  END
>  <Dataset>  (11) 
ChEMBL_Kinases

>  <Ligand_Instance>  (11) 
nan

>  <PDB_ID>  (11) 
nan

>  <Standardized_SMILES>  (11) 
Cc1csc2c(NC[C@H](C)N)nc(-c3ccncc3)nc12

>  <Name>  (11) 
nan

>  <Pocket>  (11) 
nan

>  <ATP_Site>  (11) 
nan

>  <Peripheral>  (11) 
nan

>  <Num_H_Atoms_ProtBoundConf>  (11) 
nan

>  <Num_Resolved_Atoms>  (11) 
nan

>  <Num_Not_Resolved_Atoms>  (11) 
nan

$$$$
CHEMBL558858
     RDKit          3D

  0  0  0  0  0  0  0  0  0  0999 V3000
M  V30 BEGIN CTAB
M  V30 COUNTS 62 64 0 0 0
M  V30 BEGIN ATOM
M  V30 1 C 4.849552 -2.911273 3.280894 0
M  V30 2 C 3.389696 -3.219017 3.457799 0
M  V30 3 O 2.650168 -2.394251 2.576531 0
M  V30 4 C 2.776744 -1.024097 2.731934 0
M  V30 5 O 3.574410 -0.876335 3.685203 0
M  V30 6 C 2.140950 0.044746 1.975703 0
M  V30 7 C 2.434975 1.281472 2.328231 0
M  V30 8 C 3.347950 1.636699 3.417114 0
M  V30 9 N 1.798432 2.302830 1.571107 0
M  V30 10 C 0.857505 2.038445 0.497970 0
M  V30 11 O -0.110282 3.033765 0.562968 0
M  V30 12 C -0.101929 3.847177 -0.568453 0
M  V30 13 N 0.298260 0.743834 0.665114 0
M  V30 14 C -0.856474 0.461442 -0.091712 0
M  V30 15 C -0.680481 0.361757 -1.556962 0
M  V30 16 O 0.418715 0.524159 -2.182355 0
M  V30 17 C -1.913966 0.045163 -2.313669 0
M  V30 18 C -3.160967 -0.149831 -1.706197 0
M  V30 19 C -4.262076 -0.443542 -2.492032 0
M  V30 20 C -4.131473 -0.543305 -3.862282 0
M  V30 21 O -5.280271 -0.841000 -4.585263 0
M  V30 22 C -6.518280 -1.025103 -3.881694 0
M  V30 23 C -2.929139 -0.361135 -4.511471 0
M  V30 24 C -1.835900 -0.065462 -3.688110 0
M  V30 25 C 1.204563 -0.328961 0.860422 0
M  V30 26 C 0.419857 -1.521467 1.322919 0
M  V30 27 C 0.637901 -2.770591 0.737978 0
M  V30 28 C -0.000066 -3.938745 1.059778 0
M  V30 29 C -0.933991 -3.834904 2.053202 0
M  V30 30 C -1.691267 -5.051209 2.483346 0
M  V30 31 C -1.205915 -2.640104 2.678128 0
M  V30 32 C -0.532837 -1.491980 2.314338 0
M  V30 33 H 5.237163 -2.434227 4.204043 0
M  V30 34 H 5.462495 -3.831635 3.098305 0
M  V30 35 H 5.045982 -2.204713 2.437852 0
M  V30 36 H 3.154405 -4.275427 3.253882 0
M  V30 37 H 3.047953 -2.983302 4.491337 0
M  V30 38 H 4.384280 1.273127 3.275297 0
M  V30 39 H 2.975088 1.262365 4.400348 0
M  V30 40 H 3.409521 2.749412 3.524244 0
M  V30 41 H 2.022263 3.294501 1.802436 0
M  V30 42 H 1.427615 2.114493 -0.453183 0
M  V30 43 H 0.884496 4.360335 -0.704467 0
M  V30 44 H -0.306367 3.306656 -1.500055 0
M  V30 45 H -0.828989 4.667281 -0.394127 0
M  V30 46 H -1.323632 -0.494797 0.217541 0
M  V30 47 H -1.624366 1.242446 0.073158 0
M  V30 48 H -3.174671 -0.053010 -0.625236 0
M  V30 49 H -5.173857 -0.575500 -1.924447 0
M  V30 50 H -7.346934 -1.195924 -4.566107 0
M  V30 51 H -6.726699 -0.198406 -3.192674 0
M  V30 52 H -6.377818 -1.960371 -3.267185 0
M  V30 53 H -2.836953 -0.441220 -5.581373 0
M  V30 54 H -0.902696 0.071721 -4.236484 0
M  V30 55 H 1.803996 -0.620950 0.001395 0
M  V30 56 H 1.394090 -2.787634 -0.048084 0
M  V30 57 H 0.242769 -4.856683 0.544481 0
M  V30 58 H -2.785678 -4.844514 2.366753 0
M  V30 59 H -1.477867 -5.284824 3.544809 0
M  V30 60 H -1.390982 -5.916849 1.867226 0
M  V30 61 H -1.942141 -2.554021 3.463370 0
M  V30 62 H -0.728015 -0.539747 2.790174 0
M  V30 END ATOM
M  V30 BEGIN BOND
M  V30 1 1 1 2
M  V30 2 1 2 3
M  V30 3 1 3 4
M  V30 4 2 4 5
M  V30 5 1 4 6
M  V30 6 2 6 7
M  V30 7 1 7 8
M  V30 8 1 7 9
M  V30 9 1 9 10
M  V30 10 1 10 11
M  V30 11 1 11 12
M  V30 12 1 10 13
M  V30 13 1 13 14
M  V30 14 1 14 15
M  V30 15 2 15 16
M  V30 16 1 15 17
M  V30 17 2 17 18
M  V30 18 1 18 19
M  V30 19 2 19 20
M  V30 20 1 20 21
M  V30 21 1 21 22
M  V30 22 1 20 23
M  V30 23 2 23 24
M  V30 24 1 13 25
M  V30 25 1 25 26
M  V30 26 2 26 27
M  V30 27 1 27 28
M  V30 28 2 28 29
M  V30 29 1 29 30
M  V30 30 1 29 31
M  V30 31 2 31 32
M  V30 32 1 25 6
M  V30 33 1 32 26
M  V30 34 1 24 17
M  V30 35 1 1 33
M  V30 36 1 1 34
M  V30 37 1 1 35
M  V30 38 1 2 36
M  V30 39 1 2 37
M  V30 40 1 8 38
M  V30 41 1 8 39
M  V30 42 1 8 40
M  V30 43 1 9 41
M  V30 44 1 10 42
M  V30 45 1 12 43
M  V30 46 1 12 44
M  V30 47 1 12 45
M  V30 48 1 14 46
M  V30 49 1 14 47
M  V30 50 1 18 48
M  V30 51 1 19 49
M  V30 52 1 22 50
M  V30 53 1 22 51
M  V30 54 1 22 52
M  V30 55 1 23 53
M  V30 56 1 24 54
M  V30 57 1 25 55
M  V30 58 1 27 56
M  V30 59 1 28 57
M  V30 60 1 30 58
M  V30 61 1 30 59
M  V30 62 1 30 60
M  V30 63 1 31 61
M  V30 64 1 32 62
M  V30 END BOND
M  V30 END CTAB
M  END
>  <Dataset>  (12) 
ChEMBL_Kinases

>  <Ligand_Instance>  (12) 
nan

>  <PDB_ID>  (12) 
nan

>  <Standardized_SMILES>  (12) 
CCOC(=O)C1=C(C)NC(OC)N(CC(=O)c2ccc(OC)cc2)C1c1ccc(C)cc1

>  <Name>  (12) 
nan

>  <Pocket>  (12) 
nan

>  <ATP_Site>  (12) 
nan

>  <Peripheral>  (12) 
nan

>  <Num_H_Atoms_ProtBoundConf>  (12) 
nan

>  <Num_Resolved_Atoms>  (12) 
nan

>  <Num_Not_Resolved_Atoms>  (12) 
nan

$$$$
CHEMBL55890
     RDKit          3D

  0  0  0  0  0  0  0  0  0  0999 V3000
M  V30 BEGIN CTAB
M  V30 COUNTS 65 68 0 0 0
M  V30 BEGIN ATOM
M  V30 1 O 0.503455 4.334029 2.535633 0
M  V30 2 C 0.570206 4.188735 3.763163 0
M  V30 3 N -0.007875 2.952471 4.208954 0
M  V30 4 C -0.587345 2.019972 3.292548 0 CFG=2
M  V30 5 C -1.992887 1.617189 3.578222 0
M  V30 6 C -1.860792 0.501755 4.584664 0
M  V30 7 C -0.465868 -0.043855 4.446926 0
M  V30 8 C 0.156741 0.693621 3.272639 0 CFG=1
M  V30 9 O -0.130410 -0.061012 2.124697 0
M  V30 10 C 0.746493 -0.495046 1.173506 0
M  V30 11 O 1.920689 -0.127839 1.434168 0
M  V30 12 C 0.358958 -1.281950 0.010425 0
M  V30 13 C -0.973003 -1.610458 -0.094475 0
M  V30 14 C -1.399159 -2.365357 -1.190332 0
M  V30 15 O -2.765624 -2.657797 -1.226543 0
M  V30 16 C -0.518263 -2.785397 -2.163141 0
M  V30 17 C -0.979971 -3.619956 -3.235741 0
M  V30 18 O -2.025216 -4.230256 -2.813575 0
M  V30 19 C -0.714291 -4.016554 -4.578630 0
M  V30 20 C -0.026891 -3.269463 -5.508977 0
M  V30 21 O 0.543378 -2.045255 -5.252758 0
M  V30 22 C 0.170148 -3.649260 -6.816323 0
M  V30 23 C -0.362741 -4.854776 -7.201136 0
M  V30 24 C -1.055842 -5.645856 -6.338598 0
M  V30 25 C -1.231383 -5.217890 -5.013175 0
M  V30 26 N -1.977882 -6.133942 -4.185952 0
M  V30 27 C -1.258678 -7.142254 -3.468019 0
M  V30 28 O -0.001701 -7.132912 -3.635943 0
M  V30 29 C -2.100839 -8.038860 -2.640031 0
M  V30 30 F -2.995506 -8.691445 -3.445850 0
M  V30 31 F -2.708760 -7.236548 -1.690712 0
M  V30 32 F -1.250678 -8.962848 -2.060006 0
M  V30 33 C 0.801844 -2.428011 -2.001904 0
M  V30 34 O 1.847016 -2.748468 -2.839951 0
M  V30 35 C 1.266635 -1.684313 -0.938752 0
M  V30 36 C 1.161110 5.148009 4.667258 0
M  V30 37 C 1.195219 4.932899 6.034986 0
M  V30 38 C 1.773205 5.887074 6.856775 0
M  V30 39 C 2.313932 7.043541 6.342819 0
M  V30 40 O 2.872830 7.946907 7.234380 0
M  V30 41 C 2.257241 7.214528 4.974053 0
M  V30 42 C 1.692477 6.296228 4.105804 0
M  V30 43 H -0.022345 2.700687 5.218494 0
M  V30 44 H -0.556430 2.415663 2.233049 0
M  V30 45 H -2.552753 1.302461 2.671121 0
M  V30 46 H -2.607051 2.418156 4.033174 0
M  V30 47 H -2.637788 -0.281265 4.445346 0
M  V30 48 H -1.970656 0.869020 5.638304 0
M  V30 49 H 0.151040 0.094983 5.383198 0
M  V30 50 H -0.534622 -1.137863 4.286931 0
M  V30 51 H 1.206931 0.943830 3.429396 0
M  V30 52 H -1.685933 -1.294198 0.651834 0
M  V30 53 H -3.384324 -2.318761 -1.972479 0
M  V30 54 H 0.124196 -1.175423 -5.550502 0
M  V30 55 H 0.703169 -3.096139 -7.575318 0
M  V30 56 H -0.253659 -5.227947 -8.207436 0
M  V30 57 H -1.471690 -6.599679 -6.667506 0
M  V30 58 H -3.002609 -5.946803 -4.208378 0
M  V30 59 H 2.365005 -3.614335 -2.705683 0
M  V30 60 H 2.273848 -1.364918 -0.744474 0
M  V30 61 H 0.786980 4.049229 6.494958 0
M  V30 62 H 1.783346 5.682459 7.935099 0
M  V30 63 H 3.435740 8.685059 6.826052 0
M  V30 64 H 2.706638 8.157683 4.642220 0
M  V30 65 H 1.701930 6.530913 3.046291 0
M  V30 END ATOM
M  V30 BEGIN BOND
M  V30 1 2 1 2
M  V30 2 1 2 3
M  V30 3 1 3 4
M  V30 4 1 4 5
M  V30 5 1 5 6
M  V30 6 1 6 7
M  V30 7 1 7 8
M  V30 8 1 8 9
M  V30 9 1 9 10
M  V30 10 2 10 11
M  V30 11 1 10 12
M  V30 12 2 12 13
M  V30 13 1 13 14
M  V30 14 1 14 15
M  V30 15 2 14 16
M  V30 16 1 16 17
M  V30 17 2 17 18
M  V30 18 1 17 19
M  V30 19 2 19 20
M  V30 20 1 20 21
M  V30 21 1 20 22
M  V30 22 2 22 23
M  V30 23 1 23 24
M  V30 24 2 24 25
M  V30 25 1 25 26
M  V30 26 1 26 27
M  V30 27 2 27 28
M  V30 28 1 27 29
M  V30 29 1 29 30
M  V30 30 1 29 31
M  V30 31 1 29 32
M  V30 32 1 16 33
M  V30 33 1 33 34
M  V30 34 2 33 35
M  V30 35 1 2 36
M  V30 36 2 36 37
M  V30 37 1 37 38
M  V30 38 2 38 39
M  V30 39 1 39 40
M  V30 40 1 39 41
M  V30 41 2 41 42
M  V30 42 1 8 4
M  V30 43 1 35 12
M  V30 44 1 42 36
M  V30 45 1 25 19
M  V30 46 1 3 43
M  V30 47 1 4 44 CFG=3
M  V30 48 1 5 45
M  V30 49 1 5 46
M  V30 50 1 6 47
M  V30 51 1 6 48
M  V30 52 1 7 49
M  V30 53 1 7 50
M  V30 54 1 8 51 CFG=1
M  V30 55 1 13 52
M  V30 56 1 15 53
M  V30 57 1 21 54
M  V30 58 1 22 55
M  V30 59 1 23 56
M  V30 60 1 24 57
M  V30 61 1 26 58
M  V30 62 1 34 59
M  V30 63 1 35 60
M  V30 64 1 37 61
M  V30 65 1 38 62
M  V30 66 1 40 63
M  V30 67 1 41 64
M  V30 68 1 42 65
M  V30 END BOND
M  V30 END CTAB
M  END
>  <Dataset>  (13) 
ChEMBL_Kinases

>  <Ligand_Instance>  (13) 
nan

>  <PDB_ID>  (13) 
nan

>  <Standardized_SMILES>  (13) 
O=C(N[C@@H]1CCC[C@H]1OC(=O)c1cc(O)c(C(=O)c2c(O)cccc2NC(=O)C(F)(F)F)c(O)c1)c1ccc(O)cc1

>  <Name>  (13) 
nan

>  <Pocket>  (13) 
nan

>  <ATP_Site>  (13) 
nan

>  <Peripheral>  (13) 
nan

>  <Num_H_Atoms_ProtBoundConf>  (13) 
nan

>  <Num_Resolved_Atoms>  (13) 
nan

>  <Num_Not_Resolved_Atoms>  (13) 
nan

$$$$
CHEMBL558912
     RDKit          3D

  0  0  0  0  0  0  0  0  0  0999 V3000
M  V30 BEGIN CTAB
M  V30 COUNTS 54 58 0 0 0
M  V30 BEGIN ATOM
M  V30 1 C 0.800106 -2.394151 3.205916 0
M  V30 2 C 1.755078 -1.366402 2.742467 0
M  V30 3 C 3.076085 -1.408450 3.078976 0
M  V30 4 C 3.868338 -0.396930 2.606784 0
M  V30 5 C 3.439913 0.649094 1.826937 0
M  V30 6 C 4.306069 1.708007 1.341851 0
M  V30 7 O 3.867151 2.640012 0.634903 0
M  V30 8 N 5.679300 1.668947 1.687257 0
M  V30 9 C 6.565581 2.715204 1.214991 0
M  V30 10 C 7.958392 2.430728 0.808228 0
M  V30 11 C 7.665579 3.219171 2.085676 0
M  V30 12 C 2.071140 0.582644 1.549490 0
M  V30 13 C 1.151555 -0.412029 1.979886 0
M  V30 14 N -0.113975 -0.086048 1.458747 0
M  V30 15 C -1.159538 -0.449770 0.622084 0
M  V30 16 C -1.211313 0.460936 -0.465937 0
M  V30 17 C -2.150851 0.381899 -1.501475 0
M  V30 18 O -2.190224 1.190370 -2.460849 0
M  V30 19 N -3.019163 -0.619725 -1.410761 0
M  V30 20 C -4.002395 -0.735182 -2.464228 0
M  V30 21 C -3.056175 -1.515741 -0.441968 0
M  V30 22 C -2.124452 -1.410186 0.554386 0
M  V30 23 C -2.325175 -2.389561 1.457729 0
M  V30 24 N -3.370256 -3.101277 1.028076 0
M  V30 25 N -3.817307 -2.574845 -0.124918 0
M  V30 26 C -4.919890 -3.100562 -0.841754 0
M  V30 27 C -4.884033 -3.845273 -2.009815 0
M  V30 28 F -3.660079 -4.090392 -2.512413 0
M  V30 29 C -6.005327 -4.313142 -2.626939 0
M  V30 30 C -7.258713 -4.072026 -2.121863 0
M  V30 31 C -7.346400 -3.334482 -0.959512 0
M  V30 32 C -6.206046 -2.864174 -0.340578 0
M  V30 33 F -6.432453 -2.150606 0.798308 0
M  V30 34 H 0.499290 -3.045803 2.360578 0
M  V30 35 H 1.343936 -3.057482 3.902239 0
M  V30 36 H -0.052535 -1.945100 3.759050 0
M  V30 37 H 3.372498 -2.236585 3.686718 0
M  V30 38 H 4.900509 -0.482478 2.901830 0
M  V30 39 H 6.155902 0.947220 2.266623 0
M  V30 40 H 6.059699 3.485912 0.597655 0
M  V30 41 H 8.442794 1.466649 0.968018 0
M  V30 42 H 8.421110 3.009431 -0.018021 0
M  V30 43 H 7.931361 4.301662 2.060492 0
M  V30 44 H 7.900172 2.720307 3.054611 0
M  V30 45 H 1.788713 1.450335 0.920085 0
M  V30 46 H -0.430112 0.823892 1.933763 0
M  V30 47 H -0.529277 1.319695 -0.617093 0
M  V30 48 H -3.700640 -1.493183 -3.212666 0
M  V30 49 H -5.005064 -0.875100 -2.034986 0
M  V30 50 H -4.078655 0.218983 -3.057556 0
M  V30 51 H -1.810578 -2.607235 2.360474 0
M  V30 52 H -5.861092 -4.891691 -3.546502 0
M  V30 53 H -8.070522 -4.490395 -2.693179 0
M  V30 54 H -8.337072 -3.158547 -0.583118 0
M  V30 END ATOM
M  V30 BEGIN BOND
M  V30 1 1 1 2
M  V30 2 2 2 3
M  V30 3 1 3 4
M  V30 4 2 4 5
M  V30 5 1 5 6
M  V30 6 2 6 7
M  V30 7 1 6 8
M  V30 8 1 8 9
M  V30 9 1 9 10
M  V30 10 1 10 11
M  V30 11 1 5 12
M  V30 12 2 12 13
M  V30 13 1 13 14
M  V30 14 1 14 15
M  V30 15 2 15 16
M  V30 16 1 16 17
M  V30 17 2 17 18
M  V30 18 1 17 19
M  V30 19 1 19 20
M  V30 20 1 19 21
M  V30 21 2 21 22
M  V30 22 1 22 23
M  V30 23 2 23 24
M  V30 24 1 24 25
M  V30 25 1 25 26
M  V30 26 2 26 27
M  V30 27 1 27 28
M  V30 28 1 27 29
M  V30 29 2 29 30
M  V30 30 1 30 31
M  V30 31 2 31 32
M  V30 32 1 32 33
M  V30 33 1 13 2
M  V30 34 1 22 15
M  V30 35 1 32 26
M  V30 36 1 11 9
M  V30 37 1 25 21
M  V30 38 1 1 34
M  V30 39 1 1 35
M  V30 40 1 1 36
M  V30 41 1 3 37
M  V30 42 1 4 38
M  V30 43 1 8 39
M  V30 44 1 9 40
M  V30 45 1 10 41
M  V30 46 1 10 42
M  V30 47 1 11 43
M  V30 48 1 11 44
M  V30 49 1 12 45
M  V30 50 1 14 46
M  V30 51 1 16 47
M  V30 52 1 20 48
M  V30 53 1 20 49
M  V30 54 1 20 50
M  V30 55 1 23 51
M  V30 56 1 29 52
M  V30 57 1 30 53
M  V30 58 1 31 54
M  V30 END BOND
M  V30 END CTAB
M  END
>  <Dataset>  (14) 
ChEMBL_Kinases

>  <Ligand_Instance>  (14) 
nan

>  <PDB_ID>  (14) 
nan

>  <Standardized_SMILES>  (14) 
Cc1ccc(C(=O)NC2CC2)cc1Nc1cc(=O)n(C)c2c1cnn2-c1c(F)cccc1F

>  <Name>  (14) 
nan

>  <Pocket>  (14) 
nan

>  <ATP_Site>  (14) 
nan

>  <Peripheral>  (14) 
nan

>  <Num_H_Atoms_ProtBoundConf>  (14) 
nan

>  <Num_Resolved_Atoms>  (14) 
nan

>  <Num_Not_Resolved_Atoms>  (14) 
nan

$$$$
CHEMBL558982
     RDKit          3D

  0  0  0  0  0  0  0  0  0  0999 V3000
M  V30 BEGIN CTAB
M  V30 COUNTS 39 42 0 0 0
M  V30 BEGIN ATOM
M  V30 1 C 0.515229 -4.619192 5.456362 0
M  V30 2 C 0.998489 -4.914257 4.184275 0
M  V30 3 C 1.599775 -3.970002 3.372881 0
M  V30 4 C 1.705233 -2.691321 3.885302 0
M  V30 5 N 2.324304 -1.655195 3.087638 0
M  V30 6 C 1.639595 -1.085117 2.131470 0
M  V30 7 N 1.801671 -0.253357 1.322182 0
M  V30 8 C 0.910690 0.155947 0.434192 0
M  V30 9 C 1.306083 1.223890 -0.510406 0
M  V30 10 C 1.569100 1.046510 -1.853537 0
M  V30 11 C 1.927602 2.150171 -2.601072 0
M  V30 12 C 2.041951 3.426321 -2.095511 0
M  V30 13 C 1.776154 3.584446 -0.755192 0
M  V30 14 C 1.415775 2.502523 0.018421 0
M  V30 15 N -0.287856 -0.413517 0.439572 0
M  V30 16 C -1.363014 -0.088707 -0.450830 0
M  V30 17 C -1.918905 1.142585 -0.569839 0
M  V30 18 C -2.947566 1.266394 -1.481770 0
M  V30 19 C -3.397778 0.189844 -2.243894 0
M  V30 20 C -2.802836 -1.067475 -2.097112 0
M  V30 21 C -1.773851 -1.171652 -1.178578 0
M  V30 22 S -0.166488 -1.604698 1.776904 0
M  V30 23 C 1.240772 -2.352976 5.140111 0
M  V30 24 C 0.646043 -3.322720 5.921605 0
M  V30 25 H 0.059036 -5.416781 6.024208 0
M  V30 26 H 0.913863 -5.926051 3.781484 0
M  V30 27 H 1.961182 -4.235034 2.395456 0
M  V30 28 H 1.475573 0.047325 -2.231145 0
M  V30 29 H 2.114811 1.903845 -3.653750 0
M  V30 30 H 2.330246 4.241750 -2.754698 0
M  V30 31 H 1.857569 4.582148 -0.323496 0
M  V30 32 H 1.225735 2.731083 1.069739 0
M  V30 33 H -1.542186 1.952254 0.038610 0
M  V30 34 H -3.420522 2.235709 -1.608155 0
M  V30 35 H -4.212112 0.317432 -2.956323 0
M  V30 36 H -3.161706 -1.892021 -2.693838 0
M  V30 37 H -1.362023 -2.183174 -1.122303 0
M  V30 38 H 1.328292 -1.346429 5.533233 0
M  V30 39 H 0.259031 -3.131309 6.913915 0
M  V30 END ATOM
M  V30 BEGIN BOND
M  V30 1 2 1 2
M  V30 2 1 2 3
M  V30 3 2 3 4
M  V30 4 1 4 5
M  V30 5 2 5 6
M  V30 6 1 6 7
M  V30 7 2 7 8
M  V30 8 1 8 9
M  V30 9 2 9 10
M  V30 10 1 10 11
M  V30 11 2 11 12
M  V30 12 1 12 13
M  V30 13 2 13 14
M  V30 14 1 8 15
M  V30 15 1 15 16
M  V30 16 2 16 17
M  V30 17 1 17 18
M  V30 18 2 18 19
M  V30 19 1 19 20
M  V30 20 2 20 21
M  V30 21 1 15 22
M  V30 22 1 4 23
M  V30 23 2 23 24
M  V30 24 1 24 1
M  V30 25 1 22 6
M  V30 26 1 14 9
M  V30 27 1 21 16
M  V30 28 1 1 25
M  V30 29 1 2 26
M  V30 30 1 3 27
M  V30 31 1 10 28
M  V30 32 1 11 29
M  V30 33 1 12 30
M  V30 34 1 13 31
M  V30 35 1 14 32
M  V30 36 1 17 33
M  V30 37 1 18 34
M  V30 38 1 19 35
M  V30 39 1 20 36
M  V30 40 1 21 37
M  V30 41 1 23 38
M  V30 42 1 24 39
M  V30 END BOND
M  V30 END CTAB
M  END
>  <Dataset>  (15) 
ChEMBL_Kinases

>  <Ligand_Instance>  (15) 
nan

>  <PDB_ID>  (15) 
nan

>  <Standardized_SMILES>  (15) 
c1ccc(/N=c2/nc(-c3ccccc3)n(-c3ccccc3)s2)cc1

>  <Name>  (15) 
nan

>  <Pocket>  (15) 
nan

>  <ATP_Site>  (15) 
nan

>  <Peripheral>  (15) 
nan

>  <Num_H_Atoms_ProtBoundConf>  (15) 
nan

>  <Num_Resolved_Atoms>  (15) 
nan

>  <Num_Not_Resolved_Atoms>  (15) 
nan

$$$$
CHEMBL559242
     RDKit          3D

  0  0  0  0  0  0  0  0  0  0999 V3000
M  V30 BEGIN CTAB
M  V30 COUNTS 51 55 0 0 0
M  V30 BEGIN ATOM
M  V30 1 C 1.745696 -4.345877 1.361231 0
M  V30 2 N 0.685835 -3.470739 1.789168 0
M  V30 3 C 0.387991 -3.312106 3.112899 0
M  V30 4 O 1.072416 -3.960003 3.974954 0
M  V30 5 C -0.613735 -2.484170 3.508963 0
M  V30 6 C -1.390653 -1.753836 2.601556 0
M  V30 7 N -2.449195 -0.877819 2.965324 0
M  V30 8 C -2.637572 0.514453 2.751953 0
M  V30 9 C -1.678290 1.238388 2.087358 0
M  V30 10 C -1.907482 2.572875 1.906575 0
M  V30 11 C -1.021037 3.500969 1.233770 0
M  V30 12 O -1.194920 4.732033 1.048090 0
M  V30 13 N 0.226726 3.067771 0.677724 0
M  V30 14 C 1.188806 3.899894 -0.013174 0
M  V30 15 C 2.659467 3.607656 0.194326 0
M  V30 16 C 2.004262 3.339108 -1.107250 0
M  V30 17 C -3.073712 3.176834 2.380322 0
M  V30 18 C -4.016515 2.391519 3.050180 0
M  V30 19 C -3.815275 1.022915 3.253222 0
M  V30 20 F -4.726584 0.259797 3.901633 0
M  V30 21 C -1.093174 -1.909705 1.242816 0
M  V30 22 C -1.590224 -1.399405 0.049465 0
M  V30 23 N -0.854836 -1.956560 -0.949030 0
M  V30 24 N 0.049713 -2.767867 -0.417451 0
M  V30 25 C 0.897030 -3.425309 -1.350184 0
M  V30 26 C 0.886172 -4.753472 -1.746462 0
M  V30 27 F -0.069388 -5.497693 -1.148572 0
M  V30 28 C 1.804817 -5.193461 -2.674511 0
M  V30 29 C 2.744399 -4.374253 -3.236083 0
M  V30 30 C 2.784729 -3.059448 -2.869373 0
M  V30 31 C 1.869500 -2.612212 -1.942046 0
M  V30 32 F 1.967168 -1.279739 -1.619560 0
M  V30 33 C -0.046497 -2.781705 0.924094 0
M  V30 34 H 2.394686 -3.807873 0.645429 0
M  V30 35 H 2.410949 -4.495617 2.263742 0
M  V30 36 H 1.453185 -5.357413 1.075631 0
M  V30 37 H -0.875599 -2.336781 4.563105 0
M  V30 38 H -3.100439 -1.511605 3.452739 0
M  V30 39 H -0.759533 0.824504 1.701495 0
M  V30 40 H 0.539277 2.067668 0.738868 0
M  V30 41 H 0.891204 4.966194 -0.096876 0
M  V30 42 H 2.854526 2.729982 0.863632 0
M  V30 43 H 3.352146 4.432688 0.370415 0
M  V30 44 H 1.955394 2.269679 -1.409484 0
M  V30 45 H 2.276196 4.007795 -1.951071 0
M  V30 46 H -3.315783 4.217076 2.272549 0
M  V30 47 H -4.924560 2.843937 3.423043 0
M  V30 48 H -2.401848 -0.706445 0.061315 0
M  V30 49 H 1.728872 -6.249503 -2.931355 0
M  V30 50 H 3.453123 -4.732911 -3.957965 0
M  V30 51 H 3.520268 -2.396917 -3.302481 0
M  V30 END ATOM
M  V30 BEGIN BOND
M  V30 1 1 1 2
M  V30 2 1 2 3
M  V30 3 2 3 4
M  V30 4 1 3 5
M  V30 5 2 5 6
M  V30 6 1 6 7
M  V30 7 1 7 8
M  V30 8 2 8 9
M  V30 9 1 9 10
M  V30 10 1 10 11
M  V30 11 2 11 12
M  V30 12 1 11 13
M  V30 13 1 13 14
M  V30 14 1 14 15
M  V30 15 1 15 16
M  V30 16 2 10 17
M  V30 17 1 17 18
M  V30 18 2 18 19
M  V30 19 1 19 20
M  V30 20 1 6 21
M  V30 21 1 21 22
M  V30 22 2 22 23
M  V30 23 1 23 24
M  V30 24 1 24 25
M  V30 25 2 25 26
M  V30 26 1 26 27
M  V30 27 1 26 28
M  V30 28 2 28 29
M  V30 29 1 29 30
M  V30 30 2 30 31
M  V30 31 1 31 32
M  V30 32 1 24 33
M  V30 33 1 33 2
M  V30 34 1 19 8
M  V30 35 2 33 21
M  V30 36 1 16 14
M  V30 37 1 31 25
M  V30 38 1 1 34
M  V30 39 1 1 35
M  V30 40 1 1 36
M  V30 41 1 5 37
M  V30 42 1 7 38
M  V30 43 1 9 39
M  V30 44 1 13 40
M  V30 45 1 14 41
M  V30 46 1 15 42
M  V30 47 1 15 43
M  V30 48 1 16 44
M  V30 49 1 16 45
M  V30 50 1 17 46
M  V30 51 1 18 47
M  V30 52 1 22 48
M  V30 53 1 28 49
M  V30 54 1 29 50
M  V30 55 1 30 51
M  V30 END BOND
M  V30 END CTAB
M  END
>  <Dataset>  (16) 
ChEMBL_Kinases

>  <Ligand_Instance>  (16) 
nan

>  <PDB_ID>  (16) 
nan

>  <Standardized_SMILES>  (16) 
Cn1c(=O)cc(Nc2cc(C(=O)NC3CC3)ccc2F)c2cnn(-c3c(F)cccc3F)c21

>  <Name>  (16) 
nan

>  <Pocket>  (16) 
nan

>  <ATP_Site>  (16) 
nan

>  <Peripheral>  (16) 
nan

>  <Num_H_Atoms_ProtBoundConf>  (16) 
nan

>  <Num_Resolved_Atoms>  (16) 
nan

>  <Num_Not_Resolved_Atoms>  (16) 
nan

$$$$
CHEMBL55934
     RDKit          3D

  0  0  0  0  0  0  0  0  0  0999 V3000
M  V30 BEGIN CTAB
M  V30 COUNTS 18 19 0 0 0
M  V30 BEGIN ATOM
M  V30 1 O 0.279517 -2.781960 0.994285 0
M  V30 2 C 0.808242 -1.717951 1.369525 0
M  V30 3 C 1.598594 -1.758535 2.589686 0
M  V30 4 C 2.190066 -0.667458 3.049548 0
M  V30 5 C 2.082958 0.604868 2.372174 0
M  V30 6 O 2.653168 1.620912 2.829981 0
M  V30 7 C 1.303321 0.718492 1.138816 0
M  V30 8 C 1.171717 1.924842 0.450801 0
M  V30 9 C 0.426138 2.003147 -0.716418 0
M  V30 10 C -0.143846 0.823438 -1.107742 0
M  V30 11 C -0.053430 -0.399891 -0.475593 0
M  V30 12 C 0.699324 -0.437316 0.686035 0
M  V30 13 H 1.725125 -2.683728 3.156360 0
M  V30 14 H 2.778958 -0.706026 3.962061 0
M  V30 15 H 1.662800 2.814490 0.839184 0
M  V30 16 H 0.300229 2.914590 -1.276585 0
M  V30 17 H -0.740531 0.829618 -2.019048 0
M  V30 18 H -0.554373 -1.278140 -0.883614 0
M  V30 END ATOM
M  V30 BEGIN BOND
M  V30 1 2 1 2
M  V30 2 1 2 3
M  V30 3 2 3 4
M  V30 4 1 4 5
M  V30 5 2 5 6
M  V30 6 1 5 7
M  V30 7 2 7 8
M  V30 8 1 8 9
M  V30 9 2 9 10
M  V30 10 1 10 11
M  V30 11 2 11 12
M  V30 12 1 12 2
M  V30 13 1 12 7
M  V30 14 1 3 13
M  V30 15 1 4 14
M  V30 16 1 8 15
M  V30 17 1 9 16
M  V30 18 1 10 17
M  V30 19 1 11 18
M  V30 END BOND
M  V30 END CTAB
M  END
>  <Dataset>  (17) 
ChEMBL_Kinases

>  <Ligand_Instance>  (17) 
nan

>  <PDB_ID>  (17) 
nan

>  <Standardized_SMILES>  (17) 
O=C1C=CC(=O)c2ccccc21

>  <Name>  (17) 
NAPHTHOQUINONE

>  <Pocket>  (17) 
nan

>  <ATP_Site>  (17) 
nan

>  <Peripheral>  (17) 
nan

>  <Num_H_Atoms_ProtBoundConf>  (17) 
nan

>  <Num_Resolved_Atoms>  (17) 
nan

>  <Num_Not_Resolved_Atoms>  (17) 
nan

$$$$
CHEMBL559391
     RDKit          3D

  0  0  0  0  0  0  0  0  0  0999 V3000
M  V30 BEGIN CTAB
M  V30 COUNTS 36 38 0 0 0
M  V30 BEGIN ATOM
M  V30 1 N 0.027179 -2.273619 0.187652 0
M  V30 2 C -0.251640 -0.892426 0.364853 0
M  V30 3 C 0.668531 0.070968 0.614792 0
M  V30 4 C 2.055982 -0.357008 0.696713 0
M  V30 5 O 2.290264 -1.592191 0.470358 0
M  V30 6 C 3.317999 0.300771 0.986849 0
M  V30 7 C 4.420611 0.124281 0.178037 0
M  V30 8 C 5.636353 0.732876 0.390838 0
M  V30 9 C 5.776232 1.572974 1.474483 0
M  V30 10 F 6.967560 2.184654 1.703635 0
M  V30 11 C 4.715707 1.794623 2.324342 0
M  V30 12 C 3.530495 1.149252 2.045617 0
M  V30 13 F 2.535167 1.397515 2.922785 0
M  V30 14 C 0.219375 1.363340 0.758936 0
M  V30 15 C -1.099845 1.747945 0.667711 0
M  V30 16 N -2.003468 0.784061 0.419753 0 CHG=1 VAL=4
M  V30 17 O -3.327238 1.119192 0.320543 0 CHG=-1 VAL=1
M  V30 18 C -1.587748 -0.487008 0.274722 0
M  V30 19 C -2.621640 -1.485388 0.006657 0
M  V30 20 C -2.950521 -1.753290 -1.309429 0
M  V30 21 C -3.932008 -2.699166 -1.612114 0
M  V30 22 C -4.599654 -3.391729 -0.600948 0
M  V30 23 C -4.243775 -3.097461 0.714890 0
M  V30 24 C -3.275702 -2.165186 1.030109 0
M  V30 25 Cl -2.827886 -1.794703 2.681135 0
M  V30 26 H 0.411700 -3.016047 0.818331 0
M  V30 27 H -0.073047 -2.926238 -0.613660 0
M  V30 28 H 4.374801 -0.521425 -0.686469 0
M  V30 29 H 6.482857 0.560367 -0.281101 0
M  V30 30 H 4.853741 2.452273 3.158064 0
M  V30 31 H 0.928001 2.142460 0.949322 0
M  V30 32 H -1.388015 2.784534 0.791739 0
M  V30 33 H -2.501992 -1.280844 -2.166558 0
M  V30 34 H -4.202789 -2.922212 -2.634823 0
M  V30 35 H -5.364265 -4.130856 -0.780815 0
M  V30 36 H -4.747659 -3.622160 1.528034 0
M  V30 END ATOM
M  V30 BEGIN BOND
M  V30 1 1 1 2
M  V30 2 2 2 3
M  V30 3 1 3 4
M  V30 4 2 4 5
M  V30 5 1 4 6
M  V30 6 2 6 7
M  V30 7 1 7 8
M  V30 8 2 8 9
M  V30 9 1 9 10
M  V30 10 1 9 11
M  V30 11 2 11 12
M  V30 12 1 12 13
M  V30 13 1 3 14
M  V30 14 2 14 15
M  V30 15 1 15 16
M  V30 16 1 16 17
M  V30 17 2 16 18
M  V30 18 1 18 19
M  V30 19 2 19 20
M  V30 20 1 20 21
M  V30 21 2 21 22
M  V30 22 1 22 23
M  V30 23 2 23 24
M  V30 24 1 24 25
M  V30 25 1 18 2
M  V30 26 1 24 19
M  V30 27 1 12 6
M  V30 28 1 1 26
M  V30 29 1 1 27
M  V30 30 1 7 28
M  V30 31 1 8 29
M  V30 32 1 11 30
M  V30 33 1 14 31
M  V30 34 1 15 32
M  V30 35 1 20 33
M  V30 36 1 21 34
M  V30 37 1 22 35
M  V30 38 1 23 36
M  V30 END BOND
M  V30 END CTAB
M  END
>  <Dataset>  (18) 
ChEMBL_Kinases

>  <Ligand_Instance>  (18) 
nan

>  <PDB_ID>  (18) 
nan

>  <Standardized_SMILES>  (18) 
Nc1c(C(=O)c2ccc(F)cc2F)cc[n+]([O-])c1-c1ccccc1Cl

>  <Name>  (18) 
nan

>  <Pocket>  (18) 
nan

>  <ATP_Site>  (18) 
nan

>  <Peripheral>  (18) 
nan

>  <Num_H_Atoms_ProtBoundConf>  (18) 
nan

>  <Num_Resolved_Atoms>  (18) 
nan

>  <Num_Not_Resolved_Atoms>  (18) 
nan

$$$$
CHEMBL572006
     RDKit          3D

  0  0  0  0  0  0  0  0  0  0999 V3000
M  V30 BEGIN CTAB
M  V30 COUNTS 59 62 0 0 0
M  V30 BEGIN ATOM
M  V30 1 C 8.139441 -2.144500 4.838559 0
M  V30 2 O 7.424065 -2.712318 3.776188 0
M  V30 3 C 6.300868 -2.139224 3.198308 0
M  V30 4 C 5.723469 -0.926902 3.584097 0
M  V30 5 C 4.603642 -0.483863 2.912577 0
M  V30 6 C 3.997937 -1.137941 1.884460 0
M  V30 7 C 2.816394 -0.683961 1.165888 0
M  V30 8 C 2.214597 0.447500 1.468345 0
M  V30 9 C 1.036078 0.820747 0.692570 0
M  V30 10 O 0.619311 0.071087 -0.235647 0
M  V30 11 N 0.257567 1.996196 0.869001 0
M  V30 12 C -0.804553 1.958275 -0.107518 0
M  V30 13 C -2.063457 1.400535 0.061527 0
M  V30 14 C -2.910463 1.486189 -1.027172 0
M  V30 15 C -4.233244 0.897117 -0.842065 0
M  V30 16 N -5.479824 1.402835 -0.867705 0
M  V30 17 C -6.345563 0.401065 -0.632098 0
M  V30 18 S -8.090611 0.559188 -0.566299 0 CHG=1 VAL=3
M  V30 19 C -8.763146 0.289022 -2.210304 0
M  V30 20 O -8.544176 2.137403 -0.131509 0 CHG=-1 VAL=1
M  V30 21 N -5.639699 -0.728987 -0.459501 0
M  V30 22 C -4.312774 -0.470572 -0.581458 0
M  V30 23 C -3.230329 -1.472925 -0.453178 0
M  V30 24 C -3.048683 -2.169242 0.737819 0
M  V30 25 C -2.004666 -3.094161 0.770738 0
M  V30 26 C -1.178132 -3.323435 -0.316737 0
M  V30 27 F -0.189867 -4.232508 -0.211552 0
M  V30 28 C -1.383624 -2.617667 -1.482661 0
M  V30 29 C -2.404538 -1.696608 -1.551627 0
M  V30 30 C -2.495242 2.099565 -2.202911 0
M  V30 31 C -1.219742 2.643261 -2.318074 0
M  V30 32 N -0.413839 2.547518 -1.245177 0
M  V30 33 C 4.603641 -2.341230 1.530690 0
M  V30 34 O 4.023999 -3.059456 0.478128 0
M  V30 35 C 4.503000 -4.281053 -0.001906 0
M  V30 36 C 5.724305 -2.841972 2.159991 0
M  V30 37 H 7.693421 -2.485957 5.794114 0
M  V30 38 H 8.162771 -1.047758 4.746514 0
M  V30 39 H 9.201077 -2.468546 4.841619 0
M  V30 40 H 6.188792 -0.405699 4.387821 0
M  V30 41 H 4.199339 0.453810 3.248778 0
M  V30 42 H 2.425759 -1.285253 0.370266 0
M  V30 43 H 2.557320 1.098694 2.258084 0
M  V30 44 H 0.578536 2.651824 1.641781 0
M  V30 45 H -2.241110 0.962495 1.022928 0
M  V30 46 H -5.653348 2.415747 -1.047790 0
M  V30 47 H -9.462176 -0.589305 -2.219353 0
M  V30 48 H -9.209820 1.190705 -2.637626 0
M  V30 49 H -7.928722 -0.003684 -2.900309 0
M  V30 50 H -3.685211 -1.999190 1.589620 0
M  V30 51 H -1.904636 -3.612221 1.724495 0
M  V30 52 H -0.712661 -2.825638 -2.316932 0
M  V30 53 H -2.575149 -1.141304 -2.451904 0
M  V30 54 H -3.243006 2.100553 -2.969276 0
M  V30 55 H -0.970308 3.105356 -3.268867 0
M  V30 56 H 5.422389 -4.210540 -0.619165 0
M  V30 57 H 3.673033 -4.782641 -0.565412 0
M  V30 58 H 4.778567 -4.950506 0.865054 0
M  V30 59 H 6.141875 -3.784856 1.831323 0
M  V30 END ATOM
M  V30 BEGIN BOND
M  V30 1 1 1 2
M  V30 2 1 2 3
M  V30 3 2 3 4
M  V30 4 1 4 5
M  V30 5 2 5 6
M  V30 6 1 6 7
M  V30 7 2 7 8
M  V30 8 1 8 9
M  V30 9 2 9 10
M  V30 10 1 9 11
M  V30 11 1 11 12
M  V30 12 2 12 13
M  V30 13 1 13 14
M  V30 14 1 14 15
M  V30 15 1 15 16
M  V30 16 1 16 17
M  V30 17 1 17 18
M  V30 18 1 18 19
M  V30 19 1 18 20
M  V30 20 2 17 21
M  V30 21 1 21 22
M  V30 22 1 22 23
M  V30 23 2 23 24
M  V30 24 1 24 25
M  V30 25 2 25 26
M  V30 26 1 26 27
M  V30 27 1 26 28
M  V30 28 2 28 29
M  V30 29 2 14 30
M  V30 30 1 30 31
M  V30 31 2 31 32
M  V30 32 1 6 33
M  V30 33 1 33 34
M  V30 34 1 34 35
M  V30 35 2 33 36
M  V30 36 1 36 3
M  V30 37 1 32 12
M  V30 38 2 22 15
M  V30 39 1 29 23
M  V30 40 1 1 37
M  V30 41 1 1 38
M  V30 42 1 1 39
M  V30 43 1 4 40
M  V30 44 1 5 41
M  V30 45 1 7 42
M  V30 46 1 8 43
M  V30 47 1 11 44
M  V30 48 1 13 45
M  V30 49 1 16 46
M  V30 50 1 19 47
M  V30 51 1 19 48
M  V30 52 1 19 49
M  V30 53 1 24 50
M  V30 54 1 25 51
M  V30 55 1 28 52
M  V30 56 1 29 53
M  V30 57 1 30 54
M  V30 58 1 31 55
M  V30 59 1 35 56
M  V30 60 1 35 57
M  V30 61 1 35 58
M  V30 62 1 36 59
M  V30 END BOND
M  V30 END CTAB
M  END
>  <Dataset>  (19) 
ChEMBL_Kinases

>  <Ligand_Instance>  (19) 
nan

>  <PDB_ID>  (19) 
nan

>  <Standardized_SMILES>  (19) 
COc1ccc(/C=C/C(=O)Nc2cc(-c3[nH]c([S+](C)[O-])nc3-c3ccc(F)cc3)ccn2)c(OC)c1

>  <Name>  (19) 
nan

>  <Pocket>  (19) 
nan

>  <ATP_Site>  (19) 
nan

>  <Peripheral>  (19) 
nan

>  <Num_H_Atoms_ProtBoundConf>  (19) 
nan

>  <Num_Resolved_Atoms>  (19) 
nan

>  <Num_Not_Resolved_Atoms>  (19) 
nan

$$$$
CHEMBL559401
     RDKit          3D

  0  0  0  0  0  0  0  0  0  0999 V3000
M  V30 BEGIN CTAB
M  V30 COUNTS 54 58 0 0 0
M  V30 BEGIN ATOM
M  V30 1 C 0.180258 0.702362 5.489009 0
M  V30 2 C 1.034517 0.343258 4.323310 0
M  V30 3 C 2.375598 0.037567 4.511921 0
M  V30 4 C 3.150833 -0.292820 3.419091 0
M  V30 5 C 2.625590 -0.327520 2.137184 0
M  V30 6 C 3.409798 -0.670567 0.962826 0
M  V30 7 O 2.930334 -0.703649 -0.214328 0
M  V30 8 N 4.791537 -1.002356 1.021571 0
M  V30 9 C 5.590034 -1.346640 -0.134865 0
M  V30 10 C 6.661368 -2.356624 -0.079825 0
M  V30 11 C 6.981617 -0.862874 -0.284265 0
M  V30 12 C 1.277176 -0.024475 1.913329 0
M  V30 13 C 0.555358 0.297450 3.043321 0
M  V30 14 N -0.822533 0.616766 2.904155 0
M  V30 15 C -1.680969 0.676153 1.771193 0
M  V30 16 C -2.346310 1.822871 1.362321 0
M  V30 17 C -3.171817 1.818966 0.250896 0
M  V30 18 O -3.779005 2.867753 -0.121195 0
M  V30 19 N -3.365095 0.705154 -0.480558 0
M  V30 20 C -4.235939 0.730598 -1.640181 0
M  V30 21 C -2.717138 -0.403884 -0.079013 0
M  V30 22 C -1.878344 -0.484696 1.014379 0
M  V30 23 C -1.439932 -1.776328 1.058522 0
M  V30 24 N -2.004401 -2.429910 0.023788 0
M  V30 25 N -2.777423 -1.611585 -0.669938 0
M  V30 26 C -3.451142 -2.148949 -1.802571 0
M  V30 27 C -2.595714 -2.382501 -2.886413 0
M  V30 28 C -3.060705 -2.901370 -4.074881 0
M  V30 29 C -4.412591 -3.193156 -4.181072 0
M  V30 30 F -5.006684 -3.708292 -5.292839 0
M  V30 31 C -5.268478 -2.968538 -3.121572 0
M  V30 32 C -4.791997 -2.448605 -1.936093 0
M  V30 33 F -5.541230 -2.190528 -0.838482 0
M  V30 34 H -0.765960 0.093641 5.431609 0
M  V30 35 H 0.658143 0.352189 6.433707 0
M  V30 36 H 0.009141 1.773274 5.590483 0
M  V30 37 H 2.841631 0.047372 5.484952 0
M  V30 38 H 4.182480 -0.526222 3.577861 0
M  V30 39 H 5.291869 -1.007786 1.937781 0
M  V30 40 H 5.007818 -1.326554 -1.091732 0
M  V30 41 H 7.031254 -2.822100 0.846050 0
M  V30 42 H 6.841430 -3.002336 -0.970983 0
M  V30 43 H 7.364770 -0.556500 -1.281502 0
M  V30 44 H 7.464270 -0.333161 0.550098 0
M  V30 45 H 0.878998 -0.052721 0.918052 0
M  V30 46 H -1.468728 0.878246 3.677584 0
M  V30 47 H -2.193038 2.720601 1.948556 0
M  V30 48 H -5.275077 0.436018 -1.397902 0
M  V30 49 H -3.818734 0.218861 -2.523567 0
M  V30 50 H -4.326090 1.806810 -1.960492 0
M  V30 51 H -0.757913 -2.159241 1.813745 0
M  V30 52 H -1.523677 -2.180960 -2.884284 0
M  V30 53 H -2.436180 -3.093621 -4.925978 0
M  V30 54 H -6.332018 -3.172293 -3.134063 0
M  V30 END ATOM
M  V30 BEGIN BOND
M  V30 1 1 1 2
M  V30 2 2 2 3
M  V30 3 1 3 4
M  V30 4 2 4 5
M  V30 5 1 5 6
M  V30 6 2 6 7
M  V30 7 1 6 8
M  V30 8 1 8 9
M  V30 9 1 9 10
M  V30 10 1 10 11
M  V30 11 1 5 12
M  V30 12 2 12 13
M  V30 13 1 13 14
M  V30 14 1 14 15
M  V30 15 2 15 16
M  V30 16 1 16 17
M  V30 17 2 17 18
M  V30 18 1 17 19
M  V30 19 1 19 20
M  V30 20 1 19 21
M  V30 21 2 21 22
M  V30 22 1 22 23
M  V30 23 2 23 24
M  V30 24 1 24 25
M  V30 25 1 25 26
M  V30 26 2 26 27
M  V30 27 1 27 28
M  V30 28 2 28 29
M  V30 29 1 29 30
M  V30 30 1 29 31
M  V30 31 2 31 32
M  V30 32 1 32 33
M  V30 33 1 13 2
M  V30 34 1 22 15
M  V30 35 1 32 26
M  V30 36 1 11 9
M  V30 37 1 25 21
M  V30 38 1 1 34
M  V30 39 1 1 35
M  V30 40 1 1 36
M  V30 41 1 3 37
M  V30 42 1 4 38
M  V30 43 1 8 39
M  V30 44 1 9 40
M  V30 45 1 10 41
M  V30 46 1 10 42
M  V30 47 1 11 43
M  V30 48 1 11 44
M  V30 49 1 12 45
M  V30 50 1 14 46
M  V30 51 1 16 47
M  V30 52 1 20 48
M  V30 53 1 20 49
M  V30 54 1 20 50
M  V30 55 1 23 51
M  V30 56 1 27 52
M  V30 57 1 28 53
M  V30 58 1 31 54
M  V30 END BOND
M  V30 END CTAB
M  END
>  <Dataset>  (20) 
ChEMBL_Kinases

>  <Ligand_Instance>  (20) 
nan

>  <PDB_ID>  (20) 
nan

>  <Standardized_SMILES>  (20) 
Cc1ccc(C(=O)NC2CC2)cc1Nc1cc(=O)n(C)c2c1cnn2-c1ccc(F)cc1F

>  <Name>  (20) 
nan

>  <Pocket>  (20) 
nan

>  <ATP_Site>  (20) 
nan

>  <Peripheral>  (20) 
nan

>  <Num_H_Atoms_ProtBoundConf>  (20) 
nan

>  <Num_Resolved_Atoms>  (20) 
nan

>  <Num_Not_Resolved_Atoms>  (20) 
nan

$$$$
CHEMBL559403
     RDKit          3D

  0  0  0  0  0  0  0  0  0  0999 V3000
M  V30 BEGIN CTAB
M  V30 COUNTS 54 58 0 0 0
M  V30 BEGIN ATOM
M  V30 1 C -1.480890 1.364786 -2.040734 0
M  V30 2 C -0.109106 1.448768 -1.499715 0
M  V30 3 C 0.998918 1.410603 -2.325190 0
M  V30 4 C 2.284510 1.488406 -1.829728 0
M  V30 5 C 2.486890 1.609691 -0.453879 0
M  V30 6 C 3.773993 1.703260 0.229355 0
M  V30 7 O 3.934990 1.812977 1.473599 0
M  V30 8 N 4.991830 1.674875 -0.506419 0
M  V30 9 C 6.324641 1.758698 0.046437 0
M  V30 10 C 7.436855 2.358122 -0.695896 0
M  V30 11 C 7.396071 0.841406 -0.487684 0
M  V30 12 C 1.352460 1.643726 0.331258 0
M  V30 13 C 0.054161 1.568293 -0.131747 0
M  V30 14 N -1.067618 1.610073 0.742020 0
M  V30 15 C -2.068977 0.600714 0.903928 0
M  V30 16 C -3.403489 0.848465 0.655312 0
M  V30 17 C -4.311969 -0.173750 0.833260 0
M  V30 18 O -5.529286 0.102418 0.591838 0
M  V30 19 N -3.970245 -1.429778 1.244635 0
M  V30 20 C -4.957678 -2.463775 1.415736 0
M  V30 21 C -2.656072 -1.610841 1.471117 0
M  V30 22 C -1.673273 -0.654296 1.322122 0
M  V30 23 C -0.493957 -1.266882 1.656555 0
M  V30 24 N -0.776896 -2.528254 1.986917 0
M  V30 25 N -2.090911 -2.762148 1.881457 0
M  V30 26 C -2.549242 -4.069869 2.202062 0
M  V30 27 C -3.225090 -4.527954 3.313782 0
M  V30 28 C -3.567194 -5.860661 3.401926 0
M  V30 29 C -3.261359 -6.764115 2.420079 0
M  V30 30 C -2.589328 -6.333712 1.303869 0
M  V30 31 F -2.294224 -7.241443 0.340907 0
M  V30 32 C -2.247269 -5.012333 1.210879 0
M  V30 33 H -2.150614 2.152000 -1.612271 0
M  V30 34 H -1.489841 1.574164 -3.150496 0
M  V30 35 H -1.979830 0.403333 -1.906058 0
M  V30 36 H 0.907277 1.318240 -3.394122 0
M  V30 37 H 3.178999 1.463777 -2.422660 0
M  V30 38 H 5.017001 1.587589 -1.546514 0
M  V30 39 H 6.358843 1.853253 1.152288 0
M  V30 40 H 8.258169 2.882011 -0.165748 0
M  V30 41 H 7.345801 2.704282 -1.742337 0
M  V30 42 H 8.131176 0.391269 0.194026 0
M  V30 43 H 7.112850 0.219658 -1.368910 0
M  V30 44 H 1.439429 1.736916 1.411702 0
M  V30 45 H -1.155473 2.489818 1.328009 0
M  V30 46 H -3.730841 1.823074 0.327890 0
M  V30 47 H -5.885604 -2.107306 0.888154 0
M  V30 48 H -4.679046 -3.450364 1.050295 0
M  V30 49 H -5.188141 -2.557084 2.508937 0
M  V30 50 H 0.476756 -0.789451 1.645627 0
M  V30 51 H -3.419474 -3.739567 4.030268 0
M  V30 52 H -4.094586 -6.079953 4.328902 0
M  V30 53 H -3.560438 -7.782915 2.560200 0
M  V30 54 H -1.712702 -4.761667 0.283460 0
M  V30 END ATOM
M  V30 BEGIN BOND
M  V30 1 1 1 2
M  V30 2 2 2 3
M  V30 3 1 3 4
M  V30 4 2 4 5
M  V30 5 1 5 6
M  V30 6 2 6 7
M  V30 7 1 6 8
M  V30 8 1 8 9
M  V30 9 1 9 10
M  V30 10 1 10 11
M  V30 11 1 5 12
M  V30 12 2 12 13
M  V30 13 1 13 14
M  V30 14 1 14 15
M  V30 15 2 15 16
M  V30 16 1 16 17
M  V30 17 2 17 18
M  V30 18 1 17 19
M  V30 19 1 19 20
M  V30 20 1 19 21
M  V30 21 2 21 22
M  V30 22 1 22 23
M  V30 23 2 23 24
M  V30 24 1 24 25
M  V30 25 1 25 26
M  V30 26 2 26 27
M  V30 27 1 27 28
M  V30 28 2 28 29
M  V30 29 1 29 30
M  V30 30 1 30 31
M  V30 31 2 30 32
M  V30 32 1 13 2
M  V30 33 1 22 15
M  V30 34 1 32 26
M  V30 35 1 11 9
M  V30 36 1 25 21
M  V30 37 1 1 33
M  V30 38 1 1 34
M  V30 39 1 1 35
M  V30 40 1 3 36
M  V30 41 1 4 37
M  V30 42 1 8 38
M  V30 43 1 9 39
M  V30 44 1 10 40
M  V30 45 1 10 41
M  V30 46 1 11 42
M  V30 47 1 11 43
M  V30 48 1 12 44
M  V30 49 1 14 45
M  V30 50 1 16 46
M  V30 51 1 20 47
M  V30 52 1 20 48
M  V30 53 1 20 49
M  V30 54 1 23 50
M  V30 55 1 27 51
M  V30 56 1 28 52
M  V30 57 1 29 53
M  V30 58 1 32 54
M  V30 END BOND
M  V30 END CTAB
M  END
>  <Dataset>  (21) 
ChEMBL_Kinases

>  <Ligand_Instance>  (21) 
nan

>  <PDB_ID>  (21) 
nan

>  <Standardized_SMILES>  (21) 
Cc1ccc(C(=O)NC2CC2)cc1Nc1cc(=O)n(C)c2c1cnn2-c1cccc(F)c1

>  <Name>  (21) 
nan

>  <Pocket>  (21) 
nan

>  <ATP_Site>  (21) 
nan

>  <Peripheral>  (21) 
nan

>  <Num_H_Atoms_ProtBoundConf>  (21) 
nan

>  <Num_Resolved_Atoms>  (21) 
nan

>  <Num_Not_Resolved_Atoms>  (21) 
nan

$$$$
CHEMBL558711
     RDKit          3D

  0  0  0  0  0  0  0  0  0  0999 V3000
M  V30 BEGIN CTAB
M  V30 COUNTS 50 54 0 0 0
M  V30 BEGIN ATOM
M  V30 1 C 1.735532 -3.960202 -0.972658 0
M  V30 2 N 1.040882 -2.941408 -0.215590 0
M  V30 3 C 1.628016 -1.755455 0.124152 0
M  V30 4 O 2.813493 -1.662118 -0.289951 0
M  V30 5 C 0.890351 -0.807149 0.862858 0
M  V30 6 C -0.441641 -1.041726 1.265556 0
M  V30 7 O -0.789220 0.029575 1.911099 0
M  V30 8 C -1.567542 1.092986 1.992666 0
M  V30 9 C -0.617842 2.145310 1.944670 0
M  V30 10 C -0.956333 3.500737 1.999308 0
M  V30 11 C -0.108194 4.682860 1.961729 0
M  V30 12 O -0.501492 5.873713 2.016706 0
M  V30 13 N 1.299383 4.614730 1.855535 0
M  V30 14 C 2.169700 5.787692 1.816098 0
M  V30 15 C 3.591293 5.657245 2.150585 0
M  V30 16 C 3.261049 5.703324 0.706415 0
M  V30 17 C -2.311875 3.836633 2.107718 0
M  V30 18 C -3.272848 2.855667 2.158451 0
M  V30 19 C -2.849597 1.555717 2.098868 0
M  V30 20 Cl -4.004698 0.281332 2.172629 0
M  V30 21 C -0.886814 -2.270786 0.851692 0
M  V30 22 C -2.149178 -2.718302 1.143516 0
M  V30 23 N -2.228559 -3.942275 0.597118 0
M  V30 24 N -1.073088 -4.233151 0.000427 0
M  V30 25 C -0.825193 -5.456791 -0.676676 0
M  V30 26 C -0.617683 -6.631052 0.057183 0
M  V30 27 C -0.374582 -7.844915 -0.578281 0
M  V30 28 F -0.171021 -8.993870 0.114378 0
M  V30 29 C -0.329231 -7.935651 -1.950974 0
M  V30 30 C -0.531240 -6.790196 -2.688749 0
M  V30 31 C -0.768764 -5.606614 -2.047070 0
M  V30 32 F -0.961673 -4.516988 -2.813227 0
M  V30 33 C -0.204989 -3.220251 0.134003 0
M  V30 34 H 1.653582 -4.970739 -0.586691 0
M  V30 35 H 1.537226 -3.842876 -2.066116 0
M  V30 36 H 2.835559 -3.708739 -0.886896 0
M  V30 37 H 1.563606 0.034559 1.005185 0
M  V30 38 H 0.470250 2.166076 1.863981 0
M  V30 39 H 1.804035 3.691322 1.798060 0
M  V30 40 H 1.653114 6.763898 1.875655 0
M  V30 41 H 3.915818 4.711755 2.619934 0
M  V30 42 H 4.093412 6.576927 2.549342 0
M  V30 43 H 3.302739 4.760612 0.118872 0
M  V30 44 H 3.438861 6.613045 0.109210 0
M  V30 45 H -2.698653 4.852666 2.157990 0
M  V30 46 H -4.328738 3.032956 2.241138 0
M  V30 47 H -2.944365 -2.274568 1.680979 0
M  V30 48 H -0.636755 -6.647434 1.138009 0
M  V30 49 H -0.144642 -8.850526 -2.494951 0
M  V30 50 H -0.499928 -6.838992 -3.764623 0
M  V30 END ATOM
M  V30 BEGIN BOND
M  V30 1 1 1 2
M  V30 2 1 2 3
M  V30 3 2 3 4
M  V30 4 1 3 5
M  V30 5 2 5 6
M  V30 6 1 6 7
M  V30 7 1 7 8
M  V30 8 2 8 9
M  V30 9 1 9 10
M  V30 10 1 10 11
M  V30 11 2 11 12
M  V30 12 1 11 13
M  V30 13 1 13 14
M  V30 14 1 14 15
M  V30 15 1 15 16
M  V30 16 2 10 17
M  V30 17 1 17 18
M  V30 18 2 18 19
M  V30 19 1 19 20
M  V30 20 1 6 21
M  V30 21 1 21 22
M  V30 22 2 22 23
M  V30 23 1 23 24
M  V30 24 1 24 25
M  V30 25 2 25 26
M  V30 26 1 26 27
M  V30 27 1 27 28
M  V30 28 2 27 29
M  V30 29 1 29 30
M  V30 30 2 30 31
M  V30 31 1 31 32
M  V30 32 1 24 33
M  V30 33 1 33 2
M  V30 34 1 19 8
M  V30 35 2 33 21
M  V30 36 1 16 14
M  V30 37 1 31 25
M  V30 38 1 1 34
M  V30 39 1 1 35
M  V30 40 1 1 36
M  V30 41 1 5 37
M  V30 42 1 9 38
M  V30 43 1 13 39
M  V30 44 1 14 40
M  V30 45 1 15 41
M  V30 46 1 15 42
M  V30 47 1 16 43
M  V30 48 1 16 44
M  V30 49 1 17 45
M  V30 50 1 18 46
M  V30 51 1 22 47
M  V30 52 1 26 48
M  V30 53 1 29 49
M  V30 54 1 30 50
M  V30 END BOND
M  V30 END CTAB
M  END
>  <Dataset>  (22) 
ChEMBL_Kinases

>  <Ligand_Instance>  (22) 
nan

>  <PDB_ID>  (22) 
nan

>  <Standardized_SMILES>  (22) 
Cn1c(=O)cc(Oc2cc(C(=O)NC3CC3)ccc2Cl)c2cnn(-c3cc(F)ccc3F)c21

>  <Name>  (22) 
nan

>  <Pocket>  (22) 
nan

>  <ATP_Site>  (22) 
nan

>  <Peripheral>  (22) 
nan

>  <Num_H_Atoms_ProtBoundConf>  (22) 
nan

>  <Num_Resolved_Atoms>  (22) 
nan

>  <Num_Not_Resolved_Atoms>  (22) 
nan

$$$$
CHEMBL3727996
     RDKit          3D

  0  0  0  0  0  0  0  0  0  0999 V3000
M  V30 BEGIN CTAB
M  V30 COUNTS 33 34 0 0 0
M  V30 BEGIN ATOM
M  V30 1 O -1.466328 -0.931943 2.835918 0
M  V30 2 C -0.246497 -0.761117 2.537001 0
M  V30 3 C 0.606489 -1.617702 3.353763 0
M  V30 4 N 2.007473 -1.540786 3.114675 0
M  V30 5 C 2.588857 -1.925765 1.877766 0
M  V30 6 C 1.902922 -2.418171 0.788067 0
M  V30 7 C 2.517527 -2.778100 -0.392770 0
M  V30 8 C 3.882100 -2.656525 -0.535308 0
M  V30 9 Br 4.690986 -3.162956 -2.177539 0
M  V30 10 C 4.630428 -2.170596 0.515470 0
M  V30 11 C 3.960888 -1.826887 1.671537 0
M  V30 12 N 0.036872 0.183037 1.518039 0
M  V30 13 N -1.007340 0.876310 0.888552 0
M  V30 14 C -1.703829 0.386631 -0.063724 0
M  V30 15 C -2.817940 0.991297 -0.810841 0
M  V30 16 C -3.480202 0.327967 -1.826935 0
M  V30 17 C -4.514472 1.000620 -2.458190 0
M  V30 18 N -4.876142 2.259168 -2.106590 0
M  V30 19 C -4.195892 2.862214 -1.106696 0
M  V30 20 C -3.150452 2.289647 -0.408584 0
M  V30 21 H 0.254169 -2.680707 3.195719 0
M  V30 22 H 0.369408 -1.419103 4.435121 0
M  V30 23 H 2.628290 -1.195257 3.858560 0
M  V30 24 H 0.828942 -2.521149 0.880617 0
M  V30 25 H 1.949440 -3.158430 -1.221292 0
M  V30 26 H 5.690279 -2.063088 0.439978 0
M  V30 27 H 4.577607 -1.448665 2.477586 0
M  V30 28 H 1.061342 0.270349 1.335285 0
M  V30 29 H -1.414724 -0.636765 -0.354392 0
M  V30 30 H -3.164079 -0.675099 -2.080018 0
M  V30 31 H -5.044581 0.489703 -3.260318 0
M  V30 32 H -4.528591 3.872687 -0.865627 0
M  V30 33 H -2.631971 2.797109 0.380278 0
M  V30 END ATOM
M  V30 BEGIN BOND
M  V30 1 2 1 2
M  V30 2 1 2 3
M  V30 3 1 3 4
M  V30 4 1 4 5
M  V30 5 2 5 6
M  V30 6 1 6 7
M  V30 7 2 7 8
M  V30 8 1 8 9
M  V30 9 1 8 10
M  V30 10 2 10 11
M  V30 11 1 2 12
M  V30 12 1 12 13
M  V30 13 2 13 14
M  V30 14 1 14 15
M  V30 15 2 15 16
M  V30 16 1 16 17
M  V30 17 2 17 18
M  V30 18 1 18 19
M  V30 19 2 19 20
M  V30 20 1 11 5
M  V30 21 1 20 15
M  V30 22 1 3 21
M  V30 23 1 3 22
M  V30 24 1 4 23
M  V30 25 1 6 24
M  V30 26 1 7 25
M  V30 27 1 10 26
M  V30 28 1 11 27
M  V30 29 1 12 28
M  V30 30 1 14 29
M  V30 31 1 16 30
M  V30 32 1 17 31
M  V30 33 1 19 32
M  V30 34 1 20 33
M  V30 END BOND
M  V30 END CTAB
M  END
>  <Dataset>  (23) 
ChEMBL_Kinases

>  <Ligand_Instance>  (23) 
nan

>  <PDB_ID>  (23) 
nan

>  <Standardized_SMILES>  (23) 
O=C(CNc1ccc(Br)cc1)N/N=C/c1ccncc1

>  <Name>  (23) 
nan

>  <Pocket>  (23) 
nan

>  <ATP_Site>  (23) 
nan

>  <Peripheral>  (23) 
nan

>  <Num_H_Atoms_ProtBoundConf>  (23) 
nan

>  <Num_Resolved_Atoms>  (23) 
nan

>  <Num_Not_Resolved_Atoms>  (23) 
nan

$$$$
CHEMBL3727971
     RDKit          3D

  0  0  0  0  0  0  0  0  0  0999 V3000
M  V30 BEGIN CTAB
M  V30 COUNTS 52 56 0 0 0
M  V30 BEGIN ATOM
M  V30 1 O 3.093958 0.976947 2.242316 0
M  V30 2 C 3.503656 0.037701 2.932746 0
M  V30 3 N 4.874060 -0.083360 3.196722 0
M  V30 4 C 5.949137 0.739201 2.782548 0
M  V30 5 C 5.876668 1.868515 2.008379 0
M  V30 6 C 6.949664 2.642857 1.626579 0
M  V30 7 C 8.215760 2.283246 2.038106 0
M  V30 8 C 8.322086 1.151856 2.818178 0
M  V30 9 C 7.225918 0.410246 3.174743 0
M  V30 10 N 2.514849 -0.844603 3.398885 0
M  V30 11 C 1.134859 -0.666227 3.094794 0
M  V30 12 C 0.628747 -1.259311 1.956620 0
M  V30 13 C -0.676926 -1.139911 1.591922 0
M  V30 14 C -1.292494 -1.745355 0.388263 0
M  V30 15 N -2.573752 -1.560400 0.136062 0
M  V30 16 C -3.087878 -2.124235 -0.959931 0
M  V30 17 N -4.409313 -2.063167 -1.422213 0
M  V30 18 C -5.236651 -1.274340 -0.542418 0 CFG=2
M  V30 19 C -6.661179 -1.256913 -1.107686 0
M  V30 20 C -6.575954 -0.210862 -2.169010 0
M  V30 21 N -5.433633 0.607070 -1.897826 0
M  V30 22 C -4.883367 0.179192 -0.634206 0
M  V30 23 C -2.229744 -2.852493 -1.733308 0
M  V30 24 S -2.486278 -3.797733 -3.315254 0
M  V30 25 C -0.696018 -4.392063 -3.486560 0
M  V30 26 C -0.062903 -3.820149 -2.327783 0
M  V30 27 C -0.794418 -3.076326 -1.476715 0
M  V30 28 N -0.425054 -2.453704 -0.350153 0
M  V30 29 C -1.542905 -0.406060 2.370673 0
M  V30 30 C -1.018788 0.188239 3.518346 0
M  V30 31 N 0.290443 0.064710 3.878111 0
M  V30 32 H 5.083370 -0.921266 3.791882 0
M  V30 33 H 4.914925 2.199870 1.656398 0
M  V30 34 H 6.815385 3.520615 1.014503 0
M  V30 35 H 9.057694 2.874484 1.749595 0
M  V30 36 H 9.290913 0.823696 3.168981 0
M  V30 37 H 7.384234 -0.482934 3.800441 0
M  V30 38 H 2.805700 -1.669505 3.996112 0
M  V30 39 H 1.244919 -1.861909 1.277103 0
M  V30 40 H -4.771796 -2.517060 -2.282154 0
M  V30 41 H -5.228400 -1.643301 0.497815 0
M  V30 42 H -6.867687 -2.244776 -1.580444 0
M  V30 43 H -7.377334 -1.022806 -0.300487 0
M  V30 44 H -6.475288 -0.686192 -3.164307 0
M  V30 45 H -7.533848 0.367195 -2.190577 0
M  V30 46 H -4.738201 0.675948 -2.651216 0
M  V30 47 H -5.438087 0.735205 0.166627 0
M  V30 48 H -3.802942 0.352419 -0.561587 0
M  V30 49 H -0.175331 -5.009679 -4.229795 0
M  V30 50 H 0.981764 -4.014330 -2.189797 0
M  V30 51 H -2.594969 -0.262299 2.150931 0
M  V30 52 H -1.703229 0.767514 4.132731 0
M  V30 END ATOM
M  V30 BEGIN BOND
M  V30 1 2 1 2
M  V30 2 1 2 3
M  V30 3 1 3 4
M  V30 4 2 4 5
M  V30 5 1 5 6
M  V30 6 2 6 7
M  V30 7 1 7 8
M  V30 8 2 8 9
M  V30 9 1 2 10
M  V30 10 1 10 11
M  V30 11 2 11 12
M  V30 12 1 12 13
M  V30 13 1 13 14
M  V30 14 2 14 15
M  V30 15 1 15 16
M  V30 16 1 16 17
M  V30 17 1 17 18
M  V30 18 1 18 19
M  V30 19 1 19 20
M  V30 20 1 20 21
M  V30 21 1 21 22
M  V30 22 2 16 23
M  V30 23 1 23 24
M  V30 24 1 24 25
M  V30 25 2 25 26
M  V30 26 1 26 27
M  V30 27 2 27 28
M  V30 28 2 13 29
M  V30 29 1 29 30
M  V30 30 2 30 31
M  V30 31 1 9 4
M  V30 32 1 31 11
M  V30 33 1 28 14
M  V30 34 1 22 18
M  V30 35 1 27 23
M  V30 36 1 3 32
M  V30 37 1 5 33
M  V30 38 1 6 34
M  V30 39 1 7 35
M  V30 40 1 8 36
M  V30 41 1 9 37
M  V30 42 1 10 38
M  V30 43 1 12 39
M  V30 44 1 17 40
M  V30 45 1 18 41 CFG=1
M  V30 46 1 19 42
M  V30 47 1 19 43
M  V30 48 1 20 44
M  V30 49 1 20 45
M  V30 50 1 21 46
M  V30 51 1 22 47
M  V30 52 1 22 48
M  V30 53 1 25 49
M  V30 54 1 26 50
M  V30 55 1 29 51
M  V30 56 1 30 52
M  V30 END BOND
M  V30 END CTAB
M  END
>  <Dataset>  (24) 
ChEMBL_Kinases

>  <Ligand_Instance>  (24) 
nan

>  <PDB_ID>  (24) 
nan

>  <Standardized_SMILES>  (24) 
O=C(Nc1ccccc1)Nc1cc(-c2nc(N[C@@H]3CCNC3)c3sccc3n2)ccn1

>  <Name>  (24) 
nan

>  <Pocket>  (24) 
nan

>  <ATP_Site>  (24) 
nan

>  <Peripheral>  (24) 
nan

>  <Num_H_Atoms_ProtBoundConf>  (24) 
nan

>  <Num_Resolved_Atoms>  (24) 
nan

>  <Num_Not_Resolved_Atoms>  (24) 
nan

$$$$
CHEMBL3727963
     RDKit          3D

  0  0  0  0  0  0  0  0  0  0999 V3000
M  V30 BEGIN CTAB
M  V30 COUNTS 33 34 0 0 0
M  V30 BEGIN ATOM
M  V30 1 O 0.519288 -1.347439 4.389841 0
M  V30 2 C 0.477577 -2.002553 3.279737 0
M  V30 3 C 0.635560 -3.385199 2.692462 0
M  V30 4 N 0.427926 -3.441652 1.279908 0
M  V30 5 C 1.153612 -2.933787 0.177850 0
M  V30 6 C 2.363792 -2.242307 0.272525 0
M  V30 7 C 3.094680 -1.726539 -0.766515 0
M  V30 8 C 2.522244 -1.944836 -2.023192 0
M  V30 9 F 3.136355 -1.494067 -3.168087 0
M  V30 10 C 1.327807 -2.620441 -2.205736 0
M  V30 11 C 0.655799 -3.107881 -1.117473 0
M  V30 12 N 0.189934 -0.804049 2.632892 0
M  V30 13 N -0.081870 0.353679 2.051114 0
M  V30 14 C -0.931391 1.011333 1.523788 0
M  V30 15 C -1.734756 1.987730 0.870433 0
M  V30 16 C -1.088025 2.518796 -0.268520 0
M  V30 17 Cl 0.529323 1.922790 -0.730966 0
M  V30 18 C -1.599729 3.486129 -1.104108 0
M  V30 19 N -2.781773 3.848145 -0.691686 0
M  V30 20 C -3.522111 3.476662 0.319512 0
M  V30 21 C -2.970717 2.496791 1.142795 0
M  V30 22 Cl -3.744550 1.827623 2.578348 0
M  V30 23 H -0.028224 -4.043894 3.231083 0
M  V30 24 H 1.686239 -3.734334 2.933275 0
M  V30 25 H -0.446055 -3.965201 1.038511 0
M  V30 26 H 2.667405 -2.163818 1.323298 0
M  V30 27 H 4.012107 -1.208163 -0.660601 0
M  V30 28 H 0.878418 -2.794655 -3.186492 0
M  V30 29 H -0.276251 -3.633380 -1.234544 0
M  V30 30 H 0.106352 -1.190360 1.599690 0
M  V30 31 H -1.690755 0.215251 1.606268 0
M  V30 32 H -1.045928 3.831278 -1.955713 0
M  V30 33 H -4.501303 3.826278 0.605411 0
M  V30 END ATOM
M  V30 BEGIN BOND
M  V30 1 2 1 2
M  V30 2 1 2 3
M  V30 3 1 3 4
M  V30 4 1 4 5
M  V30 5 2 5 6
M  V30 6 1 6 7
M  V30 7 2 7 8
M  V30 8 1 8 9
M  V30 9 1 8 10
M  V30 10 2 10 11
M  V30 11 1 2 12
M  V30 12 1 12 13
M  V30 13 2 13 14
M  V30 14 1 14 15
M  V30 15 2 15 16
M  V30 16 1 16 17
M  V30 17 1 16 18
M  V30 18 2 18 19
M  V30 19 1 19 20
M  V30 20 2 20 21
M  V30 21 1 21 22
M  V30 22 1 11 5
M  V30 23 1 21 15
M  V30 24 1 3 23
M  V30 25 1 3 24
M  V30 26 1 4 25
M  V30 27 1 6 26
M  V30 28 1 7 27
M  V30 29 1 10 28
M  V30 30 1 11 29
M  V30 31 1 12 30
M  V30 32 1 14 31
M  V30 33 1 18 32
M  V30 34 1 20 33
M  V30 END BOND
M  V30 END CTAB
M  END
>  <Dataset>  (25) 
ChEMBL_Kinases

>  <Ligand_Instance>  (25) 
nan

>  <PDB_ID>  (25) 
nan

>  <Standardized_SMILES>  (25) 
O=C(CNc1ccc(F)cc1)N/N=C/c1c(Cl)cncc1Cl

>  <Name>  (25) 
nan

>  <Pocket>  (25) 
nan

>  <ATP_Site>  (25) 
nan

>  <Peripheral>  (25) 
nan

>  <Num_H_Atoms_ProtBoundConf>  (25) 
nan

>  <Num_Resolved_Atoms>  (25) 
nan

>  <Num_Not_Resolved_Atoms>  (25) 
nan

$$$$
CHEMBL3727962
     RDKit          3D

  0  0  0  0  0  0  0  0  0  0999 V3000
M  V30 BEGIN CTAB
M  V30 COUNTS 40 41 0 0 0
M  V30 BEGIN ATOM
M  V30 1 C 0.268000 -4.011779 2.025451 0
M  V30 2 C 0.481066 -3.250350 0.748484 0
M  V30 3 O -0.487845 -2.562117 0.275695 0
M  V30 4 N 1.674191 -3.205595 -0.016516 0
M  V30 5 C 1.426709 -2.368544 -1.136861 0
M  V30 6 C 0.920421 -2.950743 -2.272419 0
M  V30 7 C 0.644353 -2.228683 -3.425426 0
M  V30 8 C 0.916374 -0.865887 -3.356931 0
M  V30 9 C 1.430780 -0.198010 -2.245011 0
M  V30 10 N 1.692933 1.197326 -2.274714 0
M  V30 11 C 2.187878 1.857959 -1.109413 0
M  V30 12 C 1.195685 1.876922 0.000291 0
M  V30 13 O 0.096702 1.308217 -0.322699 0
M  V30 14 N 1.445595 2.460280 1.270046 0
M  V30 15 N 0.288263 2.298369 2.067521 0
M  V30 16 C -0.125204 1.125560 2.410146 0
M  V30 17 C -1.295504 0.899996 3.221412 0
M  V30 18 C -2.600105 0.609925 2.878086 0
M  V30 19 Cl -2.858148 0.490337 1.159350 0
M  V30 20 C -3.529518 0.450380 3.884836 0
M  V30 21 N -3.241012 0.561471 5.181946 0
M  V30 22 C -1.970199 0.846429 5.552144 0
M  V30 23 C -1.013051 1.011545 4.570845 0
M  V30 24 Cl 0.575795 1.375388 5.240800 0
M  V30 25 C 1.664733 -1.014025 -1.159426 0
M  V30 26 H 0.187079 -5.081652 1.755725 0
M  V30 27 H 1.078781 -3.799629 2.750352 0
M  V30 28 H -0.681682 -3.674902 2.475637 0
M  V30 29 H 2.486476 -3.774283 0.370600 0
M  V30 30 H 0.725180 -4.022656 -2.276681 0
M  V30 31 H 0.246501 -2.655294 -4.321297 0
M  V30 32 H 0.703122 -0.276395 -4.261269 0
M  V30 33 H 1.514473 1.706212 -3.152520 0
M  V30 34 H 2.424033 2.913042 -1.349999 0
M  V30 35 H 3.112627 1.386348 -0.733432 0
M  V30 36 H 2.385561 2.859286 1.336606 0
M  V30 37 H 0.484881 0.284420 2.038905 0
M  V30 38 H -4.513471 0.228085 3.536598 0
M  V30 39 H -1.808853 0.923150 6.617620 0
M  V30 40 H 2.069878 -0.578551 -0.248654 0
M  V30 END ATOM
M  V30 BEGIN BOND
M  V30 1 1 1 2
M  V30 2 2 2 3
M  V30 3 1 2 4
M  V30 4 1 4 5
M  V30 5 2 5 6
M  V30 6 1 6 7
M  V30 7 2 7 8
M  V30 8 1 8 9
M  V30 9 1 9 10
M  V30 10 1 10 11
M  V30 11 1 11 12
M  V30 12 2 12 13
M  V30 13 1 12 14
M  V30 14 1 14 15
M  V30 15 2 15 16
M  V30 16 1 16 17
M  V30 17 2 17 18
M  V30 18 1 18 19
M  V30 19 1 18 20
M  V30 20 2 20 21
M  V30 21 1 21 22
M  V30 22 2 22 23
M  V30 23 1 23 24
M  V30 24 2 9 25
M  V30 25 1 25 5
M  V30 26 1 23 17
M  V30 27 1 1 26
M  V30 28 1 1 27
M  V30 29 1 1 28
M  V30 30 1 4 29
M  V30 31 1 6 30
M  V30 32 1 7 31
M  V30 33 1 8 32
M  V30 34 1 10 33
M  V30 35 1 11 34
M  V30 36 1 11 35
M  V30 37 1 14 36
M  V30 38 1 16 37
M  V30 39 1 20 38
M  V30 40 1 22 39
M  V30 41 1 25 40
M  V30 END BOND
M  V30 END CTAB
M  END
>  <Dataset>  (26) 
ChEMBL_Kinases

>  <Ligand_Instance>  (26) 
nan

>  <PDB_ID>  (26) 
nan

>  <Standardized_SMILES>  (26) 
CC(=O)Nc1cccc(NCC(=O)N/N=C/c2c(Cl)cncc2Cl)c1

>  <Name>  (26) 
nan

>  <Pocket>  (26) 
nan

>  <ATP_Site>  (26) 
nan

>  <Peripheral>  (26) 
nan

>  <Num_H_Atoms_ProtBoundConf>  (26) 
nan

>  <Num_Resolved_Atoms>  (26) 
nan

>  <Num_Not_Resolved_Atoms>  (26) 
nan

$$$$
CHEMBL3727961
     RDKit          3D

  0  0  0  0  0  0  0  0  0  0999 V3000
M  V30 BEGIN CTAB
M  V30 COUNTS 53 57 0 0 0
M  V30 BEGIN ATOM
M  V30 1 N 0.832913 -3.958021 5.355406 0
M  V30 2 C 0.989144 -3.363906 4.006299 0 CFG=2
M  V30 3 C 0.283680 -2.040340 4.082673 0
M  V30 4 N 0.272494 -1.207949 2.957028 0
M  V30 5 C 0.261562 -0.364839 1.816884 0
M  V30 6 N 1.260147 0.162915 1.097397 0
M  V30 7 C 0.918238 0.942883 0.068832 0
M  V30 8 C 2.050112 1.504221 -0.687019 0
M  V30 9 C 3.340067 1.209481 -0.309849 0
M  V30 10 C 4.370893 1.769763 -1.059363 0
M  V30 11 N 4.077527 2.561718 -2.102502 0
M  V30 12 C 2.792220 2.832751 -2.448356 0
M  V30 13 C 1.727072 2.310314 -1.748587 0
M  V30 14 F 0.448877 2.579977 -2.092898 0
M  V30 15 N -0.336514 1.182058 -0.225070 0
M  V30 16 C -1.403471 0.710666 0.420804 0
M  V30 17 C -2.668432 1.026154 0.031580 0
M  V30 18 C -3.191800 1.849955 -1.039361 0
M  V30 19 C -2.604563 3.073948 -1.208032 0
M  V30 20 N -3.087262 3.861061 -2.212133 0
M  V30 21 C -4.096896 3.428928 -2.988205 0
M  V30 22 N -4.639349 2.238140 -2.794187 0
M  V30 23 C -4.221832 1.404206 -1.827798 0
M  V30 24 C -3.648589 0.405967 0.879564 0
M  V30 25 S -2.661824 -0.560041 2.140141 0
M  V30 26 C -1.113040 -0.094501 1.483903 0
M  V30 27 C 0.390481 -4.358269 3.073435 0
M  V30 28 C 0.393280 -4.051211 1.655130 0
M  V30 29 C 1.489860 -4.358273 0.838413 0
M  V30 30 C 1.455078 -4.074374 -0.532266 0
M  V30 31 C 0.339108 -3.484826 -1.111197 0
M  V30 32 C -0.773479 -3.158808 -0.357302 0
M  V30 33 C -0.651693 -3.471815 0.971470 0
M  V30 34 H 1.769670 -4.335273 5.612173 0
M  V30 35 H 0.132274 -4.712060 5.331029 0
M  V30 36 H 2.055200 -3.172749 3.832102 0
M  V30 37 H 0.555569 -1.466672 5.022612 0
M  V30 38 H -0.799619 -2.348969 4.368803 0
M  V30 39 H 1.344606 -1.279135 3.042775 0
M  V30 40 H 3.550827 0.568469 0.535045 0
M  V30 41 H 5.361206 1.511604 -0.728050 0
M  V30 42 H 2.583070 3.478491 -3.299354 0
M  V30 43 H -1.777926 3.438009 -0.579813 0
M  V30 44 H -4.341402 4.179099 -3.720901 0
M  V30 45 H -4.692603 0.437528 -1.699890 0
M  V30 46 H -4.753617 0.459994 0.833615 0
M  V30 47 H -0.690332 -4.548549 3.360296 0
M  V30 48 H 0.851393 -5.379723 3.202591 0
M  V30 49 H 2.378848 -4.818915 1.259517 0
M  V30 50 H 2.315269 -4.315678 -1.170337 0
M  V30 51 H 0.321760 -3.269109 -2.173925 0
M  V30 52 H -1.671767 -2.701776 -0.734324 0
M  V30 53 H -1.500369 -3.246501 1.638807 0
M  V30 END ATOM
M  V30 BEGIN BOND
M  V30 1 1 1 2
M  V30 2 1 2 3
M  V30 3 1 3 4
M  V30 4 1 4 5
M  V30 5 2 5 6
M  V30 6 1 6 7
M  V30 7 1 7 8
M  V30 8 2 8 9
M  V30 9 1 9 10
M  V30 10 2 10 11
M  V30 11 1 11 12
M  V30 12 2 12 13
M  V30 13 1 13 14
M  V30 14 2 7 15
M  V30 15 1 15 16
M  V30 16 1 16 17
M  V30 17 1 17 18
M  V30 18 2 18 19
M  V30 19 1 19 20
M  V30 20 2 20 21
M  V30 21 1 21 22
M  V30 22 2 22 23
M  V30 23 2 17 24
M  V30 24 1 24 25
M  V30 25 1 25 26
M  V30 26 1 2 27
M  V30 27 1 27 28
M  V30 28 2 28 29
M  V30 29 1 29 30
M  V30 30 2 30 31
M  V30 31 1 31 32
M  V30 32 2 32 33
M  V30 33 1 26 5
M  V30 34 1 33 28
M  V30 35 1 13 8
M  V30 36 2 26 16
M  V30 37 1 23 18
M  V30 38 1 1 34
M  V30 39 1 1 35
M  V30 40 1 2 36 CFG=3
M  V30 41 1 3 37
M  V30 42 1 3 38
M  V30 43 1 4 39
M  V30 44 1 9 40
M  V30 45 1 10 41
M  V30 46 1 12 42
M  V30 47 1 19 43
M  V30 48 1 21 44
M  V30 49 1 23 45
M  V30 50 1 24 46
M  V30 51 1 27 47
M  V30 52 1 27 48
M  V30 53 1 29 49
M  V30 54 1 30 50
M  V30 55 1 31 51
M  V30 56 1 32 52
M  V30 57 1 33 53
M  V30 END BOND
M  V30 END CTAB
M  END
>  <Dataset>  (27) 
ChEMBL_Kinases

>  <Ligand_Instance>  (27) 
nan

>  <PDB_ID>  (27) 
nan

>  <Standardized_SMILES>  (27) 
N[C@H](CNc1nc(-c2ccncc2F)nc2c(-c3cncnc3)csc12)Cc1ccccc1

>  <Name>  (27) 
nan

>  <Pocket>  (27) 
nan

>  <ATP_Site>  (27) 
nan

>  <Peripheral>  (27) 
nan

>  <Num_H_Atoms_ProtBoundConf>  (27) 
nan

>  <Num_Resolved_Atoms>  (27) 
nan

>  <Num_Not_Resolved_Atoms>  (27) 
nan

$$$$
CHEMBL3727951
     RDKit          3D

  0  0  0  0  0  0  0  0  0  0999 V3000
M  V30 BEGIN CTAB
M  V30 COUNTS 61 65 0 0 0
M  V30 BEGIN ATOM
M  V30 1 C 5.357396 1.485461 5.306640 0
M  V30 2 C 5.358747 0.276226 4.413166 0
M  V30 3 C 5.512167 -0.971953 5.289596 0
M  V30 4 C 6.558788 0.335936 3.514865 0
M  V30 5 C 4.112018 0.181626 3.594555 0
M  V30 6 C 3.969317 -0.887429 2.718070 0
M  V30 7 C 2.845727 -1.045150 1.926768 0
M  V30 8 C 1.874377 -0.073707 2.062142 0
M  V30 9 C 0.636586 -0.137580 1.271705 0
M  V30 10 C -0.443204 0.587597 1.159836 0
M  V30 11 C -1.423156 0.205161 0.288554 0
M  V30 12 N -2.595438 0.828082 0.045498 0
M  V30 13 C -3.495394 0.382255 -0.824661 0
M  V30 14 C -4.733563 1.131008 -1.014246 0
M  V30 15 C -4.970442 2.285167 -0.302670 0
M  V30 16 C -6.153920 2.943698 -0.526180 0
M  V30 17 N -7.105556 2.539262 -1.396827 0
M  V30 18 C -6.859351 1.395913 -2.094804 0
M  V30 19 C -5.680871 0.687719 -1.911035 0
M  V30 20 N -3.312581 -0.758968 -1.559119 0
M  V30 21 C -2.165253 -1.453510 -1.384029 0
M  V30 22 N -1.777397 -2.652991 -2.038447 0
M  V30 23 C -1.472331 -3.941842 -1.446490 0
M  V30 24 C -2.390425 -5.029472 -1.945180 0
M  V30 25 C -3.190328 -4.499548 -3.090559 0
M  V30 26 N -2.469069 -4.403174 -4.326426 0
M  V30 27 C -1.415229 -3.418643 -4.295617 0
M  V30 28 C -1.767635 -2.259456 -3.412332 0
M  V30 29 C -1.253557 -0.914412 -0.437826 0
M  V30 30 S 0.382915 -1.493788 0.116142 0
M  V30 31 C 1.955933 1.010959 2.913461 0
M  V30 32 C 3.109917 1.137084 3.699638 0
M  V30 33 H 4.593892 1.435256 6.105626 0
M  V30 34 H 6.340549 1.481459 5.827973 0
M  V30 35 H 5.322748 2.409981 4.704346 0
M  V30 36 H 5.868346 -1.835171 4.723196 0
M  V30 37 H 4.458047 -1.222015 5.608112 0
M  V30 38 H 6.092797 -0.769771 6.192720 0
M  V30 39 H 6.667900 -0.697984 3.077667 0
M  V30 40 H 6.408704 1.058899 2.700222 0
M  V30 41 H 7.469519 0.565393 4.073533 0
M  V30 42 H 4.775214 -1.603857 2.671983 0
M  V30 43 H 2.733830 -1.878281 1.243297 0
M  V30 44 H -0.467835 1.464361 1.793625 0
M  V30 45 H -4.230316 2.638529 0.403191 0
M  V30 46 H -6.319292 3.850166 0.045096 0
M  V30 47 H -7.556295 0.980324 -2.820761 0
M  V30 48 H -5.474019 -0.225702 -2.462550 0
M  V30 49 H -0.444510 -4.228928 -1.798471 0
M  V30 50 H -1.453532 -3.908900 -0.353396 0
M  V30 51 H -3.098319 -5.312507 -1.144389 0
M  V30 52 H -1.852326 -5.953771 -2.249424 0
M  V30 53 H -3.577146 -3.498551 -2.770325 0
M  V30 54 H -4.088009 -5.124304 -3.251788 0
M  V30 55 H -3.148909 -4.117921 -5.063156 0
M  V30 56 H -0.479950 -3.876663 -3.866018 0
M  V30 57 H -1.201588 -3.117955 -5.335505 0
M  V30 58 H -2.772714 -1.885982 -3.727977 0
M  V30 59 H -1.013502 -1.467784 -3.585786 0
M  V30 60 H 1.171239 1.751844 2.990352 0
M  V30 61 H 3.248476 1.957687 4.389849 0
M  V30 END ATOM
M  V30 BEGIN BOND
M  V30 1 1 1 2
M  V30 2 1 2 3
M  V30 3 1 2 4
M  V30 4 1 2 5
M  V30 5 2 5 6
M  V30 6 1 6 7
M  V30 7 2 7 8
M  V30 8 1 8 9
M  V30 9 2 9 10
M  V30 10 1 10 11
M  V30 11 2 11 12
M  V30 12 1 12 13
M  V30 13 1 13 14
M  V30 14 2 14 15
M  V30 15 1 15 16
M  V30 16 2 16 17
M  V30 17 1 17 18
M  V30 18 2 18 19
M  V30 19 2 13 20
M  V30 20 1 20 21
M  V30 21 1 21 22
M  V30 22 1 22 23
M  V30 23 1 23 24
M  V30 24 1 24 25
M  V30 25 1 25 26
M  V30 26 1 26 27
M  V30 27 1 27 28
M  V30 28 2 21 29
M  V30 29 1 29 30
M  V30 30 1 8 31
M  V30 31 2 31 32
M  V30 32 1 32 5
M  V30 33 1 30 9
M  V30 34 1 29 11
M  V30 35 1 19 14
M  V30 36 1 28 22
M  V30 37 1 1 33
M  V30 38 1 1 34
M  V30 39 1 1 35
M  V30 40 1 3 36
M  V30 41 1 3 37
M  V30 42 1 3 38
M  V30 43 1 4 39
M  V30 44 1 4 40
M  V30 45 1 4 41
M  V30 46 1 6 42
M  V30 47 1 7 43
M  V30 48 1 10 44
M  V30 49 1 15 45
M  V30 50 1 16 46
M  V30 51 1 18 47
M  V30 52 1 19 48
M  V30 53 1 23 49
M  V30 54 1 23 50
M  V30 55 1 24 51
M  V30 56 1 24 52
M  V30 57 1 25 53
M  V30 58 1 25 54
M  V30 59 1 26 55
M  V30 60 1 27 56
M  V30 61 1 27 57
M  V30 62 1 28 58
M  V30 63 1 28 59
M  V30 64 1 31 60
M  V30 65 1 32 61
M  V30 END BOND
M  V30 END CTAB
M  END
>  <Dataset>  (28) 
ChEMBL_Kinases

>  <Ligand_Instance>  (28) 
nan

>  <PDB_ID>  (28) 
nan

>  <Standardized_SMILES>  (28) 
CC(C)(C)c1ccc(-c2cc3nc(-c4ccncc4)nc(N4CCCNCC4)c3s2)cc1

>  <Name>  (28) 
nan

>  <Pocket>  (28) 
nan

>  <ATP_Site>  (28) 
nan

>  <Peripheral>  (28) 
nan

>  <Num_H_Atoms_ProtBoundConf>  (28) 
nan

>  <Num_Resolved_Atoms>  (28) 
nan

>  <Num_Not_Resolved_Atoms>  (28) 
nan

$$$$
CHEMBL3727950
     RDKit          3D

  0  0  0  0  0  0  0  0  0  0999 V3000
M  V30 BEGIN CTAB
M  V30 COUNTS 41 43 0 0 0
M  V30 BEGIN ATOM
M  V30 1 C -2.364608 -5.331980 0.887646 0
M  V30 2 C -1.985198 -4.986663 2.289460 0
M  V30 3 C -1.354082 -3.634354 2.266454 0
M  V30 4 C -1.115173 -2.767999 1.184849 0
M  V30 5 C -0.509483 -1.572949 1.473911 0
M  V30 6 C -0.185116 -0.578062 0.553700 0
M  V30 7 N -0.434128 -0.584731 -0.843034 0
M  V30 8 C -0.277222 0.141838 -2.043135 0
M  V30 9 C 1.151567 0.124198 -2.506411 0 CFG=1
M  V30 10 C 2.051246 0.740925 -1.504177 0
M  V30 11 N 1.535324 -1.270756 -2.705741 0
M  V30 12 N 0.404251 0.512468 1.053553 0
M  V30 13 C 0.727099 0.790751 2.294039 0
M  V30 14 C 1.368308 2.003456 2.778259 0
M  V30 15 C 1.661155 2.172821 4.105143 0
M  V30 16 C 2.270651 3.330751 4.544401 0
M  V30 17 N 2.600846 4.326875 3.718937 0
M  V30 18 C 2.333265 4.206018 2.408899 0
M  V30 19 C 1.723620 3.052210 1.956957 0
M  V30 20 N 0.414407 -0.168493 3.181125 0
M  V30 21 C -0.179031 -1.297889 2.772554 0
M  V30 22 S -0.691628 -2.686167 3.668891 0
M  V30 23 H -3.026486 -4.565254 0.445822 0
M  V30 24 H -1.399765 -5.359936 0.302465 0
M  V30 25 H -2.831840 -6.343111 0.848277 0
M  V30 26 H -2.864784 -4.894749 2.966100 0
M  V30 27 H -1.287479 -5.752323 2.686589 0
M  V30 28 H -1.434098 -3.128219 0.218259 0
M  V30 29 H -0.933667 -1.503517 -1.065922 0
M  V30 30 H -0.651124 1.199929 -1.927566 0
M  V30 31 H -0.876188 -0.301925 -2.889602 0
M  V30 32 H 1.277586 0.597987 -3.506581 0
M  V30 33 H 2.444313 0.076499 -0.719839 0
M  V30 34 H 1.671273 1.689930 -1.074891 0
M  V30 35 H 2.980985 1.060541 -2.071180 0
M  V30 36 H 0.820196 -1.803102 -3.236763 0
M  V30 37 H 2.502791 -1.395001 -3.019143 0
M  V30 38 H 1.403324 1.376744 4.802386 0
M  V30 39 H 2.470274 3.392598 5.603431 0
M  V30 40 H 2.606642 5.024599 1.743177 0
M  V30 41 H 1.534810 3.009991 0.913783 0
M  V30 END ATOM
M  V30 BEGIN BOND
M  V30 1 1 1 2
M  V30 2 1 2 3
M  V30 3 2 3 4
M  V30 4 1 4 5
M  V30 5 2 5 6
M  V30 6 1 6 7
M  V30 7 1 7 8
M  V30 8 1 8 9
M  V30 9 1 9 10
M  V30 10 1 9 11
M  V30 11 1 6 12
M  V30 12 2 12 13
M  V30 13 1 13 14
M  V30 14 2 14 15
M  V30 15 1 15 16
M  V30 16 2 16 17
M  V30 17 1 17 18
M  V30 18 2 18 19
M  V30 19 1 13 20
M  V30 20 2 20 21
M  V30 21 1 21 22
M  V30 22 1 22 3
M  V30 23 1 21 5
M  V30 24 1 19 14
M  V30 25 1 1 23
M  V30 26 1 1 24
M  V30 27 1 1 25
M  V30 28 1 2 26
M  V30 29 1 2 27
M  V30 30 1 4 28
M  V30 31 1 7 29
M  V30 32 1 8 30
M  V30 33 1 8 31
M  V30 34 1 9 32 CFG=3
M  V30 35 1 10 33
M  V30 36 1 10 34
M  V30 37 1 10 35
M  V30 38 1 11 36
M  V30 39 1 11 37
M  V30 40 1 15 38
M  V30 41 1 16 39
M  V30 42 1 18 40
M  V30 43 1 19 41
M  V30 END BOND
M  V30 END CTAB
M  END
>  <Dataset>  (29) 
ChEMBL_Kinases

>  <Ligand_Instance>  (29) 
nan

>  <PDB_ID>  (29) 
nan

>  <Standardized_SMILES>  (29) 
CCc1cc2c(NC[C@@H](C)N)nc(-c3ccncc3)nc2s1

>  <Name>  (29) 
nan

>  <Pocket>  (29) 
nan

>  <ATP_Site>  (29) 
nan

>  <Peripheral>  (29) 
nan

>  <Num_H_Atoms_ProtBoundConf>  (29) 
nan

>  <Num_Resolved_Atoms>  (29) 
nan

>  <Num_Not_Resolved_Atoms>  (29) 
nan

$$$$
CHEMBL3727941
     RDKit          3D

  0  0  0  0  0  0  0  0  0  0999 V3000
M  V30 BEGIN CTAB
M  V30 COUNTS 53 57 0 0 0
M  V30 BEGIN ATOM
M  V30 1 N -1.359983 -4.827292 1.332800 0
M  V30 2 C 0.010202 -4.510951 1.593386 0 CFG=2
M  V30 3 C 0.262583 -3.076660 1.233012 0
M  V30 4 N -0.532841 -2.148156 1.965703 0
M  V30 5 C -0.377417 -0.764219 1.706865 0
M  V30 6 N 0.508820 -0.326949 0.781756 0
M  V30 7 C 0.543849 1.032984 0.645961 0
M  V30 8 C 1.491907 1.528203 -0.345659 0
M  V30 9 C 1.708570 2.843373 -0.661036 0
M  V30 10 C 2.601194 3.300083 -1.593925 0
M  V30 11 N 3.342724 2.394230 -2.273980 0
M  V30 12 C 3.164190 1.079870 -1.997071 0
M  V30 13 C 2.258585 0.625307 -1.051266 0
M  V30 14 N -0.203247 1.899404 1.334544 0
M  V30 15 C -1.087579 1.486656 2.255907 0
M  V30 16 C -1.891236 2.289554 3.006175 0
M  V30 17 C -1.966640 3.742180 2.974665 0
M  V30 18 C -1.223282 4.569985 2.164273 0
M  V30 19 C -1.519884 5.900344 2.364672 0
M  V30 20 C -2.489292 5.864916 3.344194 0
M  V30 21 N -2.717925 4.587214 3.669190 0
M  V30 22 C -2.746702 1.621512 3.917348 0
M  V30 23 S -2.323207 -0.199246 3.625290 0
M  V30 24 C -1.149073 0.140938 2.417321 0
M  V30 25 C 0.883493 -5.387002 0.724235 0
M  V30 26 C 0.641977 -5.203742 -0.724434 0
M  V30 27 C 1.262441 -4.333405 -1.595157 0
M  V30 28 C 0.926064 -4.276754 -2.922588 0
M  V30 29 C -0.053114 -5.086661 -3.467873 0
M  V30 30 C -0.700941 -5.972562 -2.636808 0
M  V30 31 C -0.341571 -6.007640 -1.305078 0
M  V30 32 H -1.913355 -4.070346 0.921246 0
M  V30 33 H -1.825810 -5.369297 2.088026 0
M  V30 34 H 0.232471 -4.736855 2.655540 0
M  V30 35 H 1.324640 -2.851637 1.434092 0
M  V30 36 H 0.126971 -3.002337 0.132097 0
M  V30 37 H -1.201791 -2.525155 2.667454 0
M  V30 38 H 1.150883 3.590821 -0.154451 0
M  V30 39 H 2.745693 4.333734 -1.815826 0
M  V30 40 H 3.758399 0.360348 -2.542498 0
M  V30 41 H 2.198837 -0.457598 -0.911112 0
M  V30 42 H -0.479795 4.259031 1.438068 0
M  V30 43 H -1.091846 6.765278 1.869284 0
M  V30 44 H -2.987828 6.714559 3.783690 0
M  V30 45 H -3.425381 4.303962 4.403076 0
M  V30 46 H -3.495345 2.068849 4.638473 0
M  V30 47 H 0.687645 -6.463421 0.981710 0
M  V30 48 H 1.953242 -5.150818 0.931363 0
M  V30 49 H 2.030217 -3.710933 -1.131849 0
M  V30 50 H 1.477515 -3.554097 -3.523012 0
M  V30 51 H -0.242925 -4.964082 -4.525416 0
M  V30 52 H -1.456937 -6.601149 -3.046826 0
M  V30 53 H -0.902101 -6.738353 -0.707949 0
M  V30 END ATOM
M  V30 BEGIN BOND
M  V30 1 1 1 2
M  V30 2 1 2 3
M  V30 3 1 3 4
M  V30 4 1 4 5
M  V30 5 2 5 6
M  V30 6 1 6 7
M  V30 7 1 7 8
M  V30 8 2 8 9
M  V30 9 1 9 10
M  V30 10 2 10 11
M  V30 11 1 11 12
M  V30 12 2 12 13
M  V30 13 2 7 14
M  V30 14 1 14 15
M  V30 15 1 15 16
M  V30 16 1 16 17
M  V30 17 2 17 18
M  V30 18 1 18 19
M  V30 19 2 19 20
M  V30 20 1 20 21
M  V30 21 2 16 22
M  V30 22 1 22 23
M  V30 23 1 23 24
M  V30 24 1 2 25
M  V30 25 1 25 26
M  V30 26 2 26 27
M  V30 27 1 27 28
M  V30 28 2 28 29
M  V30 29 1 29 30
M  V30 30 2 30 31
M  V30 31 1 24 5
M  V30 32 1 31 26
M  V30 33 1 13 8
M  V30 34 2 24 15
M  V30 35 1 21 17
M  V30 36 1 1 32
M  V30 37 1 1 33
M  V30 38 1 2 34 CFG=1
M  V30 39 1 3 35
M  V30 40 1 3 36
M  V30 41 1 4 37
M  V30 42 1 9 38
M  V30 43 1 10 39
M  V30 44 1 12 40
M  V30 45 1 13 41
M  V30 46 1 18 42
M  V30 47 1 19 43
M  V30 48 1 20 44
M  V30 49 1 21 45
M  V30 50 1 22 46
M  V30 51 1 25 47
M  V30 52 1 25 48
M  V30 53 1 27 49
M  V30 54 1 28 50
M  V30 55 1 29 51
M  V30 56 1 30 52
M  V30 57 1 31 53
M  V30 END BOND
M  V30 END CTAB
M  END
>  <Dataset>  (30) 
ChEMBL_Kinases

>  <Ligand_Instance>  (30) 
nan

>  <PDB_ID>  (30) 
nan

>  <Standardized_SMILES>  (30) 
N[C@H](CNc1nc(-c2ccncc2)nc2c(-c3ccc[nH]3)csc12)Cc1ccccc1

>  <Name>  (30) 
nan

>  <Pocket>  (30) 
nan

>  <ATP_Site>  (30) 
nan

>  <Peripheral>  (30) 
nan

>  <Num_H_Atoms_ProtBoundConf>  (30) 
nan

>  <Num_Resolved_Atoms>  (30) 
nan

>  <Num_Not_Resolved_Atoms>  (30) 
nan

$$$$
CHEMBL3727923
     RDKit          3D

  0  0  0  0  0  0  0  0  0  0999 V3000
M  V30 BEGIN CTAB
M  V30 COUNTS 39 42 0 0 0
M  V30 BEGIN ATOM
M  V30 1 Br 1.987667 -2.279379 6.361239 0
M  V30 2 C 2.488115 -2.166772 4.528580 0
M  V30 3 C 3.833809 -2.436076 4.286663 0
M  V30 4 S 3.974005 -2.235444 2.388262 0
M  V30 5 C 2.176050 -1.810198 2.175512 0
M  V30 6 C 1.460793 -1.512020 1.034107 0
M  V30 7 N 2.190416 -1.529433 -0.171136 0
M  V30 8 C 1.443112 -1.215933 -1.366673 0
M  V30 9 C 0.848666 0.155226 -1.364172 0 CFG=2
M  V30 10 C 0.096725 0.359442 -2.663504 0
M  V30 11 C 0.151304 1.848868 -2.901415 0
M  V30 12 C 0.969357 2.358399 -1.733712 0
M  V30 13 N 1.830003 1.205026 -1.434772 0
M  V30 14 N 0.159064 -1.240975 1.181791 0
M  V30 15 C -0.350773 -1.279330 2.423350 0
M  V30 16 C -1.771683 -0.988917 2.628907 0
M  V30 17 C -2.383489 -1.003757 3.862909 0
M  V30 18 C -3.722805 -0.724673 4.012587 0
M  V30 19 N -4.462205 -0.426475 2.914924 0
M  V30 20 C -3.840923 -0.418170 1.717250 0
M  V30 21 C -2.487125 -0.691052 1.490411 0
M  V30 22 N 0.345707 -1.568326 3.523654 0
M  V30 23 C 1.653491 -1.856616 3.506252 0
M  V30 24 H 4.659668 -2.679760 4.780519 0
M  V30 25 H 3.184111 -1.743461 -0.248364 0
M  V30 26 H 0.585798 -1.935818 -1.495953 0
M  V30 27 H 2.072374 -1.365726 -2.274784 0
M  V30 28 H 0.151880 0.361851 -0.558200 0
M  V30 29 H -0.939726 0.021281 -2.528696 0
M  V30 30 H 0.607782 -0.226340 -3.469186 0
M  V30 31 H -0.868727 2.307991 -2.894166 0
M  V30 32 H 0.715810 2.112566 -3.824936 0
M  V30 33 H 1.560060 3.242719 -2.022956 0
M  V30 34 H 0.291613 2.529965 -0.870907 0
M  V30 35 H 2.418586 1.021674 -2.290514 0
M  V30 36 H -1.736349 -1.248625 4.691718 0
M  V30 37 H -4.149282 -0.753498 5.024074 0
M  V30 38 H -4.449287 -0.175328 0.834710 0
M  V30 39 H -2.106624 -0.653708 0.492740 0
M  V30 END ATOM
M  V30 BEGIN BOND
M  V30 1 1 1 2
M  V30 2 2 2 3
M  V30 3 1 3 4
M  V30 4 1 4 5
M  V30 5 2 5 6
M  V30 6 1 6 7
M  V30 7 1 7 8
M  V30 8 1 8 9
M  V30 9 1 9 10
M  V30 10 1 10 11
M  V30 11 1 11 12
M  V30 12 1 12 13
M  V30 13 1 6 14
M  V30 14 2 14 15
M  V30 15 1 15 16
M  V30 16 2 16 17
M  V30 17 1 17 18
M  V30 18 2 18 19
M  V30 19 1 19 20
M  V30 20 2 20 21
M  V30 21 1 15 22
M  V30 22 2 22 23
M  V30 23 1 23 2
M  V30 24 1 23 5
M  V30 25 1 13 9
M  V30 26 1 21 16
M  V30 27 1 3 24
M  V30 28 1 7 25
M  V30 29 1 8 26
M  V30 30 1 8 27
M  V30 31 1 9 28 CFG=1
M  V30 32 1 10 29
M  V30 33 1 10 30
M  V30 34 1 11 31
M  V30 35 1 11 32
M  V30 36 1 12 33
M  V30 37 1 12 34
M  V30 38 1 13 35
M  V30 39 1 17 36
M  V30 40 1 18 37
M  V30 41 1 20 38
M  V30 42 1 21 39
M  V30 END BOND
M  V30 END CTAB
M  END
>  <Dataset>  (31) 
ChEMBL_Kinases

>  <Ligand_Instance>  (31) 
nan

>  <PDB_ID>  (31) 
nan

>  <Standardized_SMILES>  (31) 
Brc1csc2c(NC[C@@H]3CCCN3)nc(-c3ccncc3)nc12

>  <Name>  (31) 
nan

>  <Pocket>  (31) 
nan

>  <ATP_Site>  (31) 
nan

>  <Peripheral>  (31) 
nan

>  <Num_H_Atoms_ProtBoundConf>  (31) 
nan

>  <Num_Resolved_Atoms>  (31) 
nan

>  <Num_Not_Resolved_Atoms>  (31) 
nan

$$$$
CHEMBL3727913
     RDKit          3D

  0  0  0  0  0  0  0  0  0  0999 V3000
M  V30 BEGIN CTAB
M  V30 COUNTS 67 72 0 0 0
M  V30 BEGIN ATOM
M  V30 1 C 3.798167 0.550305 4.204299 0
M  V30 2 N 4.478695 -0.111857 3.141895 0
M  V30 3 C 3.547307 -0.431672 2.093254 0
M  V30 4 C 2.930905 0.777407 1.456498 0
M  V30 5 N 3.721570 1.987042 1.607844 0
M  V30 6 C 3.221086 3.318150 1.819987 0
M  V30 7 O 3.978083 4.320127 1.946755 0
M  V30 8 C 1.742036 3.336766 1.865173 0
M  V30 9 C 1.184874 2.923760 0.668712 0
M  V30 10 C -0.190295 2.871259 0.564590 0
M  V30 11 C -1.050098 3.204334 1.578224 0
M  V30 12 N -2.489879 3.118716 1.525992 0
M  V30 13 C -2.851667 2.328080 0.400143 0
M  V30 14 C -2.555958 0.986627 0.684393 0
M  V30 15 C -2.787662 -0.047897 -0.196138 0
M  V30 16 C -2.434623 -1.450995 0.135911 0
M  V30 17 N -2.681908 -2.413388 -0.804347 0
M  V30 18 C -2.296322 -3.658078 -0.389114 0
M  V30 19 N -2.469045 -4.779629 -1.222501 0
M  V30 20 C -3.053741 -4.670639 -2.522647 0 CFG=2
M  V30 21 C -3.112143 -6.008689 -3.215224 0
M  V30 22 C -2.875028 -5.663390 -4.660551 0
M  V30 23 N -1.832678 -4.653699 -4.548356 0
M  V30 24 C -2.286675 -3.791424 -3.475696 0
M  V30 25 C -1.726024 -3.888312 0.842625 0
M  V30 26 S -1.165030 -5.353578 1.573492 0
M  V30 27 C -0.615879 -4.496700 3.169667 0
M  V30 28 C -0.935591 -3.119145 2.960948 0
M  V30 29 C -1.493835 -2.903741 1.757657 0
M  V30 30 N -1.882193 -1.697163 1.321185 0
M  V30 31 C -3.338058 0.190118 -1.432959 0
M  V30 32 C -3.616343 1.525487 -1.676650 0
M  V30 33 N -3.384755 2.522535 -0.810263 0
M  V30 34 C -0.446014 3.610310 2.748584 0
M  V30 35 C 0.909264 3.689098 2.931557 0
M  V30 36 C 5.120951 1.617076 1.500879 0
M  V30 37 C 5.556810 0.634327 2.537894 0
M  V30 38 H 2.709907 0.254993 4.161136 0
M  V30 39 H 4.129811 0.192693 5.218635 0
M  V30 40 H 3.804683 1.636515 4.154525 0
M  V30 41 H 4.124576 -1.070730 1.364751 0
M  V30 42 H 2.736960 -1.027251 2.552071 0
M  V30 43 H 1.925475 0.968652 1.907501 0
M  V30 44 H 2.845831 0.570029 0.367118 0
M  V30 45 H 1.758690 2.628373 -0.221895 0
M  V30 46 H -0.637050 2.545828 -0.385775 0
M  V30 47 H -3.046512 3.594759 2.240353 0
M  V30 48 H -2.118687 0.635265 1.613547 0
M  V30 49 H -2.185880 -5.734035 -0.939797 0
M  V30 50 H -4.100040 -4.265605 -2.398763 0
M  V30 51 H -2.236226 -6.612892 -2.854919 0
M  V30 52 H -4.066316 -6.542807 -3.033989 0
M  V30 53 H -3.755937 -5.209597 -5.110562 0
M  V30 54 H -2.499743 -6.525731 -5.260480 0
M  V30 55 H -0.948548 -5.133423 -4.241236 0
M  V30 56 H -1.446131 -3.259042 -2.977591 0
M  V30 57 H -2.979384 -3.029607 -3.906768 0
M  V30 58 H -0.118310 -4.882143 4.170556 0
M  V30 59 H -0.702883 -2.438752 3.760047 0
M  V30 60 H -3.557563 -0.547533 -2.187519 0
M  V30 61 H -4.051642 1.885596 -2.599007 0
M  V30 62 H -1.069779 3.886499 3.586044 0
M  V30 63 H 1.450626 3.992636 3.804339 0
M  V30 64 H 5.221889 1.149856 0.476544 0
M  V30 65 H 5.778616 2.505061 1.453122 0
M  V30 66 H 6.224160 1.100905 3.281219 0
M  V30 67 H 6.201861 -0.140249 2.027855 0
M  V30 END ATOM
M  V30 BEGIN BOND
M  V30 1 1 1 2
M  V30 2 1 2 3
M  V30 3 1 3 4
M  V30 4 1 4 5
M  V30 5 1 5 6
M  V30 6 2 6 7
M  V30 7 1 6 8
M  V30 8 2 8 9
M  V30 9 1 9 10
M  V30 10 2 10 11
M  V30 11 1 11 12
M  V30 12 1 12 13
M  V30 13 2 13 14
M  V30 14 1 14 15
M  V30 15 1 15 16
M  V30 16 2 16 17
M  V30 17 1 17 18
M  V30 18 1 18 19
M  V30 19 1 19 20
M  V30 20 1 20 21
M  V30 21 1 21 22
M  V30 22 1 22 23
M  V30 23 1 23 24
M  V30 24 2 18 25
M  V30 25 1 25 26
M  V30 26 1 26 27
M  V30 27 2 27 28
M  V30 28 1 28 29
M  V30 29 2 29 30
M  V30 30 2 15 31
M  V30 31 1 31 32
M  V30 32 2 32 33
M  V30 33 1 11 34
M  V30 34 2 34 35
M  V30 35 1 5 36
M  V30 36 1 36 37
M  V30 37 1 37 2
M  V30 38 1 35 8
M  V30 39 1 33 13
M  V30 40 1 30 16
M  V30 41 1 24 20
M  V30 42 1 29 25
M  V30 43 1 1 38
M  V30 44 1 1 39
M  V30 45 1 1 40
M  V30 46 1 3 41
M  V30 47 1 3 42
M  V30 48 1 4 43
M  V30 49 1 4 44
M  V30 50 1 9 45
M  V30 51 1 10 46
M  V30 52 1 12 47
M  V30 53 1 14 48
M  V30 54 1 19 49
M  V30 55 1 20 50 CFG=1
M  V30 56 1 21 51
M  V30 57 1 21 52
M  V30 58 1 22 53
M  V30 59 1 22 54
M  V30 60 1 23 55
M  V30 61 1 24 56
M  V30 62 1 24 57
M  V30 63 1 27 58
M  V30 64 1 28 59
M  V30 65 1 31 60
M  V30 66 1 32 61
M  V30 67 1 34 62
M  V30 68 1 35 63
M  V30 69 1 36 64
M  V30 70 1 36 65
M  V30 71 1 37 66
M  V30 72 1 37 67
M  V30 END BOND
M  V30 END CTAB
M  END
>  <Dataset>  (32) 
ChEMBL_Kinases

>  <Ligand_Instance>  (32) 
nan

>  <PDB_ID>  (32) 
nan

>  <Standardized_SMILES>  (32) 
CN1CCN(C(=O)c2ccc(Nc3cc(-c4nc(N[C@@H]5CCNC5)c5sccc5n4)ccn3)cc2)CC1

>  <Name>  (32) 
nan

>  <Pocket>  (32) 
nan

>  <ATP_Site>  (32) 
nan

>  <Peripheral>  (32) 
nan

>  <Num_H_Atoms_ProtBoundConf>  (32) 
nan

>  <Num_Resolved_Atoms>  (32) 
nan

>  <Num_Not_Resolved_Atoms>  (32) 
nan

$$$$
CHEMBL3727903
     RDKit          3D

  0  0  0  0  0  0  0  0  0  0999 V3000
M  V30 BEGIN CTAB
M  V30 COUNTS 57 60 0 0 0
M  V30 BEGIN ATOM
M  V30 1 N 0.738690 -5.066698 0.012175 0
M  V30 2 C 0.307355 -4.512423 1.264317 0 CFG=2
M  V30 3 C 0.633620 -3.057872 1.298685 0
M  V30 4 N -0.051073 -2.395945 0.208599 0
M  V30 5 C 0.134930 -0.995387 0.073924 0
M  V30 6 N 0.930778 -0.304997 0.944366 0
M  V30 7 C 1.016365 1.031854 0.694851 0
M  V30 8 C 1.851913 1.832697 1.588492 0
M  V30 9 C 1.995950 3.192344 1.410534 0
M  V30 10 C 2.804287 3.884726 2.297613 0
M  V30 11 N 3.436439 3.270917 3.305347 0
M  V30 12 C 3.282532 1.937010 3.463171 0
M  V30 13 C 2.484541 1.162493 2.612182 0
M  V30 14 N 0.386223 1.649002 -0.310647 0
M  V30 15 C -0.402881 0.995104 -1.182046 0
M  V30 16 C -1.068570 1.569927 -2.223298 0
M  V30 17 C -1.079656 2.953409 -2.613799 0
M  V30 18 C -1.079010 4.138114 -2.928536 0
M  V30 19 C -1.100764 5.555250 -3.294469 0
M  V30 20 C -2.545129 6.074010 -3.351202 0
M  V30 21 C -3.238056 5.926959 -2.012406 0
M  V30 22 O -4.534360 6.419438 -2.156385 0
M  V30 23 C -1.841258 0.687747 -3.010917 0
M  V30 24 S -1.553548 -0.988979 -2.172752 0
M  V30 25 C -0.515267 -0.346496 -0.966886 0
M  V30 26 C 0.800622 -5.260018 2.476008 0
M  V30 27 C 0.323719 -6.667085 2.457579 0
M  V30 28 C 1.031528 -7.693505 1.868659 0
M  V30 29 C 0.577489 -9.011468 1.855152 0
M  V30 30 C -0.627727 -9.309117 2.452995 0
M  V30 31 C -1.342002 -8.288212 3.044346 0
M  V30 32 C -0.899178 -6.973036 3.063411 0
M  V30 33 H 0.371688 -6.059413 -0.033057 0
M  V30 34 H 1.788036 -5.093990 0.029681 0
M  V30 35 H -0.818474 -4.579776 1.315021 0
M  V30 36 H 1.730589 -2.906742 1.260931 0
M  V30 37 H 0.330803 -2.636929 2.293332 0
M  V30 38 H -0.654981 -2.931853 -0.447655 0
M  V30 39 H 1.463802 3.639500 0.581110 0
M  V30 40 H 2.872918 4.959963 2.096693 0
M  V30 41 H 3.790044 1.411396 4.281157 0
M  V30 42 H 2.414117 0.102238 2.806703 0
M  V30 43 H -0.545504 6.111857 -2.532976 0
M  V30 44 H -0.697130 5.663419 -4.308677 0
M  V30 45 H -2.574920 7.114269 -3.673358 0
M  V30 46 H -3.133236 5.465698 -4.069056 0
M  V30 47 H -2.744079 6.574994 -1.246186 0
M  V30 48 H -3.278072 4.864538 -1.696271 0
M  V30 49 H -5.178350 5.788867 -2.523568 0
M  V30 50 H -2.463210 0.866536 -3.886499 0
M  V30 51 H 1.913905 -5.205067 2.572791 0
M  V30 52 H 0.350993 -4.770117 3.361623 0
M  V30 53 H 1.992423 -7.465711 1.390126 0
M  V30 54 H 1.140481 -9.810256 1.390245 0
M  V30 55 H -1.060640 -10.297702 2.493176 0
M  V30 56 H -2.301007 -8.514151 3.522222 0
M  V30 57 H -1.506682 -6.215081 3.544519 0
M  V30 END ATOM
M  V30 BEGIN BOND
M  V30 1 1 1 2
M  V30 2 1 2 3
M  V30 3 1 3 4
M  V30 4 1 4 5
M  V30 5 2 5 6
M  V30 6 1 6 7
M  V30 7 1 7 8
M  V30 8 2 8 9
M  V30 9 1 9 10
M  V30 10 2 10 11
M  V30 11 1 11 12
M  V30 12 2 12 13
M  V30 13 2 7 14
M  V30 14 1 14 15
M  V30 15 1 15 16
M  V30 16 1 16 17
M  V30 17 3 17 18
M  V30 18 1 18 19
M  V30 19 1 19 20
M  V30 20 1 20 21
M  V30 21 1 21 22
M  V30 22 2 16 23
M  V30 23 1 23 24
M  V30 24 1 24 25
M  V30 25 1 2 26
M  V30 26 1 26 27
M  V30 27 2 27 28
M  V30 28 1 28 29
M  V30 29 2 29 30
M  V30 30 1 30 31
M  V30 31 2 31 32
M  V30 32 1 25 5
M  V30 33 1 32 27
M  V30 34 1 13 8
M  V30 35 2 25 15
M  V30 36 1 1 33
M  V30 37 1 1 34
M  V30 38 1 2 35 CFG=3
M  V30 39 1 3 36
M  V30 40 1 3 37
M  V30 41 1 4 38
M  V30 42 1 9 39
M  V30 43 1 10 40
M  V30 44 1 12 41
M  V30 45 1 13 42
M  V30 46 1 19 43
M  V30 47 1 19 44
M  V30 48 1 20 45
M  V30 49 1 20 46
M  V30 50 1 21 47
M  V30 51 1 21 48
M  V30 52 1 22 49
M  V30 53 1 23 50
M  V30 54 1 26 51
M  V30 55 1 26 52
M  V30 56 1 28 53
M  V30 57 1 29 54
M  V30 58 1 30 55
M  V30 59 1 31 56
M  V30 60 1 32 57
M  V30 END BOND
M  V30 END CTAB
M  END
>  <Dataset>  (33) 
ChEMBL_Kinases

>  <Ligand_Instance>  (33) 
nan

>  <PDB_ID>  (33) 
nan

>  <Standardized_SMILES>  (33) 
N[C@H](CNc1nc(-c2ccncc2)nc2c(C#CCCCO)csc12)Cc1ccccc1

>  <Name>  (33) 
nan

>  <Pocket>  (33) 
nan

>  <ATP_Site>  (33) 
nan

>  <Peripheral>  (33) 
nan

>  <Num_H_Atoms_ProtBoundConf>  (33) 
nan

>  <Num_Resolved_Atoms>  (33) 
nan

>  <Num_Not_Resolved_Atoms>  (33) 
nan

$$$$
CHEMBL556871
     RDKit          3D

  0  0  0  0  0  0  0  0  0  0999 V3000
M  V30 BEGIN CTAB
M  V30 COUNTS 36 39 0 0 0
M  V30 BEGIN ATOM
M  V30 1 C -1.005102 -3.558066 4.474186 0
M  V30 2 C 0.165633 -3.479935 3.562216 0
M  V30 3 C 1.352534 -4.169514 3.757766 0
M  V30 4 C 2.429614 -4.083895 2.897548 0
M  V30 5 C 2.271774 -3.249060 1.787244 0
M  V30 6 C 1.093750 -2.569155 1.599865 0
M  V30 7 C 0.848397 -1.681986 0.471741 0
M  V30 8 N -0.321360 -1.042849 0.360181 0
M  V30 9 C -0.537103 -0.237854 -0.683236 0
M  V30 10 N -1.659546 0.556425 -1.026535 0
M  V30 11 C -1.558134 1.937451 -0.698204 0
M  V30 12 C -2.568919 2.837775 -0.860135 0
M  V30 13 C -2.458658 4.189522 -0.549503 0
M  V30 14 N -1.317006 4.665013 -0.065126 0
M  V30 15 C -0.269518 3.842697 0.125097 0
M  V30 16 C -0.401731 2.518714 -0.187090 0
M  V30 17 C 0.469471 -0.124663 -1.572916 0
M  V30 18 S 0.632053 0.874017 -3.166771 0
M  V30 19 C 2.394499 0.291711 -3.558325 0
M  V30 20 C 2.721092 -0.631382 -2.424222 0
M  V30 21 C 1.733777 -0.775304 -1.509893 0
M  V30 22 N 1.854171 -1.560719 -0.428052 0
M  V30 23 N 0.067555 -2.689576 2.476569 0
M  V30 24 H -1.463440 -2.548158 4.583820 0
M  V30 25 H -1.788397 -4.175422 3.945092 0
M  V30 26 H -0.692442 -4.004081 5.430428 0
M  V30 27 H 1.352878 -4.778351 4.645443 0
M  V30 28 H 3.332088 -4.634637 3.084056 0
M  V30 29 H 3.076326 -3.139470 1.080076 0
M  V30 30 H -2.537575 0.247553 -1.485612 0
M  V30 31 H -3.527987 2.520371 -1.250512 0
M  V30 32 H -3.266656 4.897106 -0.681344 0
M  V30 33 H 0.660417 4.248541 0.521139 0
M  V30 34 H 0.469721 1.884557 -0.020723 0
M  V30 35 H 2.971661 0.555880 -4.359895 0
M  V30 36 H 3.689829 -1.060128 -2.479388 0
M  V30 END ATOM
M  V30 BEGIN BOND
M  V30 1 1 1 2
M  V30 2 2 2 3
M  V30 3 1 3 4
M  V30 4 2 4 5
M  V30 5 1 5 6
M  V30 6 1 6 7
M  V30 7 2 7 8
M  V30 8 1 8 9
M  V30 9 1 9 10
M  V30 10 1 10 11
M  V30 11 2 11 12
M  V30 12 1 12 13
M  V30 13 2 13 14
M  V30 14 1 14 15
M  V30 15 2 15 16
M  V30 16 2 9 17
M  V30 17 1 17 18
M  V30 18 1 18 19
M  V30 19 2 19 20
M  V30 20 1 20 21
M  V30 21 2 21 22
M  V30 22 2 6 23
M  V30 23 1 23 2
M  V30 24 1 22 7
M  V30 25 1 16 11
M  V30 26 1 21 17
M  V30 27 1 1 24
M  V30 28 1 1 25
M  V30 29 1 1 26
M  V30 30 1 3 27
M  V30 31 1 4 28
M  V30 32 1 5 29
M  V30 33 1 10 30
M  V30 34 1 12 31
M  V30 35 1 13 32
M  V30 36 1 15 33
M  V30 37 1 16 34
M  V30 38 1 19 35
M  V30 39 1 20 36
M  V30 END BOND
M  V30 END CTAB
M  END
>  <Dataset>  (34) 
ChEMBL_Kinases

>  <Ligand_Instance>  (34) 
nan

>  <PDB_ID>  (34) 
nan

>  <Standardized_SMILES>  (34) 
Cc1cccc(-c2nc(Nc3ccncc3)c3sccc3n2)n1

>  <Name>  (34) 
nan

>  <Pocket>  (34) 
nan

>  <ATP_Site>  (34) 
nan

>  <Peripheral>  (34) 
nan

>  <Num_H_Atoms_ProtBoundConf>  (34) 
nan

>  <Num_Resolved_Atoms>  (34) 
nan

>  <Num_Not_Resolved_Atoms>  (34) 
nan

$$$$
CHEMBL3727881
     RDKit          3D

  0  0  0  0  0  0  0  0  0  0999 V3000
M  V30 BEGIN CTAB
M  V30 COUNTS 62 66 0 0 0
M  V30 BEGIN ATOM
M  V30 1 C 2.436161 -3.860203 4.172228 0
M  V30 2 N 1.435435 -2.849021 3.818769 0
M  V30 3 C 1.567533 -2.397321 2.486846 0
M  V30 4 C 2.547212 -2.943407 1.687653 0
M  V30 5 C 2.714065 -2.518976 0.367286 0
M  V30 6 C 1.908898 -1.544982 -0.176135 0
M  V30 7 C 2.008629 -1.049184 -1.593169 0 CFG=1
M  V30 8 C 0.834659 -1.614769 -2.404229 0
M  V30 9 N 0.087600 -0.485189 -2.887358 0
M  V30 10 C -1.242190 -0.036906 -2.565298 0
M  V30 11 N -1.233506 1.090376 -1.795887 0
M  V30 12 C -2.350865 1.692088 -1.356369 0
M  V30 13 C -2.193262 2.892242 -0.556013 0
M  V30 14 C -0.915560 3.353673 -0.340406 0
M  V30 15 C -0.685116 4.496817 0.416124 0
M  V30 16 N -1.687092 5.203106 0.970342 0
M  V30 17 C -2.937573 4.780435 0.779311 0
M  V30 18 C -3.173096 3.650942 0.032152 0
M  V30 19 F -4.454804 3.275578 -0.123134 0
M  V30 20 C -3.511743 1.071189 -1.750179 0
M  V30 21 C -3.516434 -0.066049 -2.526120 0
M  V30 22 O -4.597659 -0.597287 -2.860932 0
M  V30 23 N -2.389638 -0.628238 -2.939058 0
M  V30 24 C -2.280506 -1.824535 -3.749971 0
M  V30 25 C 0.958173 0.223707 -3.813678 0
M  V30 26 C 2.151289 0.702094 -2.984689 0
M  V30 27 O 1.989351 0.351691 -1.647238 0
M  V30 28 C 0.913285 -0.964935 0.583160 0
M  V30 29 C 0.806480 -1.430926 1.872962 0
M  V30 30 C 0.604094 -2.611304 4.948491 0 CFG=2
M  V30 31 C -0.028083 -3.907989 5.464578 0
M  V30 32 C -1.417126 -3.466814 5.816166 0
M  V30 33 O -1.357154 -2.070853 5.912301 0
M  V30 34 C -0.614590 -1.766690 4.729934 0
M  V30 35 H 3.461632 -3.477797 3.999340 0
M  V30 36 H 2.272395 -4.715059 3.456820 0
M  V30 37 H 2.310764 -4.286016 5.174883 0
M  V30 38 H 3.243718 -3.708505 1.976677 0
M  V30 39 H 3.482791 -2.947583 -0.262399 0
M  V30 40 H 2.922700 -1.381982 -2.085175 0
M  V30 41 H 0.217357 -2.281014 -1.766241 0
M  V30 42 H 1.164467 -2.217142 -3.266853 0
M  V30 43 H -0.005883 2.890775 -0.725970 0
M  V30 44 H 0.312233 4.867269 0.591221 0
M  V30 45 H -3.754027 5.335615 1.218605 0
M  V30 46 H -4.439676 1.494585 -1.437225 0
M  V30 47 H -2.195884 -2.702748 -3.053183 0
M  V30 48 H -1.344473 -1.829857 -4.326956 0
M  V30 49 H -3.201084 -1.962069 -4.331490 0
M  V30 50 H 0.427562 1.106666 -4.229109 0
M  V30 51 H 1.325575 -0.446091 -4.619217 0
M  V30 52 H 2.259676 1.805633 -3.107671 0
M  V30 53 H 3.074517 0.220676 -3.364211 0
M  V30 54 H 0.267248 -0.198405 0.183313 0
M  V30 55 H 0.022514 -0.952736 2.439001 0
M  V30 56 H 1.187313 -2.162625 5.785704 0
M  V30 57 H 0.535634 -4.299187 6.336039 0
M  V30 58 H -0.081061 -4.671161 4.690814 0
M  V30 59 H -1.780359 -3.900020 6.768851 0
M  V30 60 H -2.153172 -3.736672 5.022558 0
M  V30 61 H -0.424982 -0.674152 4.699569 0
M  V30 62 H -1.285544 -2.140996 3.927572 0
M  V30 END ATOM
M  V30 BEGIN BOND
M  V30 1 1 1 2
M  V30 2 1 2 3
M  V30 3 2 3 4
M  V30 4 1 4 5
M  V30 5 2 5 6
M  V30 6 1 6 7
M  V30 7 1 7 8
M  V30 8 1 8 9
M  V30 9 1 9 10
M  V30 10 2 10 11
M  V30 11 1 11 12
M  V30 12 1 12 13
M  V30 13 2 13 14
M  V30 14 1 14 15
M  V30 15 2 15 16
M  V30 16 1 16 17
M  V30 17 2 17 18
M  V30 18 1 18 19
M  V30 19 2 12 20
M  V30 20 1 20 21
M  V30 21 2 21 22
M  V30 22 1 21 23
M  V30 23 1 23 24
M  V30 24 1 9 25
M  V30 25 1 25 26
M  V30 26 1 26 27
M  V30 27 1 6 28
M  V30 28 2 28 29
M  V30 29 1 2 30
M  V30 30 1 30 31
M  V30 31 1 31 32
M  V30 32 1 32 33
M  V30 33 1 33 34
M  V30 34 1 29 3
M  V30 35 1 34 30
M  V30 36 1 27 7
M  V30 37 1 23 10
M  V30 38 1 18 13
M  V30 39 1 1 35
M  V30 40 1 1 36
M  V30 41 1 1 37
M  V30 42 1 4 38
M  V30 43 1 5 39
M  V30 44 1 7 40 CFG=3
M  V30 45 1 8 41
M  V30 46 1 8 42
M  V30 47 1 14 43
M  V30 48 1 15 44
M  V30 49 1 17 45
M  V30 50 1 20 46
M  V30 51 1 24 47
M  V30 52 1 24 48
M  V30 53 1 24 49
M  V30 54 1 25 50
M  V30 55 1 25 51
M  V30 56 1 26 52
M  V30 57 1 26 53
M  V30 58 1 28 54
M  V30 59 1 29 55
M  V30 60 1 30 56 CFG=1
M  V30 61 1 31 57
M  V30 62 1 31 58
M  V30 63 1 32 59
M  V30 64 1 32 60
M  V30 65 1 34 61
M  V30 66 1 34 62
M  V30 END BOND
M  V30 END CTAB
M  END
>  <Dataset>  (35) 
ChEMBL_Kinases

>  <Ligand_Instance>  (35) 
nan

>  <PDB_ID>  (35) 
nan

>  <Standardized_SMILES>  (35) 
CN(c1ccc([C@H]2CN(c3nc(-c4ccncc4F)cc(=O)n3C)CCO2)cc1)[C@@H]1CCOC1

>  <Name>  (35) 
nan

>  <Pocket>  (35) 
nan

>  <ATP_Site>  (35) 
nan

>  <Peripheral>  (35) 
nan

>  <Num_H_Atoms_ProtBoundConf>  (35) 
nan

>  <Num_Resolved_Atoms>  (35) 
nan

>  <Num_Not_Resolved_Atoms>  (35) 
nan

$$$$
CHEMBL3727880
     RDKit          3D

  0  0  0  0  0  0  0  0  0  0999 V3000
M  V30 BEGIN CTAB
M  V30 COUNTS 54 58 0 0 0
M  V30 BEGIN ATOM
M  V30 1 N 3.274670 -4.399295 2.156225 0
M  V30 2 C 2.339349 -3.841848 1.202340 0 CFG=2
M  V30 3 C 1.150692 -3.298042 1.745297 0
M  V30 4 N 0.000857 -2.771855 2.270638 0
M  V30 5 C -0.129907 -1.426843 1.750402 0
M  V30 6 N 0.709034 -0.784811 0.881370 0
M  V30 7 C 0.375335 0.470247 0.519134 0
M  V30 8 C 1.294088 1.125685 -0.408910 0
M  V30 9 C 2.423742 0.444018 -0.808546 0
M  V30 10 C 3.258660 1.126478 -1.702369 0
M  V30 11 N 3.007607 2.365261 -2.162794 0
M  V30 12 C 1.888505 2.997866 -1.745512 0
M  V30 13 C 0.997946 2.395007 -0.854645 0
M  V30 14 F -0.139272 3.002342 -0.414202 0
M  V30 15 N -0.717813 1.095448 0.967368 0
M  V30 16 C -1.584956 0.529851 1.820840 0
M  V30 17 C -2.688010 1.175551 2.268014 0
M  V30 18 C -3.214855 2.496633 2.010191 0
M  V30 19 C -2.374110 3.579735 2.038374 0
M  V30 20 C -2.926896 4.826696 1.784076 0
M  V30 21 C -4.269298 4.998905 1.509945 0
M  V30 22 N -5.045144 3.901270 1.495581 0
M  V30 23 C -4.540275 2.685578 1.737346 0
M  V30 24 C -3.458208 0.365487 3.170918 0
M  V30 25 S -2.489084 -1.255309 3.271047 0
M  V30 26 C -1.242199 -0.737480 2.181638 0
M  V30 27 C 2.115484 -4.914505 0.122177 0
M  V30 28 C 1.144979 -4.381877 -0.896386 0
M  V30 29 C -0.209611 -4.601339 -0.768580 0
M  V30 30 C -1.103352 -4.087689 -1.715804 0
M  V30 31 C -0.589114 -3.351769 -2.786711 0
M  V30 32 C 0.768615 -3.151887 -2.884816 0
M  V30 33 C 1.650191 -3.660256 -1.947760 0
M  V30 34 H 2.753635 -5.008074 2.806436 0
M  V30 35 H 3.827649 -3.676183 2.665949 0
M  V30 36 H 2.996550 -3.031289 0.681866 0
M  V30 37 H 1.709638 -3.233918 3.003173 0
M  V30 38 H 0.739511 -4.526253 2.075257 0
M  V30 39 H -0.688889 -3.179284 2.919295 0
M  V30 40 H 2.696775 -0.561004 -0.479577 0
M  V30 41 H 4.159388 0.653256 -2.055720 0
M  V30 42 H 1.579818 3.982646 -2.042087 0
M  V30 43 H -1.311962 3.506963 2.248628 0
M  V30 44 H -2.322315 5.709868 1.791292 0
M  V30 45 H -4.740864 5.951558 1.306311 0
M  V30 46 H -5.251015 1.872762 1.700853 0
M  V30 47 H -4.400760 0.446355 3.775179 0
M  V30 48 H 1.684510 -5.834248 0.534346 0
M  V30 49 H 3.055138 -5.109072 -0.398393 0
M  V30 50 H -0.621883 -5.161503 0.041393 0
M  V30 51 H -2.169619 -4.243376 -1.641283 0
M  V30 52 H -1.269145 -2.950317 -3.521652 0
M  V30 53 H 1.094396 -2.566778 -3.748154 0
M  V30 54 H 2.692753 -3.482815 -2.060299 0
M  V30 END ATOM
M  V30 BEGIN BOND
M  V30 1 1 1 2
M  V30 2 1 2 3
M  V30 3 1 3 4
M  V30 4 1 4 5
M  V30 5 2 5 6
M  V30 6 1 6 7
M  V30 7 1 7 8
M  V30 8 2 8 9
M  V30 9 1 9 10
M  V30 10 2 10 11
M  V30 11 1 11 12
M  V30 12 2 12 13
M  V30 13 1 13 14
M  V30 14 2 7 15
M  V30 15 1 15 16
M  V30 16 1 16 17
M  V30 17 1 17 18
M  V30 18 2 18 19
M  V30 19 1 19 20
M  V30 20 2 20 21
M  V30 21 1 21 22
M  V30 22 2 22 23
M  V30 23 2 17 24
M  V30 24 1 24 25
M  V30 25 1 25 26
M  V30 26 1 2 27
M  V30 27 1 27 28
M  V30 28 2 28 29
M  V30 29 1 29 30
M  V30 30 2 30 31
M  V30 31 1 31 32
M  V30 32 2 32 33
M  V30 33 1 26 5
M  V30 34 1 33 28
M  V30 35 1 13 8
M  V30 36 2 26 16
M  V30 37 1 23 18
M  V30 38 1 1 34
M  V30 39 1 1 35
M  V30 40 1 2 36 CFG=3
M  V30 41 1 3 37
M  V30 42 1 3 38
M  V30 43 1 4 39
M  V30 44 1 9 40
M  V30 45 1 10 41
M  V30 46 1 12 42
M  V30 47 1 19 43
M  V30 48 1 20 44
M  V30 49 1 21 45
M  V30 50 1 23 46
M  V30 51 1 24 47
M  V30 52 1 27 48
M  V30 53 1 27 49
M  V30 54 1 29 50
M  V30 55 1 30 51
M  V30 56 1 31 52
M  V30 57 1 32 53
M  V30 58 1 33 54
M  V30 END BOND
M  V30 END CTAB
M  END
>  <Dataset>  (36) 
ChEMBL_Kinases

>  <Ligand_Instance>  (36) 
nan

>  <PDB_ID>  (36) 
nan

>  <Standardized_SMILES>  (36) 
N[C@H](CNc1nc(-c2ccncc2F)nc2c(-c3cccnc3)csc12)Cc1ccccc1

>  <Name>  (36) 
nan

>  <Pocket>  (36) 
nan

>  <ATP_Site>  (36) 
nan

>  <Peripheral>  (36) 
nan

>  <Num_H_Atoms_ProtBoundConf>  (36) 
nan

>  <Num_Resolved_Atoms>  (36) 
nan

>  <Num_Not_Resolved_Atoms>  (36) 
nan

$$$$
CHEMBL3727866
     RDKit          3D

  0  0  0  0  0  0  0  0  0  0999 V3000
M  V30 BEGIN CTAB
M  V30 COUNTS 61 64 0 0 0
M  V30 BEGIN ATOM
M  V30 1 C 5.124721 0.859420 3.948788 0
M  V30 2 O 4.155919 1.501720 3.178898 0
M  V30 3 C 2.904083 1.861808 3.635194 0
M  V30 4 C 2.623507 1.544994 4.964228 0
M  V30 5 C 1.397327 1.866729 5.506280 0
M  V30 6 C 0.428466 2.504725 4.750306 0
M  V30 7 C 0.698917 2.818081 3.444828 0
M  V30 8 C 1.920829 2.506626 2.876323 0
M  V30 9 C 2.383952 2.766765 1.490638 0
M  V30 10 C 2.353524 1.487530 0.658071 0 CFG=2
M  V30 11 N 2.825786 1.874014 -0.658888 0
M  V30 12 C 0.921792 0.987700 0.599300 0
M  V30 13 N 0.767828 -0.218848 -0.160644 0
M  V30 14 C -0.524850 -0.741158 -0.273324 0
M  V30 15 N -1.613628 -0.178548 0.281954 0
M  V30 16 C -2.789900 -0.812638 0.074374 0
M  V30 17 C -4.000624 -0.232879 0.660092 0
M  V30 18 C -5.252806 -0.789757 0.516975 0
M  V30 19 C -6.373110 -0.217767 1.081324 0
M  V30 20 N -6.248008 0.920041 1.795801 0
M  V30 21 C -5.016918 1.447162 1.923315 0
M  V30 22 C -3.857090 0.929730 1.387392 0
M  V30 23 N -2.943929 -1.943088 -0.633681 0
M  V30 24 C -1.910978 -2.572627 -1.222736 0
M  V30 25 C -1.863406 -3.713870 -1.972583 0
M  V30 26 Br -3.434268 -4.759549 -2.378923 0
M  V30 27 C -0.685836 -4.139975 -2.454188 0
M  V30 28 C -0.302869 -5.294575 -3.269059 0
M  V30 29 C -1.019010 -5.247177 -4.579558 0
M  V30 30 C 1.170978 -5.345480 -3.498425 0
M  V30 31 C -0.783007 -6.542915 -2.521165 0
M  V30 32 S 0.519388 -2.934857 -1.880756 0
M  V30 33 C -0.700366 -1.909734 -1.002484 0
M  V30 34 H 4.694927 0.089572 4.589405 0
M  V30 35 H 5.698765 1.631363 4.524384 0
M  V30 36 H 5.800452 0.330521 3.238414 0
M  V30 37 H 3.265138 1.054319 5.675722 0
M  V30 38 H 1.108200 1.647162 6.546460 0
M  V30 39 H -0.520820 2.754931 5.166094 0
M  V30 40 H 0.025212 3.309108 2.772652 0
M  V30 41 H 1.663705 3.466929 1.008012 0
M  V30 42 H 3.378670 3.239429 1.465251 0
M  V30 43 H 2.964212 0.739998 1.158740 0
M  V30 44 H 3.671954 2.480945 -0.575341 0
M  V30 45 H 2.072425 2.468756 -1.076931 0
M  V30 46 H 0.541077 0.894755 1.626757 0
M  V30 47 H 0.355496 1.810018 0.075045 0
M  V30 48 H 1.594511 -0.672816 -0.602746 0
M  V30 49 H -5.364540 -1.701466 -0.053257 0
M  V30 50 H -7.355116 -0.685943 0.948952 0
M  V30 51 H -4.889545 2.368887 2.497432 0
M  V30 52 H -2.896877 1.422159 1.539409 0
M  V30 53 H -0.490452 -5.938619 -5.298013 0
M  V30 54 H -1.134148 -4.242313 -5.014711 0
M  V30 55 H -2.025437 -5.710017 -4.428818 0
M  V30 56 H 1.496219 -4.892148 -4.458591 0
M  V30 57 H 1.564517 -6.402882 -3.503706 0
M  V30 58 H 1.662609 -4.792617 -2.688087 0
M  V30 59 H 0.051999 -7.238992 -2.316300 0
M  V30 60 H -1.583563 -7.078926 -3.099866 0
M  V30 61 H -1.253818 -6.294330 -1.548599 0
M  V30 END ATOM
M  V30 BEGIN BOND
M  V30 1 1 1 2
M  V30 2 1 2 3
M  V30 3 2 3 4
M  V30 4 1 4 5
M  V30 5 2 5 6
M  V30 6 1 6 7
M  V30 7 2 7 8
M  V30 8 1 8 9
M  V30 9 1 9 10
M  V30 10 1 10 11
M  V30 11 1 10 12
M  V30 12 1 12 13
M  V30 13 1 13 14
M  V30 14 2 14 15
M  V30 15 1 15 16
M  V30 16 1 16 17
M  V30 17 2 17 18
M  V30 18 1 18 19
M  V30 19 2 19 20
M  V30 20 1 20 21
M  V30 21 2 21 22
M  V30 22 2 16 23
M  V30 23 1 23 24
M  V30 24 1 24 25
M  V30 25 1 25 26
M  V30 26 2 25 27
M  V30 27 1 27 28
M  V30 28 1 28 29
M  V30 29 1 28 30
M  V30 30 1 28 31
M  V30 31 1 27 32
M  V30 32 1 32 33
M  V30 33 1 8 3
M  V30 34 1 33 14
M  V30 35 1 22 17
M  V30 36 2 33 24
M  V30 37 1 1 34
M  V30 38 1 1 35
M  V30 39 1 1 36
M  V30 40 1 4 37
M  V30 41 1 5 38
M  V30 42 1 6 39
M  V30 43 1 7 40
M  V30 44 1 9 41
M  V30 45 1 9 42
M  V30 46 1 10 43 CFG=1
M  V30 47 1 11 44
M  V30 48 1 11 45
M  V30 49 1 12 46
M  V30 50 1 12 47
M  V30 51 1 13 48
M  V30 52 1 18 49
M  V30 53 1 19 50
M  V30 54 1 21 51
M  V30 55 1 22 52
M  V30 56 1 29 53
M  V30 57 1 29 54
M  V30 58 1 29 55
M  V30 59 1 30 56
M  V30 60 1 30 57
M  V30 61 1 30 58
M  V30 62 1 31 59
M  V30 63 1 31 60
M  V30 64 1 31 61
M  V30 END BOND
M  V30 END CTAB
M  END
>  <Dataset>  (37) 
ChEMBL_Kinases

>  <Ligand_Instance>  (37) 
nan

>  <PDB_ID>  (37) 
nan

>  <Standardized_SMILES>  (37) 
COc1ccccc1C[C@H](N)CNc1nc(-c2ccncc2)nc2c(Br)c(C(C)(C)C)sc12

>  <Name>  (37) 
nan

>  <Pocket>  (37) 
nan

>  <ATP_Site>  (37) 
nan

>  <Peripheral>  (37) 
nan

>  <Num_H_Atoms_ProtBoundConf>  (37) 
nan

>  <Num_Resolved_Atoms>  (37) 
nan

>  <Num_Not_Resolved_Atoms>  (37) 
nan

$$$$
CHEMBL3727858
     RDKit          3D

  0  0  0  0  0  0  0  0  0  0999 V3000
M  V30 BEGIN CTAB
M  V30 COUNTS 47 50 0 0 0
M  V30 BEGIN ATOM
M  V30 1 C -1.093228 -6.320055 0.805784 0
M  V30 2 C -0.256828 -5.267533 0.182196 0
M  V30 3 C 0.876191 -5.770159 -0.446169 0
M  V30 4 S 1.714048 -4.216834 -1.124760 0
M  V30 5 C 0.490010 -3.103265 -0.509382 0
M  V30 6 C 0.330231 -1.694433 -0.569469 0
M  V30 7 O 1.370829 -1.164548 -1.260313 0
M  V30 8 C 1.780597 0.067490 -1.635858 0
M  V30 9 C 2.156701 1.095043 -0.632052 0 CFG=2
M  V30 10 N 3.291211 0.624618 0.184276 0
M  V30 11 C 1.088753 1.537511 0.317311 0
M  V30 12 C 1.613174 2.599566 1.247942 0
M  V30 13 C 1.520970 3.940250 0.910120 0
M  V30 14 C 2.011314 4.894799 1.784726 0
M  V30 15 C 2.593508 4.557891 2.990831 0
M  V30 16 C 2.689996 3.221882 3.336714 0
M  V30 17 C 2.200510 2.290235 2.461215 0
M  V30 18 N -0.756665 -1.179037 0.029613 0
M  V30 19 C -1.635112 -1.978363 0.648930 0
M  V30 20 C -2.802509 -1.365128 1.285751 0
M  V30 21 C -2.965522 0.000212 1.232564 0
M  V30 22 C -4.088842 0.482159 1.857372 0
M  V30 23 N -5.016846 -0.275773 2.501925 0
M  V30 24 C -4.837161 -1.613879 2.542021 0
M  V30 25 C -3.722208 -2.166529 1.930119 0
M  V30 26 N -1.463697 -3.305265 0.692882 0
M  V30 27 C -0.409414 -3.917683 0.124280 0
M  V30 28 H -0.502978 -6.904102 1.532710 0
M  V30 29 H -1.577221 -6.973013 0.052226 0
M  V30 30 H -1.922745 -5.865846 1.410987 0
M  V30 31 H 1.301548 -6.793356 -0.589336 0
M  V30 32 H 2.673448 -0.047338 -2.322222 0
M  V30 33 H 1.023040 0.600584 -2.321688 0
M  V30 34 H 2.494375 2.030310 -1.172688 0
M  V30 35 H 3.927505 1.415558 0.339107 0
M  V30 36 H 3.733236 -0.153793 -0.352446 0
M  V30 37 H 0.903425 0.653528 0.997245 0
M  V30 38 H 0.139503 1.816937 -0.159247 0
M  V30 39 H 1.081521 4.259543 -0.007671 0
M  V30 40 H 1.964937 5.951907 1.571162 0
M  V30 41 H 2.990710 5.274438 3.705768 0
M  V30 42 H 3.138312 2.910646 4.271380 0
M  V30 43 H 2.240091 1.213843 2.663368 0
M  V30 44 H -2.273007 0.662676 0.740815 0
M  V30 45 H -4.272276 1.554001 1.849110 0
M  V30 46 H -5.545764 -2.269630 3.042741 0
M  V30 47 H -3.607585 -3.254334 1.981704 0
M  V30 END ATOM
M  V30 BEGIN BOND
M  V30 1 1 1 2
M  V30 2 2 2 3
M  V30 3 1 3 4
M  V30 4 1 4 5
M  V30 5 2 5 6
M  V30 6 1 6 7
M  V30 7 1 7 8
M  V30 8 1 8 9
M  V30 9 1 9 10
M  V30 10 1 9 11
M  V30 11 1 11 12
M  V30 12 2 12 13
M  V30 13 1 13 14
M  V30 14 2 14 15
M  V30 15 1 15 16
M  V30 16 2 16 17
M  V30 17 1 6 18
M  V30 18 2 18 19
M  V30 19 1 19 20
M  V30 20 2 20 21
M  V30 21 1 21 22
M  V30 22 2 22 23
M  V30 23 1 23 24
M  V30 24 2 24 25
M  V30 25 1 19 26
M  V30 26 2 26 27
M  V30 27 1 27 2
M  V30 28 1 27 5
M  V30 29 1 17 12
M  V30 30 1 25 20
M  V30 31 1 1 28
M  V30 32 1 1 29
M  V30 33 1 1 30
M  V30 34 1 3 31
M  V30 35 1 8 32
M  V30 36 1 8 33
M  V30 37 1 9 34 CFG=3
M  V30 38 1 10 35
M  V30 39 1 10 36
M  V30 40 1 11 37
M  V30 41 1 11 38
M  V30 42 1 13 39
M  V30 43 1 14 40
M  V30 44 1 15 41
M  V30 45 1 16 42
M  V30 46 1 17 43
M  V30 47 1 21 44
M  V30 48 1 22 45
M  V30 49 1 24 46
M  V30 50 1 25 47
M  V30 END BOND
M  V30 END CTAB
M  END
>  <Dataset>  (38) 
ChEMBL_Kinases

>  <Ligand_Instance>  (38) 
nan

>  <PDB_ID>  (38) 
nan

>  <Standardized_SMILES>  (38) 
Cc1csc2c(OC[C@H](N)Cc3ccccc3)nc(-c3ccncc3)nc12

>  <Name>  (38) 
nan

>  <Pocket>  (38) 
nan

>  <ATP_Site>  (38) 
nan

>  <Peripheral>  (38) 
nan

>  <Num_H_Atoms_ProtBoundConf>  (38) 
nan

>  <Num_Resolved_Atoms>  (38) 
nan

>  <Num_Not_Resolved_Atoms>  (38) 
nan

$$$$
CHEMBL3727835
     RDKit          3D

  0  0  0  0  0  0  0  0  0  0999 V3000
M  V30 BEGIN CTAB
M  V30 COUNTS 45 48 0 0 0
M  V30 BEGIN ATOM
M  V30 1 C -0.165324 -6.437270 1.230235 0
M  V30 2 C 0.417387 -5.043917 1.307107 0
M  V30 3 C -0.641839 -4.084519 1.769122 0
M  V30 4 C -1.027270 -3.092140 0.694336 0
M  V30 5 C 0.108906 -2.267873 0.279760 0
M  V30 6 C 1.064087 -3.219630 -0.097009 0
M  V30 7 S 2.484626 -2.289215 -0.615085 0
M  V30 8 C 1.665949 -0.651061 -0.277318 0
M  V30 9 N 2.255439 0.637145 -0.476055 0
M  V30 10 C 1.481503 1.659698 -0.166461 0
M  V30 11 C 2.033398 2.988072 -0.350237 0
M  V30 12 C 1.282879 4.099822 -0.047873 0
M  V30 13 C 1.765065 5.382953 -0.206229 0
M  V30 14 N 3.013105 5.534260 -0.673079 0
M  V30 15 C 3.740577 4.445194 -0.966366 0
M  V30 16 C 3.317668 3.124837 -0.830984 0
M  V30 17 N 0.279702 1.371405 0.280558 0
M  V30 18 C -0.282172 0.178978 0.470587 0
M  V30 19 N -1.612421 0.185900 0.952228 0
M  V30 20 C -2.309868 1.423996 1.247044 0
M  V30 21 C -1.655316 2.047080 2.459814 0
M  V30 22 N -1.771793 1.103844 3.559893 0
M  V30 23 C 0.426199 -0.953997 0.183901 0
M  V30 24 C 0.927535 -4.686195 -0.074547 0
M  V30 25 H -0.901056 -6.494474 2.074370 0
M  V30 26 H -0.784378 -6.543817 0.302353 0
M  V30 27 H 0.602729 -7.232963 1.286773 0
M  V30 28 H 1.277198 -5.072189 2.003884 0
M  V30 29 H -0.267713 -3.563033 2.667475 0
M  V30 30 H -1.558985 -4.629649 2.056388 0
M  V30 31 H -1.930233 -2.603903 1.044830 0
M  V30 32 H -1.381738 -3.699424 -0.204034 0
M  V30 33 H 0.277345 3.924148 0.327295 0
M  V30 34 H 1.082843 6.181021 0.064798 0
M  V30 35 H 4.729364 4.669386 -1.334367 0
M  V30 36 H 3.961043 2.311838 -1.087663 0
M  V30 37 H -2.335462 -0.502722 1.193461 0
M  V30 38 H -3.390521 1.362991 1.327832 0
M  V30 39 H -2.013301 2.116086 0.392209 0
M  V30 40 H -2.146145 3.012650 2.737583 0
M  V30 41 H -0.593595 2.202413 2.259150 0
M  V30 42 H -1.797870 1.613741 4.464024 0
M  V30 43 H -1.064037 0.359853 3.515489 0
M  V30 44 H 0.329321 -5.110482 -0.883811 0
M  V30 45 H 1.936001 -5.131842 -0.141235 0
M  V30 END ATOM
M  V30 BEGIN BOND
M  V30 1 1 1 2
M  V30 2 1 2 3
M  V30 3 1 3 4
M  V30 4 1 4 5
M  V30 5 2 5 6
M  V30 6 1 6 7
M  V30 7 1 7 8
M  V30 8 2 8 9
M  V30 9 1 9 10
M  V30 10 1 10 11
M  V30 11 2 11 12
M  V30 12 1 12 13
M  V30 13 2 13 14
M  V30 14 1 14 15
M  V30 15 2 15 16
M  V30 16 2 10 17
M  V30 17 1 17 18
M  V30 18 1 18 19
M  V30 19 1 19 20
M  V30 20 1 20 21
M  V30 21 1 21 22
M  V30 22 2 18 23
M  V30 23 1 6 24
M  V30 24 1 24 2
M  V30 25 1 23 5
M  V30 26 1 23 8
M  V30 27 1 16 11
M  V30 28 1 1 25
M  V30 29 1 1 26
M  V30 30 1 1 27
M  V30 31 1 2 28
M  V30 32 1 3 29
M  V30 33 1 3 30
M  V30 34 1 4 31
M  V30 35 1 4 32
M  V30 36 1 12 33
M  V30 37 1 13 34
M  V30 38 1 15 35
M  V30 39 1 16 36
M  V30 40 1 19 37
M  V30 41 1 20 38
M  V30 42 1 20 39
M  V30 43 1 21 40
M  V30 44 1 21 41
M  V30 45 1 22 42
M  V30 46 1 22 43
M  V30 47 1 24 44
M  V30 48 1 24 45
M  V30 END BOND
M  V30 END CTAB
M  END
>  <Dataset>  (39) 
ChEMBL_Kinases

>  <Ligand_Instance>  (39) 
nan

>  <PDB_ID>  (39) 
nan

>  <Standardized_SMILES>  (39) 
CC1CCc2c(sc3nc(-c4ccncc4)nc(NCCN)c23)C1

>  <Name>  (39) 
nan

>  <Pocket>  (39) 
nan

>  <ATP_Site>  (39) 
nan

>  <Peripheral>  (39) 
nan

>  <Num_H_Atoms_ProtBoundConf>  (39) 
nan

>  <Num_Resolved_Atoms>  (39) 
nan

>  <Num_Not_Resolved_Atoms>  (39) 
nan

$$$$
CHEMBL3727828
     RDKit          3D

  0  0  0  0  0  0  0  0  0  0999 V3000
M  V30 BEGIN CTAB
M  V30 COUNTS 55 59 0 0 0
M  V30 BEGIN ATOM
M  V30 1 N 2.634466 -2.937758 2.734056 0
M  V30 2 C 2.314695 -2.916691 1.302203 0 CFG=2
M  V30 3 C 1.029690 -3.639379 1.062233 0
M  V30 4 N -0.091421 -3.085418 1.744577 0
M  V30 5 C -0.459037 -1.754144 1.439161 0
M  V30 6 N 0.129653 -0.924789 0.560719 0
M  V30 7 C -0.361957 0.340649 0.386681 0
M  V30 8 C 0.289409 1.228244 -0.571521 0
M  V30 9 C 1.374349 0.697777 -1.235500 0
M  V30 10 C 1.988524 1.551540 -2.146902 0
M  V30 11 N 1.563773 2.807858 -2.373567 0
M  V30 12 C 0.485394 3.306973 -1.700536 0
M  V30 13 C -0.181383 2.506391 -0.769695 0
M  V30 14 F -1.251273 2.988726 -0.096069 0
M  V30 15 N -1.413878 0.778058 1.066662 0
M  V30 16 C -2.079261 0.039467 1.967385 0
M  V30 17 C -3.155231 0.436981 2.686168 0
M  V30 18 C -3.825635 1.722543 2.652247 0
M  V30 19 C -4.110812 2.278921 1.427339 0
M  V30 20 C -4.736063 3.488286 1.229512 0
M  V30 21 C -5.095037 4.177229 2.385606 0
M  V30 22 C -4.819004 3.638426 3.632275 0
M  V30 23 C -4.180551 2.403786 3.779666 0
M  V30 24 C -3.730045 -0.486194 3.596359 0
M  V30 25 S -2.634382 -2.027116 3.391037 0
M  V30 26 C -1.538734 -1.211982 2.093868 0
M  V30 27 C 3.464056 -3.527860 0.512227 0
M  V30 28 C 3.192348 -3.532834 -0.955474 0
M  V30 29 C 2.551454 -4.639063 -1.514812 0
M  V30 30 C 2.226839 -4.805522 -2.841706 0
M  V30 31 C 2.580054 -3.765083 -3.675040 0
M  V30 32 C 3.218398 -2.638581 -3.183470 0
M  V30 33 C 3.522400 -2.522409 -1.835531 0
M  V30 34 H 1.739329 -2.738342 3.231730 0
M  V30 35 H 2.966401 -3.894427 2.991907 0
M  V30 36 H 2.253025 -1.878219 0.991674 0
M  V30 37 H 1.190502 -4.692177 1.357196 0
M  V30 38 H 0.859496 -3.610719 -0.047028 0
M  V30 39 H -0.608074 -3.643962 2.433600 0
M  V30 40 H 1.752946 -0.303968 -1.088259 0
M  V30 41 H 2.851829 1.144172 -2.682052 0
M  V30 42 H 0.159307 4.311624 -1.893216 0
M  V30 43 H -3.834419 1.748475 0.502635 0
M  V30 44 H -4.937021 3.880824 0.245990 0
M  V30 45 H -5.594625 5.143193 2.297667 0
M  V30 46 H -5.099536 4.176809 4.543202 0
M  V30 47 H -3.965714 1.984514 4.744908 0
M  V30 48 H -4.520104 -0.480018 4.256508 0
M  V30 49 H 4.376904 -2.916234 0.659818 0
M  V30 50 H 3.625934 -4.580931 0.818437 0
M  V30 51 H 2.282366 -5.450059 -0.831451 0
M  V30 52 H 1.725221 -5.719509 -3.151383 0
M  V30 53 H 2.327652 -3.884982 -4.731743 0
M  V30 54 H 3.473068 -1.855155 -3.872867 0
M  V30 55 H 4.018798 -1.658879 -1.420183 0
M  V30 END ATOM
M  V30 BEGIN BOND
M  V30 1 1 1 2
M  V30 2 1 2 3
M  V30 3 1 3 4
M  V30 4 1 4 5
M  V30 5 2 5 6
M  V30 6 1 6 7
M  V30 7 1 7 8
M  V30 8 2 8 9
M  V30 9 1 9 10
M  V30 10 2 10 11
M  V30 11 1 11 12
M  V30 12 2 12 13
M  V30 13 1 13 14
M  V30 14 2 7 15
M  V30 15 1 15 16
M  V30 16 1 16 17
M  V30 17 1 17 18
M  V30 18 2 18 19
M  V30 19 1 19 20
M  V30 20 2 20 21
M  V30 21 1 21 22
M  V30 22 2 22 23
M  V30 23 2 17 24
M  V30 24 1 24 25
M  V30 25 1 25 26
M  V30 26 1 2 27
M  V30 27 1 27 28
M  V30 28 2 28 29
M  V30 29 1 29 30
M  V30 30 2 30 31
M  V30 31 1 31 32
M  V30 32 2 32 33
M  V30 33 1 26 5
M  V30 34 1 33 28
M  V30 35 1 13 8
M  V30 36 2 26 16
M  V30 37 1 23 18
M  V30 38 1 1 34
M  V30 39 1 1 35
M  V30 40 1 2 36 CFG=3
M  V30 41 1 3 37
M  V30 42 1 3 38
M  V30 43 1 4 39
M  V30 44 1 9 40
M  V30 45 1 10 41
M  V30 46 1 12 42
M  V30 47 1 19 43
M  V30 48 1 20 44
M  V30 49 1 21 45
M  V30 50 1 22 46
M  V30 51 1 23 47
M  V30 52 1 24 48
M  V30 53 1 27 49
M  V30 54 1 27 50
M  V30 55 1 29 51
M  V30 56 1 30 52
M  V30 57 1 31 53
M  V30 58 1 32 54
M  V30 59 1 33 55
M  V30 END BOND
M  V30 END CTAB
M  END
>  <Dataset>  (40) 
ChEMBL_Kinases

>  <Ligand_Instance>  (40) 
nan

>  <PDB_ID>  (40) 
nan

>  <Standardized_SMILES>  (40) 
N[C@H](CNc1nc(-c2ccncc2F)nc2c(-c3ccccc3)csc12)Cc1ccccc1

>  <Name>  (40) 
nan

>  <Pocket>  (40) 
nan

>  <ATP_Site>  (40) 
nan

>  <Peripheral>  (40) 
nan

>  <Num_H_Atoms_ProtBoundConf>  (40) 
nan

>  <Num_Resolved_Atoms>  (40) 
nan

>  <Num_Not_Resolved_Atoms>  (40) 
nan

$$$$
CHEMBL3727818
     RDKit          3D

  0  0  0  0  0  0  0  0  0  0999 V3000
M  V30 BEGIN CTAB
M  V30 COUNTS 42 45 0 0 0
M  V30 BEGIN ATOM
M  V30 1 C 0.577601 -4.748430 3.250098 0
M  V30 2 C 1.249584 -3.577134 2.643944 0
M  V30 3 C 2.703606 -3.603993 2.721256 0
M  V30 4 S 3.190022 -1.990341 1.870634 0
M  V30 5 C 1.448901 -1.459229 1.508474 0
M  V30 6 C 0.957507 -0.326162 0.875128 0
M  V30 7 N 1.970002 0.563906 0.438072 0
M  V30 8 C 2.960580 0.099970 -0.514048 0
M  V30 9 C 2.397179 0.461518 -1.892704 0
M  V30 10 C 2.651329 1.918444 -2.138458 0
M  V30 11 N 1.923801 2.795787 -1.264511 0
M  V30 12 C 2.505379 2.889202 0.055474 0
M  V30 13 C 1.914696 1.893875 1.003690 0
M  V30 14 N -0.361887 -0.223149 0.762404 0
M  V30 15 C -1.104329 -1.220218 1.268903 0
M  V30 16 C -2.575961 -1.142220 1.163143 0
M  V30 17 C -3.124658 -0.057621 0.553816 0
M  V30 18 C -4.495370 0.015343 0.455175 0
M  V30 19 N -5.313886 -0.934531 0.932665 0
M  V30 20 C -4.789352 -2.028121 1.545799 0
M  V30 21 C -3.423189 -2.112871 1.650608 0
M  V30 22 N -0.631215 -2.297159 1.871136 0
M  V30 23 C 0.680267 -2.505703 2.040533 0
M  V30 24 H 0.959172 -4.879621 4.284879 0
M  V30 25 H -0.517741 -4.580909 3.257134 0
M  V30 26 H 0.875176 -5.637956 2.656807 0
M  V30 27 H 3.362282 -4.299709 3.125505 0
M  V30 28 H 3.107117 -0.996307 -0.476138 0
M  V30 29 H 3.944242 0.558912 -0.394422 0
M  V30 30 H 2.895909 -0.112563 -2.691418 0
M  V30 31 H 1.305836 0.259393 -1.889203 0
M  V30 32 H 3.723716 2.140635 -2.019219 0
M  V30 33 H 2.373423 2.145101 -3.185065 0
M  V30 34 H 0.911377 2.640257 -1.244667 0
M  V30 35 H 2.370977 3.909960 0.438269 0
M  V30 36 H 3.611682 2.718542 -0.045041 0
M  V30 37 H 0.893040 2.185734 1.284710 0
M  V30 38 H 2.517900 1.895216 1.938423 0
M  V30 39 H -2.485049 0.722600 0.160210 0
M  V30 40 H -4.892175 0.898898 -0.039034 0
M  V30 41 H -5.416527 -2.796986 1.933826 0
M  V30 42 H -2.986072 -2.974907 2.134928 0
M  V30 END ATOM
M  V30 BEGIN BOND
M  V30 1 1 1 2
M  V30 2 2 2 3
M  V30 3 1 3 4
M  V30 4 1 4 5
M  V30 5 2 5 6
M  V30 6 1 6 7
M  V30 7 1 7 8
M  V30 8 1 8 9
M  V30 9 1 9 10
M  V30 10 1 10 11
M  V30 11 1 11 12
M  V30 12 1 12 13
M  V30 13 1 6 14
M  V30 14 2 14 15
M  V30 15 1 15 16
M  V30 16 2 16 17
M  V30 17 1 17 18
M  V30 18 2 18 19
M  V30 19 1 19 20
M  V30 20 2 20 21
M  V30 21 1 15 22
M  V30 22 2 22 23
M  V30 23 1 23 2
M  V30 24 1 23 5
M  V30 25 1 13 7
M  V30 26 1 21 16
M  V30 27 1 1 24
M  V30 28 1 1 25
M  V30 29 1 1 26
M  V30 30 1 3 27
M  V30 31 1 8 28
M  V30 32 1 8 29
M  V30 33 1 9 30
M  V30 34 1 9 31
M  V30 35 1 10 32
M  V30 36 1 10 33
M  V30 37 1 11 34
M  V30 38 1 12 35
M  V30 39 1 12 36
M  V30 40 1 13 37
M  V30 41 1 13 38
M  V30 42 1 17 39
M  V30 43 1 18 40
M  V30 44 1 20 41
M  V30 45 1 21 42
M  V30 END BOND
M  V30 END CTAB
M  END
>  <Dataset>  (41) 
ChEMBL_Kinases

>  <Ligand_Instance>  (41) 
nan

>  <PDB_ID>  (41) 
nan

>  <Standardized_SMILES>  (41) 
Cc1csc2c(N3CCCNCC3)nc(-c3ccncc3)nc12

>  <Name>  (41) 
nan

>  <Pocket>  (41) 
nan

>  <ATP_Site>  (41) 
nan

>  <Peripheral>  (41) 
nan

>  <Num_H_Atoms_ProtBoundConf>  (41) 
nan

>  <Num_Resolved_Atoms>  (41) 
nan

>  <Num_Not_Resolved_Atoms>  (41) 
nan

$$$$
CHEMBL3727805
     RDKit          3D

  0  0  0  0  0  0  0  0  0  0999 V3000
M  V30 BEGIN CTAB
M  V30 COUNTS 54 58 0 0 0
M  V30 BEGIN ATOM
M  V30 1 N 0.599601 -1.444355 -1.080414 0
M  V30 2 C 0.141262 -2.569369 -0.343837 0 CFG=2
M  V30 3 C 0.426655 -2.437852 1.130790 0
M  V30 4 O -0.154504 -1.362386 1.769467 0
M  V30 5 C -0.024868 -0.030810 1.586969 0
M  V30 6 N 0.761893 0.546474 0.679980 0
M  V30 7 C 0.926400 1.851402 0.460418 0
M  V30 8 C 1.793607 2.465709 -0.535078 0
M  V30 9 C 2.589756 1.751101 -1.406012 0
M  V30 10 C 3.418912 2.287211 -2.354624 0
M  V30 11 N 3.461785 3.627054 -2.446305 0
M  V30 12 C 2.712308 4.387227 -1.629185 0
M  V30 13 C 1.881755 3.834588 -0.678445 0
M  V30 14 N 0.214052 2.656382 1.247962 0
M  V30 15 C -0.620781 2.192660 2.206599 0
M  V30 16 S -1.683576 2.994040 3.391193 0
M  V30 17 C -2.294327 1.451081 4.122845 0
M  V30 18 C -1.656627 0.482932 3.424476 0
M  V30 19 C -0.778111 0.806144 2.420205 0
M  V30 20 C -2.124484 -0.811961 3.988638 0
M  V30 21 C -1.895160 -0.835471 5.483719 0
M  V30 22 C -2.759917 0.193521 6.176085 0
M  V30 23 C -3.251167 1.249437 5.212903 0
M  V30 24 C 0.804810 -3.865913 -0.828348 0
M  V30 25 C 0.476540 -4.064114 -2.250018 0
M  V30 26 C -0.689130 -4.786293 -2.527926 0
M  V30 27 C -1.128625 -5.055198 -3.816978 0
M  V30 28 C -0.387911 -4.592780 -4.877902 0
M  V30 29 F -0.783829 -4.834692 -6.143218 0
M  V30 30 C 0.761346 -3.880680 -4.638334 0
M  V30 31 C 1.177433 -3.626288 -3.356342 0
M  V30 32 H 1.590623 -1.507262 -1.395587 0
M  V30 33 H -0.051091 -1.098043 -1.812268 0
M  V30 34 H -0.961907 -2.632355 -0.477627 0
M  V30 35 H 0.034765 -3.370317 1.641429 0
M  V30 36 H 1.530685 -2.491765 1.326175 0
M  V30 37 H 2.568412 0.672525 -1.345745 0
M  V30 38 H 4.018243 1.654894 -3.007236 0
M  V30 39 H 2.741329 5.464351 -1.696790 0
M  V30 40 H 1.267538 4.443067 -0.008239 0
M  V30 41 H -1.600789 -1.692886 3.565672 0
M  V30 42 H -3.211003 -0.889753 3.758392 0
M  V30 43 H -2.158067 -1.829536 5.882154 0
M  V30 44 H -0.837053 -0.616985 5.662842 0
M  V30 45 H -2.133797 0.687202 6.945676 0
M  V30 46 H -3.623123 -0.261440 6.685471 0
M  V30 47 H -4.222813 0.952453 4.767234 0
M  V30 48 H -3.420364 2.220580 5.724097 0
M  V30 49 H 0.435882 -4.714368 -0.243273 0
M  V30 50 H 1.892983 -3.739565 -0.644024 0
M  V30 51 H -1.303787 -5.169745 -1.739090 0
M  V30 52 H -2.036464 -5.617793 -3.983977 0
M  V30 53 H 1.385133 -3.491505 -5.445733 0
M  V30 54 H 2.070529 -3.074009 -3.140135 0
M  V30 END ATOM
M  V30 BEGIN BOND
M  V30 1 1 1 2
M  V30 2 1 2 3
M  V30 3 1 3 4
M  V30 4 1 4 5
M  V30 5 2 5 6
M  V30 6 1 6 7
M  V30 7 1 7 8
M  V30 8 2 8 9
M  V30 9 1 9 10
M  V30 10 2 10 11
M  V30 11 1 11 12
M  V30 12 2 12 13
M  V30 13 2 7 14
M  V30 14 1 14 15
M  V30 15 1 15 16
M  V30 16 1 16 17
M  V30 17 2 17 18
M  V30 18 1 18 19
M  V30 19 1 18 20
M  V30 20 1 20 21
M  V30 21 1 21 22
M  V30 22 1 22 23
M  V30 23 1 2 24
M  V30 24 1 24 25
M  V30 25 2 25 26
M  V30 26 1 26 27
M  V30 27 2 27 28
M  V30 28 1 28 29
M  V30 29 1 28 30
M  V30 30 2 30 31
M  V30 31 1 19 5
M  V30 32 1 31 25
M  V30 33 1 13 8
M  V30 34 2 19 15
M  V30 35 1 23 17
M  V30 36 1 1 32
M  V30 37 1 1 33
M  V30 38 1 2 34 CFG=1
M  V30 39 1 3 35
M  V30 40 1 3 36
M  V30 41 1 9 37
M  V30 42 1 10 38
M  V30 43 1 12 39
M  V30 44 1 13 40
M  V30 45 1 20 41
M  V30 46 1 20 42
M  V30 47 1 21 43
M  V30 48 1 21 44
M  V30 49 1 22 45
M  V30 50 1 22 46
M  V30 51 1 23 47
M  V30 52 1 23 48
M  V30 53 1 24 49
M  V30 54 1 24 50
M  V30 55 1 26 51
M  V30 56 1 27 52
M  V30 57 1 30 53
M  V30 58 1 31 54
M  V30 END BOND
M  V30 END CTAB
M  END
>  <Dataset>  (42) 
ChEMBL_Kinases

>  <Ligand_Instance>  (42) 
nan

>  <PDB_ID>  (42) 
nan

>  <Standardized_SMILES>  (42) 
N[C@H](COc1nc(-c2ccncc2)nc2sc3c(c12)CCCC3)Cc1ccc(F)cc1

>  <Name>  (42) 
nan

>  <Pocket>  (42) 
nan

>  <ATP_Site>  (42) 
nan

>  <Peripheral>  (42) 
nan

>  <Num_H_Atoms_ProtBoundConf>  (42) 
nan

>  <Num_Resolved_Atoms>  (42) 
nan

>  <Num_Not_Resolved_Atoms>  (42) 
nan

$$$$
CHEMBL556392
     RDKit          3D

  0  0  0  0  0  0  0  0  0  0999 V3000
M  V30 BEGIN CTAB
M  V30 COUNTS 33 36 0 0 0
M  V30 BEGIN ATOM
M  V30 1 C -0.668734 -3.254697 2.791022 0
M  V30 2 C -0.629426 -3.788079 1.351792 0 CFG=2
M  V30 3 C 0.437756 -3.159557 0.557697 0
M  V30 4 N 0.168714 -1.920662 -0.102407 0
M  V30 5 C -0.670816 -0.802036 0.171329 0
M  V30 6 C -2.064993 -1.111140 0.497292 0
M  V30 7 S -2.896623 0.409591 0.675053 0
M  V30 8 C -1.412536 1.411151 0.325455 0
M  V30 9 C -1.364109 2.789307 0.304554 0
M  V30 10 C -0.145924 3.373907 0.027565 0
M  V30 11 C 0.886336 2.486828 -0.194236 0
M  V30 12 N 2.048415 3.164367 -0.419725 0
M  V30 13 C 3.202684 2.519034 -0.626928 0
M  V30 14 Cl 4.702295 3.391050 -0.919382 0
M  V30 15 C 3.171765 1.129324 -0.602356 0
M  V30 16 C 1.971857 0.504774 -0.371341 0
M  V30 17 C 0.771422 1.123790 -0.158865 0
M  V30 18 C -0.416939 0.497963 0.105761 0
M  V30 19 C -2.750805 -2.439902 0.690968 0
M  V30 20 O -3.995449 -2.346145 0.718198 0
M  V30 21 N -1.978178 -3.668058 0.825391 0
M  V30 22 H -0.009200 -2.364339 2.893379 0
M  V30 23 H -0.405150 -4.032836 3.533549 0
M  V30 24 H -1.680972 -2.889879 3.062617 0
M  V30 25 H -0.386491 -4.867810 1.451437 0
M  V30 26 H 1.321826 -3.031273 1.242717 0
M  V30 27 H 0.784477 -3.890124 -0.201656 0
M  V30 28 H 0.662375 -1.717390 -1.047675 0
M  V30 29 H -2.240990 3.380938 0.496438 0
M  V30 30 H -0.097883 4.445278 0.006100 0
M  V30 31 H 4.111640 0.663307 -0.770343 0
M  V30 32 H 2.128015 -0.551985 -0.341054 0
M  V30 33 H -2.613383 -4.436771 0.462761 0
M  V30 END ATOM
M  V30 BEGIN BOND
M  V30 1 1 1 2
M  V30 2 1 2 3
M  V30 3 1 3 4
M  V30 4 1 4 5
M  V30 5 2 5 6
M  V30 6 1 6 7
M  V30 7 1 7 8
M  V30 8 2 8 9
M  V30 9 1 9 10
M  V30 10 2 10 11
M  V30 11 1 11 12
M  V30 12 2 12 13
M  V30 13 1 13 14
M  V30 14 1 13 15
M  V30 15 2 15 16
M  V30 16 1 16 17
M  V30 17 2 17 18
M  V30 18 1 6 19
M  V30 19 2 19 20
M  V30 20 1 19 21
M  V30 21 1 21 2
M  V30 22 1 18 5
M  V30 23 1 18 8
M  V30 24 1 17 11
M  V30 25 1 1 22
M  V30 26 1 1 23
M  V30 27 1 1 24
M  V30 28 1 2 25 CFG=1
M  V30 29 1 3 26
M  V30 30 1 3 27
M  V30 31 1 4 28
M  V30 32 1 9 29
M  V30 33 1 10 30
M  V30 34 1 15 31
M  V30 35 1 16 32
M  V30 36 1 21 33
M  V30 END BOND
M  V30 END CTAB
M  END
>  <Dataset>  (43) 
ChEMBL_Kinases

>  <Ligand_Instance>  (43) 
nan

>  <PDB_ID>  (43) 
nan

>  <Standardized_SMILES>  (43) 
C[C@@H]1CNc2c(sc3ccc4nc(Cl)ccc4c23)C(=O)N1

>  <Name>  (43) 
nan

>  <Pocket>  (43) 
nan

>  <ATP_Site>  (43) 
nan

>  <Peripheral>  (43) 
nan

>  <Num_H_Atoms_ProtBoundConf>  (43) 
nan

>  <Num_Resolved_Atoms>  (43) 
nan

>  <Num_Not_Resolved_Atoms>  (43) 
nan

$$$$
CHEMBL556755
     RDKit          3D

  0  0  0  0  0  0  0  0  0  0999 V3000
M  V30 BEGIN CTAB
M  V30 COUNTS 32 33 0 0 0
M  V30 BEGIN ATOM
M  V30 1 C -3.094230 -0.029043 1.452008 0
M  V30 2 N -1.728945 0.049451 0.932272 0
M  V30 3 C -0.789776 -0.891151 1.092740 0
M  V30 4 C 0.412914 -0.523076 0.479200 0
M  V30 5 C 1.663399 -1.270099 0.429670 0
M  V30 6 O 2.599038 -0.694726 -0.198134 0
M  V30 7 C 1.706979 -2.594973 1.104376 0
M  V30 8 C 1.509417 -2.335644 2.588651 0
M  V30 9 C 0.705941 -3.573275 0.557584 0
M  V30 10 N 3.033641 -3.190752 0.949559 0
M  V30 11 C 0.111307 0.711384 -0.057939 0
M  V30 12 C 0.881015 1.594536 -0.787868 0
M  V30 13 C 0.406141 2.807611 -1.253086 0
M  V30 14 C -0.914395 3.139553 -0.962782 0
M  V30 15 C -1.698969 2.270237 -0.234849 0
M  V30 16 C -1.190596 1.064489 0.214800 0
M  V30 17 H -3.449831 0.998041 1.686289 0
M  V30 18 H -3.085196 -0.696567 2.328765 0
M  V30 19 H -3.710050 -0.540437 0.681776 0
M  V30 20 H -0.952552 -1.814984 1.630967 0
M  V30 21 H 2.476501 -2.393148 3.137425 0
M  V30 22 H 0.784581 -3.006812 3.055994 0
M  V30 23 H 1.142636 -1.284969 2.783784 0
M  V30 24 H 1.185790 -4.492890 0.114436 0
M  V30 25 H 0.029640 -3.991199 1.348821 0
M  V30 26 H 0.130741 -3.109132 -0.262304 0
M  V30 27 H 3.001964 -4.217402 1.125589 0
M  V30 28 H 3.724137 -2.778271 1.607411 0
M  V30 29 H 1.896654 1.378067 -1.031387 0
M  V30 30 H 0.976498 3.520307 -1.824316 0
M  V30 31 H -1.333066 4.080489 -1.305982 0
M  V30 32 H -2.733440 2.470086 0.023907 0
M  V30 END ATOM
M  V30 BEGIN BOND
M  V30 1 1 1 2
M  V30 2 1 2 3
M  V30 3 2 3 4
M  V30 4 1 4 5
M  V30 5 2 5 6
M  V30 6 1 5 7
M  V30 7 1 7 8
M  V30 8 1 7 9
M  V30 9 1 7 10
M  V30 10 1 4 11
M  V30 11 2 11 12
M  V30 12 1 12 13
M  V30 13 2 13 14
M  V30 14 1 14 15
M  V30 15 2 15 16
M  V30 16 1 16 2
M  V30 17 1 16 11
M  V30 18 1 1 17
M  V30 19 1 1 18
M  V30 20 1 1 19
M  V30 21 1 3 20
M  V30 22 1 8 21
M  V30 23 1 8 22
M  V30 24 1 8 23
M  V30 25 1 9 24
M  V30 26 1 9 25
M  V30 27 1 9 26
M  V30 28 1 10 27
M  V30 29 1 10 28
M  V30 30 1 12 29
M  V30 31 1 13 30
M  V30 32 1 14 31
M  V30 33 1 15 32
M  V30 END BOND
M  V30 END CTAB
M  END
>  <Dataset>  (44) 
ChEMBL_Kinases

>  <Ligand_Instance>  (44) 
nan

>  <PDB_ID>  (44) 
nan

>  <Standardized_SMILES>  (44) 
Cn1cc(C(=O)C(C)(C)N)c2ccccc21

>  <Name>  (44) 
nan

>  <Pocket>  (44) 
nan

>  <ATP_Site>  (44) 
nan

>  <Peripheral>  (44) 
nan

>  <Num_H_Atoms_ProtBoundConf>  (44) 
nan

>  <Num_Resolved_Atoms>  (44) 
nan

>  <Num_Not_Resolved_Atoms>  (44) 
nan

$$$$
CHEMBL556806
     RDKit          3D

  0  0  0  0  0  0  0  0  0  0999 V3000
M  V30 BEGIN CTAB
M  V30 COUNTS 36 39 0 0 0
M  V30 BEGIN ATOM
M  V30 1 C -3.165898 1.812218 4.592885 0
M  V30 2 N -2.380471 1.253653 3.570398 0
M  V30 3 C -1.548573 0.695482 2.580180 0
M  V30 4 N -0.214521 0.390435 2.652142 0
M  V30 5 C 0.395424 -0.158623 1.562025 0
M  V30 6 N 1.665930 -0.526979 1.422976 0
M  V30 7 C 1.755232 -0.999026 0.185837 0
M  V30 8 C 3.023244 -1.496050 -0.340594 0
M  V30 9 C 4.164187 -1.431181 0.438878 0
M  V30 10 C 5.330352 -1.922750 -0.083669 0
M  V30 11 C 5.494261 -2.497771 -1.349800 0
M  V30 12 C 4.282161 -2.509578 -2.046536 0
M  V30 13 C 3.063531 -2.037070 -1.596521 0
M  V30 14 F 2.053393 -2.162023 -2.450044 0
M  V30 15 C 0.514336 -0.911086 -0.425340 0
M  V30 16 C -0.398015 -0.354254 0.479264 0
M  V30 17 C -1.733942 -0.084231 0.303472 0
M  V30 18 C -2.312762 0.467837 1.425607 0
M  V30 19 N -3.606745 0.647725 1.023855 0
M  V30 20 C -3.753294 0.227248 -0.246256 0
M  V30 21 N -2.574742 -0.238283 -0.718312 0
M  V30 22 C -2.304876 -0.767680 -2.043135 0
M  V30 23 H -4.238879 2.027039 4.229417 0
M  V30 24 H -3.387504 1.097120 5.443996 0
M  V30 25 H -2.862230 2.815837 5.002445 0
M  V30 26 H -1.604699 1.326210 4.310820 0
M  V30 27 H 2.398268 -0.440802 2.180924 0
M  V30 28 H 4.186694 -1.015399 1.439938 0
M  V30 29 H 6.227808 -1.869157 0.535868 0
M  V30 30 H 6.391360 -2.881732 -1.767162 0
M  V30 31 H 4.379652 -2.962385 -3.050108 0
M  V30 32 H 0.286016 -1.221069 -1.431505 0
M  V30 33 H -4.618075 0.218898 -0.884783 0
M  V30 34 H -3.231671 -0.714365 -2.650695 0
M  V30 35 H -1.953865 -1.800018 -2.015433 0
M  V30 36 H -1.507421 -0.105063 -2.486051 0
M  V30 END ATOM
M  V30 BEGIN BOND
M  V30 1 1 1 2
M  V30 2 1 2 3
M  V30 3 2 3 4
M  V30 4 1 4 5
M  V30 5 1 5 6
M  V30 6 1 6 7
M  V30 7 1 7 8
M  V30 8 2 8 9
M  V30 9 1 9 10
M  V30 10 2 10 11
M  V30 11 1 11 12
M  V30 12 2 12 13
M  V30 13 1 13 14
M  V30 14 2 7 15
M  V30 15 1 15 16
M  V30 16 1 16 17
M  V30 17 2 17 18
M  V30 18 1 18 19
M  V30 19 2 19 20
M  V30 20 1 20 21
M  V30 21 1 21 22
M  V30 22 1 18 3
M  V30 23 2 16 5
M  V30 24 1 21 17
M  V30 25 1 13 8
M  V30 26 1 1 23
M  V30 27 1 1 24
M  V30 28 1 1 25
M  V30 29 1 2 26
M  V30 30 1 6 27
M  V30 31 1 9 28
M  V30 32 1 10 29
M  V30 33 1 11 30
M  V30 34 1 12 31
M  V30 35 1 15 32
M  V30 36 1 20 33
M  V30 37 1 22 34
M  V30 38 1 22 35
M  V30 39 1 22 36
M  V30 END BOND
M  V30 END CTAB
M  END
>  <Dataset>  (45) 
ChEMBL_Kinases

>  <Ligand_Instance>  (45) 
nan

>  <PDB_ID>  (45) 
nan

>  <Standardized_SMILES>  (45) 
CNc1nc2[nH]c(-c3ccccc3F)cc2c2c1ncn2C

>  <Name>  (45) 
nan

>  <Pocket>  (45) 
nan

>  <ATP_Site>  (45) 
nan

>  <Peripheral>  (45) 
nan

>  <Num_H_Atoms_ProtBoundConf>  (45) 
nan

>  <Num_Resolved_Atoms>  (45) 
nan

>  <Num_Not_Resolved_Atoms>  (45) 
nan

$$$$
CHEMBL3727886
     RDKit          3D

  0  0  0  0  0  0  0  0  0  0999 V3000
M  V30 BEGIN CTAB
M  V30 COUNTS 44 46 0 0 0
M  V30 BEGIN ATOM
M  V30 1 C -1.359369 -4.910917 2.450948 0
M  V30 2 C -0.090961 -4.044350 2.290434 0
M  V30 3 C -0.484144 -2.686834 2.807663 0
M  V30 4 C 0.257020 -4.056929 0.838240 0
M  V30 5 C 1.462697 -3.295585 0.427528 0 CFG=2
M  V30 6 N 2.649227 -3.785960 1.112943 0
M  V30 7 C 1.376173 -1.803044 0.489310 0
M  V30 8 N 0.312491 -1.335061 -0.384688 0
M  V30 9 C 0.134541 0.069363 -0.413222 0
M  V30 10 N 0.872221 0.940591 0.299145 0
M  V30 11 C 0.560785 2.266758 0.148446 0
M  V30 12 C 1.334112 3.280005 0.904081 0
M  V30 13 C 2.337108 2.823394 1.727264 0
M  V30 14 C 3.064896 3.760284 2.436927 0
M  V30 15 N 2.773527 5.075237 2.302531 0
M  V30 16 C 1.799223 5.536069 1.504429 0
M  V30 17 C 1.050580 4.624265 0.779031 0
M  V30 18 N -0.417363 2.692476 -0.656102 0
M  V30 19 C -1.174667 1.850138 -1.382804 0
M  V30 20 C -2.161493 2.324349 -2.190649 0
M  V30 21 Br -2.768426 4.092432 -2.556708 0
M  V30 22 C -2.855131 1.258890 -2.882410 0
M  V30 23 S -1.983845 -0.308948 -2.270964 0
M  V30 24 C -0.871104 0.551299 -1.236455 0
M  V30 25 H -1.859389 -4.684131 3.394154 0
M  V30 26 H -2.022732 -4.638991 1.604612 0
M  V30 27 H -1.082123 -5.978501 2.327364 0
M  V30 28 H 0.707998 -4.492407 2.924049 0
M  V30 29 H 0.342456 -2.223697 3.418842 0
M  V30 30 H -1.325800 -2.759290 3.549784 0
M  V30 31 H -0.848514 -2.023095 2.020138 0
M  V30 32 H -0.648248 -3.713211 0.271822 0
M  V30 33 H 0.401690 -5.115558 0.487940 0
M  V30 34 H 1.606797 -3.527693 -0.690832 0
M  V30 35 H 3.385668 -3.036272 0.978790 0
M  V30 36 H 2.967344 -4.671471 0.701849 0
M  V30 37 H 2.335742 -1.434124 0.000719 0
M  V30 38 H 1.379628 -1.363029 1.481302 0
M  V30 39 H -0.264288 -1.997285 -0.939900 0
M  V30 40 H 2.582645 1.777329 1.846012 0
M  V30 41 H 3.861586 3.396983 3.090738 0
M  V30 42 H 1.548653 6.560225 1.379408 0
M  V30 43 H 0.256881 4.951825 0.124630 0
M  V30 44 H -3.746201 1.383653 -3.638750 0
M  V30 END ATOM
M  V30 BEGIN BOND
M  V30 1 1 1 2
M  V30 2 1 2 3
M  V30 3 1 2 4
M  V30 4 1 4 5
M  V30 5 1 5 6
M  V30 6 1 5 7
M  V30 7 1 7 8
M  V30 8 1 8 9
M  V30 9 2 9 10
M  V30 10 1 10 11
M  V30 11 1 11 12
M  V30 12 2 12 13
M  V30 13 1 13 14
M  V30 14 2 14 15
M  V30 15 1 15 16
M  V30 16 2 16 17
M  V30 17 2 11 18
M  V30 18 1 18 19
M  V30 19 1 19 20
M  V30 20 1 20 21
M  V30 21 2 20 22
M  V30 22 1 22 23
M  V30 23 1 23 24
M  V30 24 1 24 9
M  V30 25 1 17 12
M  V30 26 2 24 19
M  V30 27 1 1 25
M  V30 28 1 1 26
M  V30 29 1 1 27
M  V30 30 1 2 28
M  V30 31 1 3 29
M  V30 32 1 3 30
M  V30 33 1 3 31
M  V30 34 1 4 32
M  V30 35 1 4 33
M  V30 36 1 5 34 CFG=3
M  V30 37 1 6 35
M  V30 38 1 6 36
M  V30 39 1 7 37
M  V30 40 1 7 38
M  V30 41 1 8 39
M  V30 42 1 13 40
M  V30 43 1 14 41
M  V30 44 1 16 42
M  V30 45 1 17 43
M  V30 46 1 22 44
M  V30 END BOND
M  V30 END CTAB
M  END
>  <Dataset>  (46) 
ChEMBL_Kinases

>  <Ligand_Instance>  (46) 
nan

>  <PDB_ID>  (46) 
nan

>  <Standardized_SMILES>  (46) 
CC(C)C[C@H](N)CNc1nc(-c2ccncc2)nc2c(Br)csc12

>  <Name>  (46) 
nan

>  <Pocket>  (46) 
nan

>  <ATP_Site>  (46) 
nan

>  <Peripheral>  (46) 
nan

>  <Num_H_Atoms_ProtBoundConf>  (46) 
nan

>  <Num_Resolved_Atoms>  (46) 
nan

>  <Num_Not_Resolved_Atoms>  (46) 
nan

$$$$
CHEMBL560708
     RDKit          3D

  0  0  0  0  0  0  0  0  0  0999 V3000
M  V30 BEGIN CTAB
M  V30 COUNTS 48 52 0 0 0
M  V30 BEGIN ATOM
M  V30 1 C -0.225491 -5.352181 6.008395 0
M  V30 2 N -0.152620 -4.680103 4.789528 0
M  V30 3 C -0.075121 -3.990294 3.554162 0
M  V30 4 N 0.379111 -2.753915 3.290571 0
M  V30 5 C 0.368528 -2.240997 2.051215 0
M  V30 6 N 0.779693 -1.041303 1.626393 0
M  V30 7 C 0.520353 -1.117007 0.315242 0
M  V30 8 C 0.811835 0.011784 -0.590871 0
M  V30 9 C 0.542515 -0.103566 -1.928611 0
M  V30 10 C 0.804314 0.932448 -2.800676 0
M  V30 11 C 1.349688 2.113063 -2.322606 0
M  V30 12 C 1.634513 2.269717 -0.986241 0
M  V30 13 C 2.208910 3.447454 -0.282102 0
M  V30 14 N 1.104874 4.279572 0.148007 0
M  V30 15 C 0.293938 5.197439 -0.570965 0
M  V30 16 O 0.651126 5.252408 -1.797221 0
M  V30 17 C -0.790311 5.973934 -0.013250 0
M  V30 18 C -1.467838 6.930679 -0.883140 0
M  V30 19 S -2.626134 7.558537 0.210908 0
M  V30 20 N -2.123491 6.528495 1.677231 0
M  V30 21 N -1.228509 5.894313 1.213754 0
M  V30 22 C 1.352884 1.201938 -0.159173 0
M  V30 23 C -0.033303 -2.323181 -0.059938 0
M  V30 24 C -0.139404 -3.078729 1.088206 0
M  V30 25 C -0.626208 -4.347015 1.242324 0
M  V30 26 C -0.595668 -4.839385 2.552120 0
M  V30 27 N -1.110312 -6.073886 2.469924 0
M  V30 28 C -1.427420 -6.298628 1.184997 0
M  V30 29 N -1.141665 -5.251648 0.401297 0
M  V30 30 C -1.373279 -5.187430 -1.021862 0
M  V30 31 H -0.722736 -6.391292 5.830479 0
M  V30 32 H -0.943311 -4.936889 6.782740 0
M  V30 33 H 0.739461 -5.680717 6.474476 0
M  V30 34 H 0.272571 -3.895135 5.394754 0
M  V30 35 H 1.183849 -0.302765 2.223028 0
M  V30 36 H 0.114733 -0.994665 -2.386986 0
M  V30 37 H 0.616366 0.912409 -3.873712 0
M  V30 38 H 1.589981 2.970622 -2.938391 0
M  V30 39 H 2.910191 4.009614 -0.939276 0
M  V30 40 H 2.760281 3.128690 0.639488 0
M  V30 41 H 0.798667 4.240855 1.171935 0
M  V30 42 H -1.265755 7.138579 -1.886125 0
M  V30 43 H 1.547950 1.235572 0.924100 0
M  V30 44 H -0.286946 -2.523568 -1.069343 0
M  V30 45 H -1.858480 -7.263614 0.963425 0
M  V30 46 H -2.118465 -5.992639 -1.292335 0
M  V30 47 H -0.428335 -5.473635 -1.552678 0
M  V30 48 H -1.831505 -4.261149 -1.378470 0
M  V30 END ATOM
M  V30 BEGIN BOND
M  V30 1 1 1 2
M  V30 2 1 2 3
M  V30 3 2 3 4
M  V30 4 1 4 5
M  V30 5 1 5 6
M  V30 6 1 6 7
M  V30 7 1 7 8
M  V30 8 2 8 9
M  V30 9 1 9 10
M  V30 10 2 10 11
M  V30 11 1 11 12
M  V30 12 1 12 13
M  V30 13 1 13 14
M  V30 14 1 14 15
M  V30 15 2 15 16
M  V30 16 1 15 17
M  V30 17 2 17 18
M  V30 18 1 18 19
M  V30 19 1 19 20
M  V30 20 2 20 21
M  V30 21 2 12 22
M  V30 22 2 7 23
M  V30 23 1 23 24
M  V30 24 1 24 25
M  V30 25 2 25 26
M  V30 26 1 26 27
M  V30 27 2 27 28
M  V30 28 1 28 29
M  V30 29 1 29 30
M  V30 30 1 26 3
M  V30 31 2 24 5
M  V30 32 1 29 25
M  V30 33 1 22 8
M  V30 34 1 21 17
M  V30 35 1 1 31
M  V30 36 1 1 32
M  V30 37 1 1 33
M  V30 38 1 2 34
M  V30 39 1 6 35
M  V30 40 1 9 36
M  V30 41 1 10 37
M  V30 42 1 11 38
M  V30 43 1 13 39
M  V30 44 1 13 40
M  V30 45 1 14 41
M  V30 46 1 18 42
M  V30 47 1 22 43
M  V30 48 1 23 44
M  V30 49 1 28 45
M  V30 50 1 30 46
M  V30 51 1 30 47
M  V30 52 1 30 48
M  V30 END BOND
M  V30 END CTAB
M  END
>  <Dataset>  (47) 
ChEMBL_Kinases

>  <Ligand_Instance>  (47) 
nan

>  <PDB_ID>  (47) 
nan

>  <Standardized_SMILES>  (47) 
CNc1nc2[nH]c(-c3cccc(CNC(=O)c4csnn4)c3)cc2c2c1ncn2C

>  <Name>  (47) 
nan

>  <Pocket>  (47) 
nan

>  <ATP_Site>  (47) 
nan

>  <Peripheral>  (47) 
nan

>  <Num_H_Atoms_ProtBoundConf>  (47) 
nan

>  <Num_Resolved_Atoms>  (47) 
nan

>  <Num_Not_Resolved_Atoms>  (47) 
nan

$$$$
CHEMBL560730
     RDKit          3D

  0  0  0  0  0  0  0  0  0  0999 V3000
M  V30 BEGIN CTAB
M  V30 COUNTS 53 57 0 0 0
M  V30 BEGIN ATOM
M  V30 1 C -0.010744 -1.981827 3.830467 0
M  V30 2 C 1.114540 -1.313710 3.107878 0
M  V30 3 C 2.360109 -1.937509 2.972623 0
M  V30 4 C 3.407882 -1.326275 2.305118 0
M  V30 5 C 3.245687 -0.073023 1.751419 0
M  V30 6 C 4.267410 0.682420 1.022639 0
M  V30 7 O 4.067815 1.821286 0.537635 0
M  V30 8 N 5.581868 0.173197 0.807325 0
M  V30 9 C 6.569954 0.950099 0.079803 0
M  V30 10 C 8.051197 0.777222 0.500787 0
M  V30 11 C 7.529932 0.135528 -0.732110 0
M  V30 12 C 2.009456 0.519883 1.898441 0
M  V30 13 C 0.942892 -0.062100 2.558307 0
M  V30 14 O -0.267186 0.611050 2.656985 0
M  V30 15 C -1.472633 0.186173 2.180869 0
M  V30 16 C -2.513556 0.007121 3.091307 0
M  V30 17 C -3.748221 -0.422651 2.641245 0
M  V30 18 O -4.671108 -0.574964 3.493730 0
M  V30 19 N -4.011281 -0.685681 1.338739 0
M  V30 20 C -5.303824 -1.136314 0.861633 0
M  V30 21 C -2.980445 -0.498387 0.507077 0
M  V30 22 C -1.716218 -0.075426 0.847637 0
M  V30 23 C -0.915582 0.002648 -0.272584 0
M  V30 24 N -1.722133 -0.380883 -1.290120 0
M  V30 25 N -2.938627 -0.675651 -0.827969 0
M  V30 26 C -3.901642 -1.096088 -1.780417 0
M  V30 27 C -3.843611 -2.422060 -2.215517 0
M  V30 28 F -2.866180 -3.238270 -1.700711 0
M  V30 29 C -4.696919 -2.997045 -3.134302 0
M  V30 30 C -5.693403 -2.212458 -3.676489 0
M  V30 31 C -5.776606 -0.905515 -3.269230 0
M  V30 32 C -4.911290 -0.353993 -2.349033 0
M  V30 33 F -4.974785 0.946943 -1.927481 0
M  V30 34 H 0.369553 -2.907738 4.310905 0
M  V30 35 H -0.783596 -2.344974 3.106770 0
M  V30 36 H -0.424391 -1.373100 4.650204 0
M  V30 37 H 2.507921 -2.920530 3.399668 0
M  V30 38 H 4.370245 -1.781003 2.187496 0
M  V30 39 H 5.833714 -0.772630 1.179776 0
M  V30 40 H 6.250088 1.929840 -0.286102 0
M  V30 41 H 8.209553 0.091356 1.375900 0
M  V30 42 H 8.690389 1.661173 0.472549 0
M  V30 43 H 7.979257 0.549915 -1.668776 0
M  V30 44 H 7.412152 -0.960981 -0.762441 0
M  V30 45 H 1.825490 1.514192 1.478511 0
M  V30 46 H -2.382070 0.197100 4.154787 0
M  V30 47 H -5.889741 -1.380101 1.796553 0
M  V30 48 H -5.892139 -0.317236 0.376459 0
M  V30 49 H -5.267870 -2.068346 0.282620 0
M  V30 50 H 0.119218 0.306765 -0.290294 0
M  V30 51 H -4.605324 -4.017566 -3.430214 0
M  V30 52 H -6.393725 -2.591041 -4.396567 0
M  V30 53 H -6.555408 -0.272816 -3.685906 0
M  V30 END ATOM
M  V30 BEGIN BOND
M  V30 1 1 1 2
M  V30 2 2 2 3
M  V30 3 1 3 4
M  V30 4 2 4 5
M  V30 5 1 5 6
M  V30 6 2 6 7
M  V30 7 1 6 8
M  V30 8 1 8 9
M  V30 9 1 9 10
M  V30 10 1 10 11
M  V30 11 1 5 12
M  V30 12 2 12 13
M  V30 13 1 13 14
M  V30 14 1 14 15
M  V30 15 2 15 16
M  V30 16 1 16 17
M  V30 17 2 17 18
M  V30 18 1 17 19
M  V30 19 1 19 20
M  V30 20 1 19 21
M  V30 21 2 21 22
M  V30 22 1 22 23
M  V30 23 2 23 24
M  V30 24 1 24 25
M  V30 25 1 25 26
M  V30 26 2 26 27
M  V30 27 1 27 28
M  V30 28 1 27 29
M  V30 29 2 29 30
M  V30 30 1 30 31
M  V30 31 2 31 32
M  V30 32 1 32 33
M  V30 33 1 13 2
M  V30 34 1 22 15
M  V30 35 1 32 26
M  V30 36 1 11 9
M  V30 37 1 25 21
M  V30 38 1 1 34
M  V30 39 1 1 35
M  V30 40 1 1 36
M  V30 41 1 3 37
M  V30 42 1 4 38
M  V30 43 1 8 39
M  V30 44 1 9 40
M  V30 45 1 10 41
M  V30 46 1 10 42
M  V30 47 1 11 43
M  V30 48 1 11 44
M  V30 49 1 12 45
M  V30 50 1 16 46
M  V30 51 1 20 47
M  V30 52 1 20 48
M  V30 53 1 20 49
M  V30 54 1 23 50
M  V30 55 1 29 51
M  V30 56 1 30 52
M  V30 57 1 31 53
M  V30 END BOND
M  V30 END CTAB
M  END
>  <Dataset>  (48) 
ChEMBL_Kinases

>  <Ligand_Instance>  (48) 
nan

>  <PDB_ID>  (48) 
nan

>  <Standardized_SMILES>  (48) 
Cc1ccc(C(=O)NC2CC2)cc1Oc1cc(=O)n(C)c2c1cnn2-c1c(F)cccc1F

>  <Name>  (48) 
nan

>  <Pocket>  (48) 
nan

>  <ATP_Site>  (48) 
nan

>  <Peripheral>  (48) 
nan

>  <Num_H_Atoms_ProtBoundConf>  (48) 
nan

>  <Num_Resolved_Atoms>  (48) 
nan

>  <Num_Not_Resolved_Atoms>  (48) 
nan

$$$$
CHEMBL560737
     RDKit          3D

  0  0  0  0  0  0  0  0  0  0999 V3000
M  V30 BEGIN CTAB
M  V30 COUNTS 43 45 0 0 0
M  V30 BEGIN ATOM
M  V30 1 C -0.982136 -4.552070 3.853607 0
M  V30 2 C -0.325864 -3.182939 3.997921 0
M  V30 3 C -1.336081 -2.121047 3.675891 0
M  V30 4 N -1.794289 -2.290306 2.331589 0
M  V30 5 C -0.819389 -2.010966 1.323076 0
M  V30 6 C -1.373161 -2.192686 -0.092759 0 CFG=2
M  V30 7 C -0.280098 -1.878947 -1.092363 0
M  V30 8 N 0.574592 -0.784639 -0.609185 0
M  V30 9 C 0.200434 0.604725 -0.494171 0
M  V30 10 C -1.157046 0.989771 -0.476420 0
M  V30 11 S -1.208803 2.738383 -0.331924 0
M  V30 12 C 0.661817 2.905943 -0.297467 0
M  V30 13 C 1.444943 4.052065 -0.192564 0
M  V30 14 C 2.807458 3.900322 -0.189380 0
M  V30 15 C 3.283650 2.611587 -0.292008 0
M  V30 16 O 4.675065 2.495065 -0.285199 0
M  V30 17 C 5.297875 1.233601 -0.387182 0
M  V30 18 C 2.482108 1.526913 -0.391495 0
M  V30 19 C 1.107457 1.601594 -0.400685 0
M  V30 20 C -2.364873 0.171097 -0.558396 0
M  V30 21 O -3.408354 0.780333 -0.904441 0
M  V30 22 N -2.458538 -1.249798 -0.282432 0
M  V30 23 H -1.338028 -4.702402 2.832011 0
M  V30 24 H -0.293729 -5.345550 4.224480 0
M  V30 25 H -1.857320 -4.590218 4.554804 0
M  V30 26 H 0.548392 -3.104146 3.343515 0
M  V30 27 H 0.076432 -3.082591 5.043006 0
M  V30 28 H -0.877542 -1.107329 3.740676 0
M  V30 29 H -2.195659 -2.167680 4.392449 0
M  V30 30 H -2.391587 -3.111275 2.150479 0
M  V30 31 H -0.517612 -0.956716 1.450199 0
M  V30 32 H 0.119747 -2.598373 1.441988 0
M  V30 33 H -1.748084 -3.205570 -0.251681 0
M  V30 34 H -0.664246 -1.557684 -2.077715 0
M  V30 35 H 0.358826 -2.746625 -1.264371 0
M  V30 36 H 1.575044 -0.984665 -0.302226 0
M  V30 37 H 0.918732 4.999986 -0.119866 0
M  V30 38 H 3.347035 4.826904 -0.106186 0
M  V30 39 H 4.895480 0.505355 0.335142 0
M  V30 40 H 6.396829 1.384598 -0.297857 0
M  V30 41 H 5.054685 0.855417 -1.423830 0
M  V30 42 H 2.994884 0.575409 -0.464912 0
M  V30 43 H -3.454081 -1.614228 -0.215325 0
M  V30 END ATOM
M  V30 BEGIN BOND
M  V30 1 1 1 2
M  V30 2 1 2 3
M  V30 3 1 3 4
M  V30 4 1 4 5
M  V30 5 1 5 6
M  V30 6 1 6 7
M  V30 7 1 7 8
M  V30 8 1 8 9
M  V30 9 2 9 10
M  V30 10 1 10 11
M  V30 11 1 11 12
M  V30 12 2 12 13
M  V30 13 1 13 14
M  V30 14 2 14 15
M  V30 15 1 15 16
M  V30 16 1 16 17
M  V30 17 1 15 18
M  V30 18 2 18 19
M  V30 19 1 10 20
M  V30 20 2 20 21
M  V30 21 1 20 22
M  V30 22 1 22 6
M  V30 23 1 19 9
M  V30 24 1 19 12
M  V30 25 1 1 23
M  V30 26 1 1 24
M  V30 27 1 1 25
M  V30 28 1 2 26
M  V30 29 1 2 27
M  V30 30 1 3 28
M  V30 31 1 3 29
M  V30 32 1 4 30
M  V30 33 1 5 31
M  V30 34 1 5 32
M  V30 35 1 6 33 CFG=1
M  V30 36 1 7 34
M  V30 37 1 7 35
M  V30 38 1 8 36
M  V30 39 1 13 37
M  V30 40 1 14 38
M  V30 41 1 17 39
M  V30 42 1 17 40
M  V30 43 1 17 41
M  V30 44 1 18 42
M  V30 45 1 22 43
M  V30 END BOND
M  V30 END CTAB
M  END
>  <Dataset>  (49) 
ChEMBL_Kinases

>  <Ligand_Instance>  (49) 
nan

>  <PDB_ID>  (49) 
nan

>  <Standardized_SMILES>  (49) 
CCCNC[C@@H]1CNc2c(sc3ccc(OC)cc23)C(=O)N1

>  <Name>  (49) 
nan

>  <Pocket>  (49) 
nan

>  <ATP_Site>  (49) 
nan

>  <Peripheral>  (49) 
nan

>  <Num_H_Atoms_ProtBoundConf>  (49) 
nan

>  <Num_Resolved_Atoms>  (49) 
nan

>  <Num_Not_Resolved_Atoms>  (49) 
nan

$$$$
CHEMBL560787
     RDKit          3D

  0  0  0  0  0  0  0  0  0  0999 V3000
M  V30 BEGIN CTAB
M  V30 COUNTS 44 47 0 0 0
M  V30 BEGIN ATOM
M  V30 1 C 0.854110 -5.933937 0.898919 0
M  V30 2 C -0.255608 -5.254441 0.166708 0
M  V30 3 O -1.244396 -5.979572 -0.121695 0
M  V30 4 C -0.193165 -3.857633 -0.184456 0
M  V30 5 C 0.873692 -3.040231 0.113373 0
M  V30 6 C 0.970898 -1.698187 -0.203665 0
M  V30 7 C -0.095103 -1.136154 -0.875500 0
M  V30 8 C -0.183667 0.257303 -1.296333 0
M  V30 9 C -0.282048 0.629762 -2.620988 0
M  V30 10 N -0.368455 1.913259 -3.043846 0
M  V30 11 C -0.358462 2.892047 -2.120466 0
M  V30 12 N -0.449054 4.248190 -2.568912 0
M  V30 13 N -0.264692 2.589804 -0.816886 0
M  V30 14 C -0.177283 1.307979 -0.379063 0
M  V30 15 C -0.067875 0.965157 1.037091 0
M  V30 16 C -0.840811 0.241288 1.903375 0
M  V30 17 N -0.229676 0.268931 3.106532 0
M  V30 18 C -0.780962 -0.412752 4.285747 0
M  V30 19 C 0.913796 0.994657 3.021859 0
M  V30 20 C 1.873020 1.310695 3.966870 0
M  V30 21 C 2.979686 2.076682 3.664549 0
M  V30 22 C 3.118197 2.536296 2.364858 0
M  V30 23 C 2.168410 2.227989 1.413547 0
M  V30 24 C 1.040072 1.451934 1.704881 0
M  V30 25 C -1.202988 -1.932985 -1.199067 0
M  V30 26 C -1.248842 -3.279231 -0.855947 0
M  V30 27 H 1.815213 -5.472761 0.642732 0
M  V30 28 H 0.909124 -7.000319 0.634342 0
M  V30 29 H 0.664184 -5.874191 2.004217 0
M  V30 30 H 1.729858 -3.438615 0.638458 0
M  V30 31 H 1.797816 -1.075347 0.029656 0
M  V30 32 H -0.284478 -0.213802 -3.313187 0
M  V30 33 H -0.144103 5.002012 -1.889198 0
M  V30 34 H -0.793309 4.489989 -3.507809 0
M  V30 35 H -1.750850 -0.225251 1.587621 0
M  V30 36 H -1.878277 -0.356226 4.277579 0
M  V30 37 H -0.297234 -0.000985 5.184223 0
M  V30 38 H -0.505401 -1.508358 4.271405 0
M  V30 39 H 1.791944 0.966967 4.986835 0
M  V30 40 H 3.749957 2.345537 4.373710 0
M  V30 41 H 3.963040 3.153881 2.020829 0
M  V30 42 H 2.272024 2.578536 0.418083 0
M  V30 43 H -2.076720 -1.531470 -1.733913 0
M  V30 44 H -2.113697 -3.897266 -1.109480 0
M  V30 END ATOM
M  V30 BEGIN BOND
M  V30 1 1 1 2
M  V30 2 2 2 3
M  V30 3 1 2 4
M  V30 4 2 4 5
M  V30 5 1 5 6
M  V30 6 2 6 7
M  V30 7 1 7 8
M  V30 8 2 8 9
M  V30 9 1 9 10
M  V30 10 2 10 11
M  V30 11 1 11 12
M  V30 12 1 11 13
M  V30 13 2 13 14
M  V30 14 1 14 15
M  V30 15 2 15 16
M  V30 16 1 16 17
M  V30 17 1 17 18
M  V30 18 1 17 19
M  V30 19 2 19 20
M  V30 20 1 20 21
M  V30 21 2 21 22
M  V30 22 1 22 23
M  V30 23 2 23 24
M  V30 24 1 7 25
M  V30 25 2 25 26
M  V30 26 1 26 4
M  V30 27 1 14 8
M  V30 28 1 24 15
M  V30 29 1 24 19
M  V30 30 1 1 27
M  V30 31 1 1 28
M  V30 32 1 1 29
M  V30 33 1 5 30
M  V30 34 1 6 31
M  V30 35 1 9 32
M  V30 36 1 12 33
M  V30 37 1 12 34
M  V30 38 1 16 35
M  V30 39 1 18 36
M  V30 40 1 18 37
M  V30 41 1 18 38
M  V30 42 1 20 39
M  V30 43 1 21 40
M  V30 44 1 22 41
M  V30 45 1 23 42
M  V30 46 1 25 43
M  V30 47 1 26 44
M  V30 END BOND
M  V30 END CTAB
M  END
>  <Dataset>  (50) 
ChEMBL_Kinases

>  <Ligand_Instance>  (50) 
nan

>  <PDB_ID>  (50) 
nan

>  <Standardized_SMILES>  (50) 
CC(=O)c1ccc(-c2cnc(N)nc2-c2cn(C)c3ccccc23)cc1

>  <Name>  (50) 
nan

>  <Pocket>  (50) 
nan

>  <ATP_Site>  (50) 
nan

>  <Peripheral>  (50) 
nan

>  <Num_H_Atoms_ProtBoundConf>  (50) 
nan

>  <Num_Resolved_Atoms>  (50) 
nan

>  <Num_Not_Resolved_Atoms>  (50) 
nan

$$$$
CHEMBL560815
     RDKit          3D

  0  0  0  0  0  0  0  0  0  0999 V3000
M  V30 BEGIN CTAB
M  V30 COUNTS 40 43 0 0 0
M  V30 BEGIN ATOM
M  V30 1 C 2.859191 -5.408375 0.647808 0
M  V30 2 C 2.018423 -4.657229 1.616389 0
M  V30 3 C 1.826601 -5.140507 2.894638 0
M  V30 4 C 1.053347 -4.484919 3.842333 0
M  V30 5 C 0.432400 -3.282834 3.512213 0
M  V30 6 C 0.649057 -2.834565 2.226054 0
M  V30 7 C 0.027657 -1.580880 1.813251 0
M  V30 8 C 0.199878 -1.071150 0.542612 0
M  V30 9 C -0.355115 0.112276 0.071050 0
M  V30 10 N -0.139076 0.573808 -1.243621 0
M  V30 11 C 0.453056 1.729000 -1.819221 0
M  V30 12 C 1.098129 2.709126 -1.111579 0
M  V30 13 C 1.672243 3.831183 -1.671424 0
M  V30 14 N 1.575853 3.943296 -3.008764 0
M  V30 15 C 0.946503 2.991703 -3.721382 0
M  V30 16 C 0.365507 1.862428 -3.184522 0
M  V30 17 C -1.120439 0.754062 1.018949 0
M  V30 18 C -1.736443 1.939587 0.684285 0
M  V30 19 C -2.515138 2.620552 1.591095 0
M  V30 20 C -2.727311 2.172456 2.868077 0
M  V30 21 C -2.113417 0.980090 3.217770 0
M  V30 22 C -1.333827 0.302009 2.303573 0
M  V30 23 N -0.743226 -0.857026 2.644340 0
M  V30 24 N 1.405066 -3.494588 1.330289 0
M  V30 25 H 2.244553 -6.094795 0.048415 0
M  V30 26 H 3.307595 -4.658656 -0.041385 0
M  V30 27 H 3.703487 -5.925966 1.144455 0
M  V30 28 H 2.267655 -6.063817 3.241236 0
M  V30 29 H 0.891562 -4.848314 4.849089 0
M  V30 30 H -0.175161 -2.737033 4.207317 0
M  V30 31 H 0.824251 -1.667080 -0.115164 0
M  V30 32 H -0.547281 -0.185749 -1.827653 0
M  V30 33 H 1.140083 2.556988 -0.038044 0
M  V30 34 H 2.147981 4.519671 -0.985201 0
M  V30 35 H 0.914250 3.159079 -4.787741 0
M  V30 36 H -0.103325 1.186593 -3.872784 0
M  V30 37 H -1.628070 2.361107 -0.297372 0
M  V30 38 H -2.988113 3.548607 1.305827 0
M  V30 39 H -3.336965 2.699133 3.589172 0
M  V30 40 H -2.257938 0.592282 4.221447 0
M  V30 END ATOM
M  V30 BEGIN BOND
M  V30 1 1 1 2
M  V30 2 2 2 3
M  V30 3 1 3 4
M  V30 4 2 4 5
M  V30 5 1 5 6
M  V30 6 1 6 7
M  V30 7 2 7 8
M  V30 8 1 8 9
M  V30 9 1 9 10
M  V30 10 1 10 11
M  V30 11 2 11 12
M  V30 12 1 12 13
M  V30 13 2 13 14
M  V30 14 1 14 15
M  V30 15 2 15 16
M  V30 16 2 9 17
M  V30 17 1 17 18
M  V30 18 2 18 19
M  V30 19 1 19 20
M  V30 20 2 20 21
M  V30 21 1 21 22
M  V30 22 2 22 23
M  V30 23 2 6 24
M  V30 24 1 24 2
M  V30 25 1 23 7
M  V30 26 1 16 11
M  V30 27 1 22 17
M  V30 28 1 1 25
M  V30 29 1 1 26
M  V30 30 1 1 27
M  V30 31 1 3 28
M  V30 32 1 4 29
M  V30 33 1 5 30
M  V30 34 1 8 31
M  V30 35 1 10 32
M  V30 36 1 12 33
M  V30 37 1 13 34
M  V30 38 1 15 35
M  V30 39 1 16 36
M  V30 40 1 18 37
M  V30 41 1 19 38
M  V30 42 1 20 39
M  V30 43 1 21 40
M  V30 END BOND
M  V30 END CTAB
M  END
>  <Dataset>  (51) 
ChEMBL_Kinases

>  <Ligand_Instance>  (51) 
nan

>  <PDB_ID>  (51) 
nan

>  <Standardized_SMILES>  (51) 
Cc1cccc(-c2cc(Nc3ccncc3)c3ccccc3n2)n1

>  <Name>  (51) 
nan

>  <Pocket>  (51) 
nan

>  <ATP_Site>  (51) 
nan

>  <Peripheral>  (51) 
nan

>  <Num_H_Atoms_ProtBoundConf>  (51) 
nan

>  <Num_Resolved_Atoms>  (51) 
nan

>  <Num_Not_Resolved_Atoms>  (51) 
nan

$$$$
CHEMBL561314
     RDKit          3D

  0  0  0  0  0  0  0  0  0  0999 V3000
M  V30 BEGIN CTAB
M  V30 COUNTS 36 38 0 0 0
M  V30 BEGIN ATOM
M  V30 1 N -1.161461 -1.666427 0.415829 0
M  V30 2 C -0.376654 -0.472411 0.610696 0
M  V30 3 C 0.995675 -0.368162 0.554051 0
M  V30 4 C 1.714398 -1.590353 0.253997 0
M  V30 5 O 0.977129 -2.604359 -0.004062 0
M  V30 6 C 3.116930 -1.941087 0.175059 0
M  V30 7 C 3.500824 -2.935257 -0.704110 0
M  V30 8 C 4.825426 -3.346151 -0.838314 0
M  V30 9 C 5.801566 -2.748994 -0.072635 0
M  V30 10 C 5.468205 -1.753007 0.819007 0
M  V30 11 C 4.144836 -1.390921 0.906740 0
M  V30 12 C 1.498220 0.886144 0.776796 0
M  V30 13 C 0.765311 2.015347 1.044952 0
M  V30 14 N -0.558153 1.889777 1.094779 0 CHG=1 VAL=4
M  V30 15 O -1.323808 3.002242 1.361480 0 CHG=-1 VAL=1
M  V30 16 C -1.115500 0.688168 0.885233 0
M  V30 17 C -2.570137 0.636466 0.956981 0
M  V30 18 C -3.388724 0.401704 2.014566 0
M  V30 19 C -4.756217 0.403566 1.833926 0
M  V30 20 C -5.332585 0.639147 0.597096 0
M  V30 21 C -4.510676 0.879699 -0.488893 0
M  V30 22 C -3.134507 0.876859 -0.302086 0
M  V30 23 H -1.267430 -1.949135 -0.586477 0
M  V30 24 H -1.641822 -2.295768 1.110773 0
M  V30 25 H 2.787577 -3.445256 -1.333966 0
M  V30 26 H 5.101816 -4.139903 -1.546354 0
M  V30 27 H 6.828743 -3.067408 -0.176883 0
M  V30 28 H 6.235498 -1.284705 1.420155 0
M  V30 29 H 3.938255 -0.630182 1.615223 0
M  V30 30 H 2.566961 1.008599 0.729635 0
M  V30 31 H 1.256891 2.961918 1.207169 0
M  V30 32 H -2.857302 0.229486 2.932378 0
M  V30 33 H -5.354122 0.206769 2.731892 0
M  V30 34 H -6.395686 0.635415 0.482402 0
M  V30 35 H -4.978645 1.061852 -1.447406 0
M  V30 36 H -2.587167 1.079457 -1.234644 0
M  V30 END ATOM
M  V30 BEGIN BOND
M  V30 1 1 1 2
M  V30 2 2 2 3
M  V30 3 1 3 4
M  V30 4 2 4 5
M  V30 5 1 4 6
M  V30 6 2 6 7
M  V30 7 1 7 8
M  V30 8 2 8 9
M  V30 9 1 9 10
M  V30 10 2 10 11
M  V30 11 1 3 12
M  V30 12 2 12 13
M  V30 13 1 13 14
M  V30 14 1 14 15
M  V30 15 2 14 16
M  V30 16 1 16 17
M  V30 17 2 17 18
M  V30 18 1 18 19
M  V30 19 2 19 20
M  V30 20 1 20 21
M  V30 21 2 21 22
M  V30 22 1 16 2
M  V30 23 1 22 17
M  V30 24 1 11 6
M  V30 25 1 1 23
M  V30 26 1 1 24
M  V30 27 1 7 25
M  V30 28 1 8 26
M  V30 29 1 9 27
M  V30 30 1 10 28
M  V30 31 1 11 29
M  V30 32 1 12 30
M  V30 33 1 13 31
M  V30 34 1 18 32
M  V30 35 1 19 33
M  V30 36 1 20 34
M  V30 37 1 21 35
M  V30 38 1 22 36
M  V30 END BOND
M  V30 END CTAB
M  END
>  <Dataset>  (52) 
ChEMBL_Kinases

>  <Ligand_Instance>  (52) 
nan

>  <PDB_ID>  (52) 
nan

>  <Standardized_SMILES>  (52) 
Nc1c(C(=O)c2ccccc2)cc[n+]([O-])c1-c1ccccc1

>  <Name>  (52) 
nan

>  <Pocket>  (52) 
nan

>  <ATP_Site>  (52) 
nan

>  <Peripheral>  (52) 
nan

>  <Num_H_Atoms_ProtBoundConf>  (52) 
nan

>  <Num_Resolved_Atoms>  (52) 
nan

>  <Num_Not_Resolved_Atoms>  (52) 
nan

$$$$
CHEMBL561334
     RDKit          3D

  0  0  0  0  0  0  0  0  0  0999 V3000
M  V30 BEGIN CTAB
M  V30 COUNTS 33 36 0 0 0
M  V30 BEGIN ATOM
M  V30 1 C -2.363274 -4.515188 0.403743 0
M  V30 2 C -1.717098 -3.230770 0.952178 0 CFG=2
M  V30 3 C -1.289661 -2.419869 -0.199917 0
M  V30 4 N -0.131080 -1.570874 -0.032184 0
M  V30 5 C 0.413533 -0.830898 1.046841 0
M  V30 6 C 0.578337 -1.550721 2.282900 0
M  V30 7 S 1.366157 -0.480594 3.391795 0
M  V30 8 C 1.457153 0.935866 2.156876 0
M  V30 9 C 2.013034 2.220587 2.387833 0
M  V30 10 C 1.951148 3.079401 1.331748 0
M  V30 11 C 1.363714 2.600768 0.191745 0
M  V30 12 N 1.331826 3.573120 -0.771577 0
M  V30 13 C 0.774909 3.371177 -1.974514 0
M  V30 14 C 0.223811 2.109564 -2.196522 0
M  V30 15 C 0.282150 1.178845 -1.207647 0
M  V30 16 C 0.847487 1.363207 0.021971 0
M  V30 17 C 0.862180 0.426588 1.008169 0
M  V30 18 C 0.194413 -2.906328 2.698482 0
M  V30 19 O 0.708953 -3.279336 3.779646 0
M  V30 20 N -0.713827 -3.691943 1.870249 0
M  V30 21 H -2.755736 -4.346090 -0.608848 0
M  V30 22 H -1.546022 -5.270962 0.278449 0
M  V30 23 H -3.150204 -4.890469 1.069706 0
M  V30 24 H -2.558542 -2.749182 1.531746 0
M  V30 25 H -2.175967 -1.771508 -0.475077 0
M  V30 26 H -1.169739 -3.069975 -1.096352 0
M  V30 27 H 0.515981 -1.456539 -0.897613 0
M  V30 28 H 2.429302 2.424731 3.340190 0
M  V30 29 H 2.371337 4.052370 1.496616 0
M  V30 30 H 0.757914 4.150488 -2.727610 0
M  V30 31 H -0.212549 1.988258 -3.168170 0
M  V30 32 H -0.222358 0.291706 -1.529120 0
M  V30 33 H -0.496305 -4.717501 2.079381 0
M  V30 END ATOM
M  V30 BEGIN BOND
M  V30 1 1 1 2
M  V30 2 1 2 3
M  V30 3 1 3 4
M  V30 4 1 4 5
M  V30 5 2 5 6
M  V30 6 1 6 7
M  V30 7 1 7 8
M  V30 8 2 8 9
M  V30 9 1 9 10
M  V30 10 2 10 11
M  V30 11 1 11 12
M  V30 12 2 12 13
M  V30 13 1 13 14
M  V30 14 2 14 15
M  V30 15 1 15 16
M  V30 16 2 16 17
M  V30 17 1 6 18
M  V30 18 2 18 19
M  V30 19 1 18 20
M  V30 20 1 20 2
M  V30 21 1 17 5
M  V30 22 1 17 8
M  V30 23 1 16 11
M  V30 24 1 1 21
M  V30 25 1 1 22
M  V30 26 1 1 23
M  V30 27 1 2 24 CFG=1
M  V30 28 1 3 25
M  V30 29 1 3 26
M  V30 30 1 4 27
M  V30 31 1 9 28
M  V30 32 1 10 29
M  V30 33 1 13 30
M  V30 34 1 14 31
M  V30 35 1 15 32
M  V30 36 1 20 33
M  V30 END BOND
M  V30 END CTAB
M  END
>  <Dataset>  (53) 
ChEMBL_Kinases

>  <Ligand_Instance>  (53) 
nan

>  <PDB_ID>  (53) 
nan

>  <Standardized_SMILES>  (53) 
C[C@@H]1CNc2c(sc3ccc4ncccc4c23)C(=O)N1

>  <Name>  (53) 
nan

>  <Pocket>  (53) 
nan

>  <ATP_Site>  (53) 
nan

>  <Peripheral>  (53) 
nan

>  <Num_H_Atoms_ProtBoundConf>  (53) 
nan

>  <Num_Resolved_Atoms>  (53) 
nan

>  <Num_Not_Resolved_Atoms>  (53) 
nan

$$$$
CHEMBL561447
     RDKit          3D

  0  0  0  0  0  0  0  0  0  0999 V3000
M  V30 BEGIN CTAB
M  V30 COUNTS 47 50 0 0 0
M  V30 BEGIN ATOM
M  V30 1 C 0.473675 -6.094198 2.499256 0
M  V30 2 N -0.866974 -5.822491 2.000913 0
M  V30 3 C -1.172120 -4.561200 1.411173 0
M  V30 4 N -0.210623 -3.624656 1.319141 0
M  V30 5 C -0.405925 -2.421979 0.784139 0
M  V30 6 N 0.459291 -1.403392 0.631516 0
M  V30 7 C -0.167961 -0.365555 0.036230 0
M  V30 8 C 0.340764 0.967311 -0.341461 0
M  V30 9 C -0.458307 1.917285 -0.963682 0
M  V30 10 C 0.108740 3.128306 -1.271205 0
M  V30 11 C 1.427147 3.362562 -0.960298 0
M  V30 12 C 2.233598 2.404641 -0.332418 0
M  V30 13 C 3.612491 2.909704 -0.112132 0
M  V30 14 N 3.613557 3.587826 1.184600 0
M  V30 15 C 3.635941 2.857434 2.399030 0
M  V30 16 O 3.659091 1.625033 2.557065 0
M  V30 17 C 3.634264 3.532662 3.745963 0
M  V30 18 O 3.658499 2.593288 4.761607 0
M  V30 19 C 1.657941 1.205307 -0.032475 0
M  V30 20 C -1.480007 -0.753879 -0.191961 0
M  V30 21 C -1.633298 -2.047267 0.277434 0
M  V30 22 C -2.645605 -2.968430 0.348626 0
M  V30 23 C -2.409432 -4.212521 0.912013 0
M  V30 24 N -3.551160 -4.907301 0.856119 0
M  V30 25 C -4.477430 -4.116105 0.272118 0
M  V30 26 N -3.922161 -2.913058 -0.044742 0
M  V30 27 C -4.576260 -1.776205 -0.686880 0
M  V30 28 H 0.575779 -7.195990 2.621422 0
M  V30 29 H 1.251650 -5.815832 1.738046 0
M  V30 30 H 0.696707 -5.567789 3.444998 0
M  V30 31 H -1.666416 -6.518587 2.044774 0
M  V30 32 H 1.461857 -1.375440 0.912886 0
M  V30 33 H -1.484233 1.622346 -1.160767 0
M  V30 34 H -0.533592 3.851144 -1.755211 0
M  V30 35 H 1.757299 4.369268 -1.258953 0
M  V30 36 H 3.961477 3.550387 -0.916113 0
M  V30 37 H 4.265912 2.013034 -0.001241 0
M  V30 38 H 3.597937 4.646597 1.285812 0
M  V30 39 H 4.516824 4.177400 3.843859 0
M  V30 40 H 2.732265 4.173732 3.831152 0
M  V30 41 H 2.742036 2.417260 5.140705 0
M  V30 42 H 2.336878 0.519807 0.443901 0
M  V30 43 H -2.289231 -0.180010 -0.656120 0
M  V30 44 H -5.525587 -4.329634 0.052052 0
M  V30 45 H -5.634560 -2.043267 -0.909921 0
M  V30 46 H -4.623814 -0.883838 -0.018434 0
M  V30 47 H -4.086834 -1.477981 -1.620941 0
M  V30 END ATOM
M  V30 BEGIN BOND
M  V30 1 1 1 2
M  V30 2 1 2 3
M  V30 3 2 3 4
M  V30 4 1 4 5
M  V30 5 1 5 6
M  V30 6 1 6 7
M  V30 7 1 7 8
M  V30 8 2 8 9
M  V30 9 1 9 10
M  V30 10 2 10 11
M  V30 11 1 11 12
M  V30 12 1 12 13
M  V30 13 1 13 14
M  V30 14 1 14 15
M  V30 15 2 15 16
M  V30 16 1 15 17
M  V30 17 1 17 18
M  V30 18 2 12 19
M  V30 19 2 7 20
M  V30 20 1 20 21
M  V30 21 1 21 22
M  V30 22 2 22 23
M  V30 23 1 23 24
M  V30 24 2 24 25
M  V30 25 1 25 26
M  V30 26 1 26 27
M  V30 27 1 23 3
M  V30 28 2 21 5
M  V30 29 1 26 22
M  V30 30 1 19 8
M  V30 31 1 1 28
M  V30 32 1 1 29
M  V30 33 1 1 30
M  V30 34 1 2 31
M  V30 35 1 6 32
M  V30 36 1 9 33
M  V30 37 1 10 34
M  V30 38 1 11 35
M  V30 39 1 13 36
M  V30 40 1 13 37
M  V30 41 1 14 38
M  V30 42 1 17 39
M  V30 43 1 17 40
M  V30 44 1 18 41
M  V30 45 1 19 42
M  V30 46 1 20 43
M  V30 47 1 25 44
M  V30 48 1 27 45
M  V30 49 1 27 46
M  V30 50 1 27 47
M  V30 END BOND
M  V30 END CTAB
M  END
>  <Dataset>  (54) 
ChEMBL_Kinases

>  <Ligand_Instance>  (54) 
nan

>  <PDB_ID>  (54) 
nan

>  <Standardized_SMILES>  (54) 
CNc1nc2[nH]c(-c3cccc(CNC(=O)CO)c3)cc2c2c1ncn2C

>  <Name>  (54) 
nan

>  <Pocket>  (54) 
nan

>  <ATP_Site>  (54) 
nan

>  <Peripheral>  (54) 
nan

>  <Num_H_Atoms_ProtBoundConf>  (54) 
nan

>  <Num_Resolved_Atoms>  (54) 
nan

>  <Num_Not_Resolved_Atoms>  (54) 
nan

$$$$
CHEMBL561468
     RDKit          3D

  0  0  0  0  0  0  0  0  0  0999 V3000
M  V30 BEGIN CTAB
M  V30 COUNTS 53 57 0 0 0
M  V30 BEGIN ATOM
M  V30 1 C -0.510801 -0.803631 4.441047 0
M  V30 2 C 0.810171 -0.616275 3.786745 0
M  V30 3 C 1.947811 -1.300001 4.217840 0
M  V30 4 C 3.188514 -1.121864 3.600756 0
M  V30 5 C 3.257731 -0.240230 2.540443 0
M  V30 6 C 4.573302 -0.084166 1.924706 0
M  V30 7 O 5.536925 -0.730569 2.369100 0
M  V30 8 N 4.847947 0.774347 0.823996 0
M  V30 9 C 6.177455 0.894372 0.246110 0
M  V30 10 C 6.670713 2.182323 -0.294966 0
M  V30 11 C 6.337547 1.044521 -1.235195 0
M  V30 12 C 2.147087 0.438646 2.106209 0
M  V30 13 C 0.902099 0.268138 2.715704 0
M  V30 14 O -0.190405 0.948301 2.273980 0
M  V30 15 C -1.372119 0.503789 1.784335 0
M  V30 16 C -2.587331 0.804154 2.386759 0
M  V30 17 C -3.745515 0.320047 1.836157 0
M  V30 18 O -4.838078 0.610663 2.407814 0
M  V30 19 N -3.783156 -0.453094 0.712432 0
M  V30 20 C -5.044214 -0.933788 0.180780 0
M  V30 21 C -2.587669 -0.721937 0.158679 0
M  V30 22 C -1.375362 -0.277918 0.643459 0
M  V30 23 C -0.434866 -0.782092 -0.219538 0
M  V30 24 N -1.103765 -1.489987 -1.162906 0
M  V30 25 N -2.403025 -1.462949 -0.948188 0
M  V30 26 C -3.222259 -2.170272 -1.870507 0
M  V30 27 C -3.303650 -3.568166 -1.853273 0
M  V30 28 C -4.042968 -4.356447 -2.676792 0
M  V30 29 F -4.044151 -5.695215 -2.568065 0
M  V30 30 C -4.792063 -3.722765 -3.629077 0
M  V30 31 C -4.772557 -2.347164 -3.718876 0
M  V30 32 C -4.000183 -1.602273 -2.852103 0
M  V30 33 F -3.989978 -0.248722 -2.953007 0
M  V30 34 H -0.362469 -1.400777 5.373430 0
M  V30 35 H -1.179672 -1.431658 3.820117 0
M  V30 36 H -0.986312 0.139926 4.764022 0
M  V30 37 H 1.800656 -1.966208 5.050210 0
M  V30 38 H 4.038759 -1.674291 3.971735 0
M  V30 39 H 4.061905 1.333172 0.424364 0
M  V30 40 H 6.932002 0.250668 0.756262 0
M  V30 41 H 7.760348 2.391421 -0.218732 0
M  V30 42 H 6.047191 3.094257 -0.333352 0
M  V30 43 H 5.412799 1.194493 -1.849990 0
M  V30 44 H 7.150917 0.488042 -1.741553 0
M  V30 45 H 2.217243 1.125448 1.274897 0
M  V30 46 H -2.598622 1.419208 3.286307 0
M  V30 47 H -5.424290 -0.339318 -0.671309 0
M  V30 48 H -5.777021 -0.882377 1.033145 0
M  V30 49 H -4.916730 -2.013851 -0.031282 0
M  V30 50 H 0.631071 -0.622026 -0.129614 0
M  V30 51 H -2.701130 -4.081349 -1.087060 0
M  V30 52 H -5.405390 -4.261008 -4.321784 0
M  V30 53 H -5.368376 -1.837529 -4.476768 0
M  V30 END ATOM
M  V30 BEGIN BOND
M  V30 1 1 1 2
M  V30 2 2 2 3
M  V30 3 1 3 4
M  V30 4 2 4 5
M  V30 5 1 5 6
M  V30 6 2 6 7
M  V30 7 1 6 8
M  V30 8 1 8 9
M  V30 9 1 9 10
M  V30 10 1 10 11
M  V30 11 1 5 12
M  V30 12 2 12 13
M  V30 13 1 13 14
M  V30 14 1 14 15
M  V30 15 2 15 16
M  V30 16 1 16 17
M  V30 17 2 17 18
M  V30 18 1 17 19
M  V30 19 1 19 20
M  V30 20 1 19 21
M  V30 21 2 21 22
M  V30 22 1 22 23
M  V30 23 2 23 24
M  V30 24 1 24 25
M  V30 25 1 25 26
M  V30 26 2 26 27
M  V30 27 1 27 28
M  V30 28 1 28 29
M  V30 29 2 28 30
M  V30 30 1 30 31
M  V30 31 2 31 32
M  V30 32 1 32 33
M  V30 33 1 13 2
M  V30 34 1 22 15
M  V30 35 1 32 26
M  V30 36 1 11 9
M  V30 37 1 25 21
M  V30 38 1 1 34
M  V30 39 1 1 35
M  V30 40 1 1 36
M  V30 41 1 3 37
M  V30 42 1 4 38
M  V30 43 1 8 39
M  V30 44 1 9 40
M  V30 45 1 10 41
M  V30 46 1 10 42
M  V30 47 1 11 43
M  V30 48 1 11 44
M  V30 49 1 12 45
M  V30 50 1 16 46
M  V30 51 1 20 47
M  V30 52 1 20 48
M  V30 53 1 20 49
M  V30 54 1 23 50
M  V30 55 1 27 51
M  V30 56 1 30 52
M  V30 57 1 31 53
M  V30 END BOND
M  V30 END CTAB
M  END
>  <Dataset>  (55) 
ChEMBL_Kinases

>  <Ligand_Instance>  (55) 
nan

>  <PDB_ID>  (55) 
nan

>  <Standardized_SMILES>  (55) 
Cc1ccc(C(=O)NC2CC2)cc1Oc1cc(=O)n(C)c2c1cnn2-c1cc(F)ccc1F

>  <Name>  (55) 
nan

>  <Pocket>  (55) 
nan

>  <ATP_Site>  (55) 
nan

>  <Peripheral>  (55) 
nan

>  <Num_H_Atoms_ProtBoundConf>  (55) 
nan

>  <Num_Resolved_Atoms>  (55) 
nan

>  <Num_Not_Resolved_Atoms>  (55) 
nan

$$$$
CHEMBL561526
     RDKit          3D

  0  0  0  0  0  0  0  0  0  0999 V3000
M  V30 BEGIN CTAB
M  V30 COUNTS 53 57 0 0 0
M  V30 BEGIN ATOM
M  V30 1 C 2.375302 -4.370718 2.312585 0
M  V30 2 C 3.380642 -3.247750 2.545134 0
M  V30 3 C 4.734695 -3.821485 2.186867 0
M  V30 4 C 3.397909 -3.002085 4.010056 0
M  V30 5 O 3.129174 -1.828168 4.435418 0
M  V30 6 O 3.457582 -2.946660 5.384912 0
M  V30 7 C 3.055059 -2.046080 1.768649 0
M  V30 8 C 3.663057 -0.842532 2.061454 0
M  V30 9 C 3.367024 0.308594 1.340622 0
M  V30 10 C 2.443076 0.258213 0.303652 0
M  V30 11 C 2.056009 1.399209 -0.519622 0
M  V30 12 C 2.879662 2.344288 -1.116310 0
M  V30 13 N 2.128033 3.232421 -1.793709 0
M  V30 14 C 0.809861 2.905407 -1.666248 0
M  V30 15 N -0.317223 3.483844 -2.155486 0
M  V30 16 C -1.525279 2.954516 -1.877504 0
M  V30 17 C -1.660943 1.817360 -1.093888 0
M  V30 18 C -2.958173 1.212005 -0.769600 0
M  V30 19 C -4.097946 1.975749 -0.631650 0
M  V30 20 C -5.299128 1.352518 -0.324134 0
M  V30 21 C -5.418430 -0.010916 -0.145911 0
M  V30 22 C -6.649842 -0.577550 0.160894 0
M  V30 23 C -6.733531 -1.943620 0.332244 0
M  V30 24 C -5.592139 -2.736297 0.197183 0
M  V30 25 C -4.396681 -2.119548 -0.108191 0
M  V30 26 C -4.284982 -0.758713 -0.284429 0
M  V30 27 C -3.053786 -0.170202 -0.593839 0
M  V30 28 C -0.483240 1.256424 -0.613080 0
M  V30 29 C 0.757885 1.766482 -0.875169 0
M  V30 30 C 1.821919 -0.936226 -0.007358 0
M  V30 31 C 2.128377 -2.089610 0.726059 0
M  V30 32 H 2.544224 -4.845596 1.330293 0
M  V30 33 H 2.591070 -5.127237 3.109427 0
M  V30 34 H 1.362337 -3.949170 2.396303 0
M  V30 35 H 5.147227 -4.374429 3.056806 0
M  V30 36 H 4.644994 -4.575377 1.359150 0
M  V30 37 H 5.478905 -3.044425 1.928471 0
M  V30 38 H 3.203334 -3.789983 5.924284 0
M  V30 39 H 4.391034 -0.701538 2.841267 0
M  V30 40 H 3.826610 1.288892 1.538611 0
M  V30 41 H 3.962792 2.383453 -1.061176 0
M  V30 42 H 2.446461 4.073022 -2.356224 0
M  V30 43 H -2.453523 3.388498 -2.250837 0
M  V30 44 H -4.053372 3.043635 -0.761975 0
M  V30 45 H -6.176027 1.974403 -0.221787 0
M  V30 46 H -7.522341 0.071659 0.259254 0
M  V30 47 H -7.682968 -2.414611 0.572576 0
M  V30 48 H -5.699841 -3.807750 0.339435 0
M  V30 49 H -3.532261 -2.774548 -0.204462 0
M  V30 50 H -2.206110 -0.817330 -0.687392 0
M  V30 51 H -0.578863 0.386779 -0.011800 0
M  V30 52 H 1.094880 -1.149216 -0.767673 0
M  V30 53 H 1.683558 -3.071982 0.545449 0
M  V30 END ATOM
M  V30 BEGIN BOND
M  V30 1 1 1 2
M  V30 2 1 2 3
M  V30 3 1 2 4
M  V30 4 2 4 5
M  V30 5 1 4 6
M  V30 6 1 2 7
M  V30 7 2 7 8
M  V30 8 1 8 9
M  V30 9 2 9 10
M  V30 10 1 10 11
M  V30 11 2 11 12
M  V30 12 1 12 13
M  V30 13 1 13 14
M  V30 14 2 14 15
M  V30 15 1 15 16
M  V30 16 2 16 17
M  V30 17 1 17 18
M  V30 18 2 18 19
M  V30 19 1 19 20
M  V30 20 2 20 21
M  V30 21 1 21 22
M  V30 22 2 22 23
M  V30 23 1 23 24
M  V30 24 2 24 25
M  V30 25 1 25 26
M  V30 26 2 26 27
M  V30 27 1 17 28
M  V30 28 2 28 29
M  V30 29 1 10 30
M  V30 30 2 30 31
M  V30 31 1 31 7
M  V30 32 1 29 11
M  V30 33 1 29 14
M  V30 34 1 27 18
M  V30 35 1 26 21
M  V30 36 1 1 32
M  V30 37 1 1 33
M  V30 38 1 1 34
M  V30 39 1 3 35
M  V30 40 1 3 36
M  V30 41 1 3 37
M  V30 42 1 6 38
M  V30 43 1 8 39
M  V30 44 1 9 40
M  V30 45 1 12 41
M  V30 46 1 13 42
M  V30 47 1 16 43
M  V30 48 1 19 44
M  V30 49 1 20 45
M  V30 50 1 22 46
M  V30 51 1 23 47
M  V30 52 1 24 48
M  V30 53 1 25 49
M  V30 54 1 27 50
M  V30 55 1 28 51
M  V30 56 1 30 52
M  V30 57 1 31 53
M  V30 END BOND
M  V30 END CTAB
M  END
>  <Dataset>  (56) 
ChEMBL_Kinases

>  <Ligand_Instance>  (56) 
nan

>  <PDB_ID>  (56) 
nan

>  <Standardized_SMILES>  (56) 
CC(C)(C(=O)O)c1ccc(-c2c[nH]c3ncc(-c4ccc5ccccc5c4)cc23)cc1

>  <Name>  (56) 
nan

>  <Pocket>  (56) 
nan

>  <ATP_Site>  (56) 
nan

>  <Peripheral>  (56) 
nan

>  <Num_H_Atoms_ProtBoundConf>  (56) 
nan

>  <Num_Resolved_Atoms>  (56) 
nan

>  <Num_Not_Resolved_Atoms>  (56) 
nan

$$$$
CHEMBL559411
     RDKit          3D

  0  0  0  0  0  0  0  0  0  0999 V3000
M  V30 BEGIN CTAB
M  V30 COUNTS 39 41 0 0 0
M  V30 BEGIN ATOM
M  V30 1 C 2.820570 -5.992640 1.541673 0
M  V30 2 O 3.067369 -4.640340 1.769129 0
M  V30 3 C 3.821656 -4.092314 0.722034 0
M  V30 4 C 4.107449 -2.645662 0.927428 0
M  V30 5 O 3.058119 -1.783203 1.035214 0
M  V30 6 C 2.053230 -1.421413 0.189412 0
M  V30 7 C 1.953390 -1.940893 -1.076689 0
M  V30 8 C 0.910109 -1.515069 -1.841282 0
M  V30 9 C 0.021714 -0.583421 -1.281970 0
M  V30 10 S -1.464504 0.201997 -1.989162 0
M  V30 11 C -1.838390 1.139110 -0.594374 0
M  V30 12 C -0.871307 0.847090 0.331646 0
M  V30 13 C 0.090105 -0.038441 -0.013313 0
M  V30 14 C 1.179338 -0.510899 0.726402 0
M  V30 15 N -0.894357 1.479292 1.633183 0
M  V30 16 C -1.513591 2.758832 2.009880 0
M  V30 17 C -3.006190 2.697985 1.920186 0 CFG=1
M  V30 18 C -3.705601 3.663134 2.821081 0
M  V30 19 N -3.424199 2.903175 0.525657 0
M  V30 20 C -3.008378 2.038277 -0.555376 0
M  V30 21 O -3.691170 2.008775 -1.617215 0
M  V30 22 H 3.777805 -6.569803 1.464718 0
M  V30 23 H 2.258590 -6.173852 0.596000 0
M  V30 24 H 2.236888 -6.379592 2.389029 0
M  V30 25 H 4.824081 -4.620854 0.772670 0
M  V30 26 H 3.411456 -4.362018 -0.240779 0
M  V30 27 H 4.755979 -2.273546 0.072881 0
M  V30 28 H 4.710277 -2.589432 1.882116 0
M  V30 29 H 2.604668 -2.641492 -1.551190 0
M  V30 30 H 0.724150 -1.848250 -2.847713 0
M  V30 31 H 1.321725 -0.134361 1.755379 0
M  V30 32 H -0.396106 0.940683 2.404752 0
M  V30 33 H -1.096203 3.542724 1.347407 0
M  V30 34 H -1.242369 2.939120 3.069708 0
M  V30 35 H -3.302056 1.645998 2.204896 0
M  V30 36 H -3.009045 3.928248 3.648997 0
M  V30 37 H -3.993798 4.558328 2.251314 0
M  V30 38 H -4.622379 3.171753 3.213132 0
M  V30 39 H -4.042060 3.652167 0.129253 0
M  V30 END ATOM
M  V30 BEGIN BOND
M  V30 1 1 1 2
M  V30 2 1 2 3
M  V30 3 1 3 4
M  V30 4 1 4 5
M  V30 5 1 5 6
M  V30 6 2 6 7
M  V30 7 1 7 8
M  V30 8 2 8 9
M  V30 9 1 9 10
M  V30 10 1 10 11
M  V30 11 2 11 12
M  V30 12 1 12 13
M  V30 13 2 13 14
M  V30 14 1 12 15
M  V30 15 1 15 16
M  V30 16 1 16 17
M  V30 17 1 17 18
M  V30 18 1 17 19
M  V30 19 1 19 20
M  V30 20 2 20 21
M  V30 21 1 14 6
M  V30 22 1 13 9
M  V30 23 1 20 11
M  V30 24 1 1 22
M  V30 25 1 1 23
M  V30 26 1 1 24
M  V30 27 1 3 25
M  V30 28 1 3 26
M  V30 29 1 4 27
M  V30 30 1 4 28
M  V30 31 1 7 29
M  V30 32 1 8 30
M  V30 33 1 14 31
M  V30 34 1 15 32
M  V30 35 1 16 33
M  V30 36 1 16 34
M  V30 37 1 17 35 CFG=1
M  V30 38 1 18 36
M  V30 39 1 18 37
M  V30 40 1 18 38
M  V30 41 1 19 39
M  V30 END BOND
M  V30 END CTAB
M  END
>  <Dataset>  (57) 
ChEMBL_Kinases

>  <Ligand_Instance>  (57) 
nan

>  <PDB_ID>  (57) 
nan

>  <Standardized_SMILES>  (57) 
COCCOc1ccc2sc3c(c2c1)NC[C@@H](C)NC3=O

>  <Name>  (57) 
nan

>  <Pocket>  (57) 
nan

>  <ATP_Site>  (57) 
nan

>  <Peripheral>  (57) 
nan

>  <Num_H_Atoms_ProtBoundConf>  (57) 
nan

>  <Num_Resolved_Atoms>  (57) 
nan

>  <Num_Not_Resolved_Atoms>  (57) 
nan

$$$$
CHEMBL562023
     RDKit          3D

  0  0  0  0  0  0  0  0  0  0999 V3000
M  V30 BEGIN CTAB
M  V30 COUNTS 37 40 0 0 0
M  V30 BEGIN ATOM
M  V30 1 C -0.026844 -4.865671 1.883746 0
M  V30 2 N 0.015266 -3.424638 1.689771 0
M  V30 3 C -1.043422 -2.672909 1.276591 0
M  V30 4 C -0.634637 -1.356521 1.216127 0
M  V30 5 C -1.479182 -0.217238 0.833463 0
M  V30 6 C -1.269388 0.818309 0.026702 0
M  V30 7 C -0.145479 1.243208 -0.794140 0
M  V30 8 C 0.389757 0.259230 -1.596115 0
M  V30 9 C 1.482751 0.577829 -2.406929 0
M  V30 10 Cl 2.225467 -0.620272 -3.460245 0
M  V30 11 C 1.936157 1.876819 -2.327247 0
M  V30 12 C 1.425684 2.876834 -1.540288 0
M  V30 13 C 0.331185 2.542543 -0.734925 0
M  V30 14 Cl -0.373936 3.755587 0.324486 0
M  V30 15 C -2.484025 1.661411 0.010714 0
M  V30 16 O -2.812605 2.726190 -0.569042 0
M  V30 17 N -3.466746 1.086786 0.860590 0
M  V30 18 C -2.846342 -0.102859 1.389978 0
M  V30 19 O -3.412808 -0.901716 2.199694 0
M  V30 20 C 0.707754 -1.372730 1.610360 0
M  V30 21 C 1.613566 -0.357188 1.740521 0
M  V30 22 C 2.925075 -0.598875 2.160816 0
M  V30 23 C 3.232652 -1.914007 2.429653 0
M  V30 24 C 2.374659 -2.986424 2.322878 0
M  V30 25 C 1.082799 -2.666252 1.897770 0
M  V30 26 H -1.060069 -5.252888 1.733438 0
M  V30 27 H 0.618753 -5.366235 1.153564 0
M  V30 28 H 0.238194 -5.066754 2.936626 0
M  V30 29 H -2.027085 -3.035613 1.039297 0
M  V30 30 H 0.011954 -0.754712 -1.635603 0
M  V30 31 H 2.793730 2.121742 -2.962813 0
M  V30 32 H 1.796326 3.884630 -1.496630 0
M  V30 33 H -4.442454 1.368315 1.122159 0
M  V30 34 H 1.362340 0.653598 1.535520 0
M  V30 35 H 3.628811 0.215289 2.259118 0
M  V30 36 H 4.242477 -2.097012 2.758283 0
M  V30 37 H 2.687314 -3.994231 2.555083 0
M  V30 END ATOM
M  V30 BEGIN BOND
M  V30 1 1 1 2
M  V30 2 1 2 3
M  V30 3 2 3 4
M  V30 4 1 4 5
M  V30 5 2 5 6
M  V30 6 1 6 7
M  V30 7 2 7 8
M  V30 8 1 8 9
M  V30 9 1 9 10
M  V30 10 2 9 11
M  V30 11 1 11 12
M  V30 12 2 12 13
M  V30 13 1 13 14
M  V30 14 1 6 15
M  V30 15 2 15 16
M  V30 16 1 15 17
M  V30 17 1 17 18
M  V30 18 2 18 19
M  V30 19 1 4 20
M  V30 20 2 20 21
M  V30 21 1 21 22
M  V30 22 2 22 23
M  V30 23 1 23 24
M  V30 24 2 24 25
M  V30 25 1 25 2
M  V30 26 1 18 5
M  V30 27 1 25 20
M  V30 28 1 13 7
M  V30 29 1 1 26
M  V30 30 1 1 27
M  V30 31 1 1 28
M  V30 32 1 3 29
M  V30 33 1 8 30
M  V30 34 1 11 31
M  V30 35 1 12 32
M  V30 36 1 17 33
M  V30 37 1 21 34
M  V30 38 1 22 35
M  V30 39 1 23 36
M  V30 40 1 24 37
M  V30 END BOND
M  V30 END CTAB
M  END
>  <Dataset>  (58) 
ChEMBL_Kinases

>  <Ligand_Instance>  (58) 
nan

>  <PDB_ID>  (58) 
nan

>  <Standardized_SMILES>  (58) 
Cn1cc(C2=C(c3cc(Cl)ccc3Cl)C(=O)NC2=O)c2ccccc21

>  <Name>  (58) 
nan

>  <Pocket>  (58) 
nan

>  <ATP_Site>  (58) 
nan

>  <Peripheral>  (58) 
nan

>  <Num_H_Atoms_ProtBoundConf>  (58) 
nan

>  <Num_Resolved_Atoms>  (58) 
nan

>  <Num_Not_Resolved_Atoms>  (58) 
nan

$$$$
CHEMBL562089
     RDKit          3D

  0  0  0  0  0  0  0  0  0  0999 V3000
M  V30 BEGIN CTAB
M  V30 COUNTS 66 70 0 0 0
M  V30 BEGIN ATOM
M  V30 1 O 4.514672 1.810684 4.856028 0
M  V30 2 C 4.163592 0.672993 4.378277 0
M  V30 3 C 4.529397 -0.519394 5.172256 0
M  V30 4 N 4.015497 -1.716441 4.515551 0
M  V30 5 C 4.497689 -2.917386 5.182539 0
M  V30 6 C 4.117963 -2.842653 6.637420 0
M  V30 7 O 2.793611 -2.521955 6.850151 0
M  V30 8 C 2.044936 -2.653096 5.685253 0
M  V30 9 C 2.552388 -1.731129 4.589581 0
M  V30 10 N 3.483634 0.774287 3.162892 0
M  V30 11 C 2.905131 1.425429 2.069315 0
M  V30 12 C 3.671681 1.815863 0.969523 0
M  V30 13 C 3.042872 2.451975 -0.080652 0
M  V30 14 C 1.686106 2.659077 0.030923 0
M  V30 15 C 1.008925 3.347316 -1.104946 0
M  V30 16 C 0.659592 2.360762 -2.198152 0
M  V30 17 N -0.167188 1.276913 -1.784886 0
M  V30 18 C -1.494238 1.171039 -1.228616 0
M  V30 19 O -1.958490 2.361281 -1.126743 0
M  V30 20 C -2.009947 -0.154149 -0.911875 0
M  V30 21 C -1.518903 -0.678503 0.267986 0
M  V30 22 C -1.921729 -1.940488 0.681022 0
M  V30 23 C -2.824577 -2.604841 -0.158784 0
M  V30 24 O -3.244870 -3.858779 0.220407 0
M  V30 25 C -3.315064 -2.074026 -1.342871 0
M  V30 26 N -4.159385 -2.512399 -2.289942 0
M  V30 27 C -4.284077 -1.580466 -3.249657 0
M  V30 28 C -5.119192 -1.741985 -4.432434 0
M  V30 29 C -5.813531 -2.932154 -4.536032 0
M  V30 30 C -6.645113 -3.243313 -5.612053 0
M  V30 31 C -6.765108 -2.293452 -6.616113 0
M  V30 32 F -7.576564 -2.604701 -7.665992 0
M  V30 33 C -6.076105 -1.072797 -6.545946 0
M  V30 34 C -5.271591 -0.834098 -5.450680 0
M  V30 35 N -3.490451 -0.528434 -2.884971 0
M  V30 36 C -2.893110 -0.826374 -1.715238 0
M  V30 37 C 0.871598 2.301018 1.083756 0
M  V30 38 C 1.532154 1.666736 2.118859 0
M  V30 39 H 4.185942 -0.427381 6.225036 0
M  V30 40 H 5.644388 -0.588893 5.176396 0
M  V30 41 H 4.014857 -3.800003 4.715394 0
M  V30 42 H 5.607994 -2.976937 5.151301 0
M  V30 43 H 4.805300 -2.111660 7.140716 0
M  V30 44 H 4.249092 -3.860274 7.123421 0
M  V30 45 H 1.014693 -2.277040 5.944935 0
M  V30 46 H 1.946202 -3.695100 5.371600 0
M  V30 47 H 2.103676 -2.095592 3.668373 0
M  V30 48 H 2.178776 -0.708690 4.831971 0
M  V30 49 H 3.264651 -0.210853 2.804181 0
M  V30 50 H 4.726537 1.594853 1.000723 0
M  V30 51 H 3.617159 2.763753 -0.940405 0
M  V30 52 H 0.102863 3.825092 -0.761232 0
M  V30 53 H 1.664557 4.116684 -1.538540 0
M  V30 54 H 1.599562 1.978854 -2.624276 0
M  V30 55 H 0.203558 2.978050 -3.007853 0
M  V30 56 H 0.292735 0.313404 -1.913091 0
M  V30 57 H -0.816633 -0.155913 0.912254 0
M  V30 58 H -1.599271 -2.457633 1.596210 0
M  V30 59 H -3.109484 -4.720802 -0.281729 0
M  V30 60 H -4.591648 -3.453669 -2.187775 0
M  V30 61 H -5.781574 -3.726914 -3.798912 0
M  V30 62 H -7.175602 -4.180930 -5.667334 0
M  V30 63 H -6.183742 -0.345835 -7.338104 0
M  V30 64 H -4.711377 0.102267 -5.339818 0
M  V30 65 H -0.188361 2.487419 1.119890 0
M  V30 66 H 0.949730 1.347083 2.998748 0
M  V30 END ATOM
M  V30 BEGIN BOND
M  V30 1 2 1 2
M  V30 2 1 2 3
M  V30 3 1 3 4
M  V30 4 1 4 5
M  V30 5 1 5 6
M  V30 6 1 6 7
M  V30 7 1 7 8
M  V30 8 1 8 9
M  V30 9 1 2 10
M  V30 10 1 10 11
M  V30 11 2 11 12
M  V30 12 1 12 13
M  V30 13 2 13 14
M  V30 14 1 14 15
M  V30 15 1 15 16
M  V30 16 1 16 17
M  V30 17 1 17 18
M  V30 18 2 18 19
M  V30 19 1 18 20
M  V30 20 2 20 21
M  V30 21 1 21 22
M  V30 22 2 22 23
M  V30 23 1 23 24
M  V30 24 1 23 25
M  V30 25 1 25 26
M  V30 26 1 26 27
M  V30 27 1 27 28
M  V30 28 2 28 29
M  V30 29 1 29 30
M  V30 30 2 30 31
M  V30 31 1 31 32
M  V30 32 1 31 33
M  V30 33 2 33 34
M  V30 34 2 27 35
M  V30 35 1 35 36
M  V30 36 1 14 37
M  V30 37 2 37 38
M  V30 38 1 9 4
M  V30 39 1 38 11
M  V30 40 1 36 20
M  V30 41 2 36 25
M  V30 42 1 34 28
M  V30 43 1 3 39
M  V30 44 1 3 40
M  V30 45 1 5 41
M  V30 46 1 5 42
M  V30 47 1 6 43
M  V30 48 1 6 44
M  V30 49 1 8 45
M  V30 50 1 8 46
M  V30 51 1 9 47
M  V30 52 1 9 48
M  V30 53 1 10 49
M  V30 54 1 12 50
M  V30 55 1 13 51
M  V30 56 1 15 52
M  V30 57 1 15 53
M  V30 58 1 16 54
M  V30 59 1 16 55
M  V30 60 1 17 56
M  V30 61 1 21 57
M  V30 62 1 22 58
M  V30 63 1 24 59
M  V30 64 1 26 60
M  V30 65 1 29 61
M  V30 66 1 30 62
M  V30 67 1 33 63
M  V30 68 1 34 64
M  V30 69 1 37 65
M  V30 70 1 38 66
M  V30 END BOND
M  V30 END CTAB
M  END
>  <Dataset>  (59) 
ChEMBL_Kinases

>  <Ligand_Instance>  (59) 
nan

>  <PDB_ID>  (59) 
nan

>  <Standardized_SMILES>  (59) 
O=C(CN1CCOCC1)Nc1ccc(CCNC(=O)c2ccc(O)c3[nH]c(-c4ccc(F)cc4)nc23)cc1

>  <Name>  (59) 
nan

>  <Pocket>  (59) 
nan

>  <ATP_Site>  (59) 
nan

>  <Peripheral>  (59) 
nan

>  <Num_H_Atoms_ProtBoundConf>  (59) 
nan

>  <Num_Resolved_Atoms>  (59) 
nan

>  <Num_Not_Resolved_Atoms>  (59) 
nan

$$$$
CHEMBL562137
     RDKit          3D

  0  0  0  0  0  0  0  0  0  0999 V3000
M  V30 BEGIN CTAB
M  V30 COUNTS 47 51 0 0 0
M  V30 BEGIN ATOM
M  V30 1 C 4.226980 -4.112080 1.010098 0
M  V30 2 O 3.767327 -2.813516 1.212781 0
M  V30 3 C 4.455840 -1.743921 1.687105 0
M  V30 4 C 5.772117 -1.958843 2.010792 0
M  V30 5 C 6.531612 -0.926876 2.495851 0
M  V30 6 C 5.941738 0.307522 2.644467 0
M  V30 7 C 4.616095 0.479636 2.307035 0
M  V30 8 C 3.806897 -0.543927 1.809830 0
M  V30 9 C 2.431079 -0.215972 1.498233 0
M  V30 10 C 1.468434 -1.060097 1.003664 0
M  V30 11 C 0.191451 -0.605921 0.754398 0
M  V30 12 C -0.220552 0.678725 0.970188 0
M  V30 13 C 0.786839 1.469141 1.461147 0
M  V30 14 C 0.660666 2.840753 1.733846 0
M  V30 15 C -0.581203 3.377312 1.472077 0
M  V30 16 C -1.555004 2.538370 0.983325 0
M  V30 17 S -3.205753 2.999352 0.565476 0
M  V30 18 C -3.705484 1.347601 0.040634 0
M  V30 19 C -2.538659 0.548517 0.232515 0
M  V30 20 C -1.452365 1.212322 0.716556 0
M  V30 21 N -2.728096 -0.837734 -0.032107 0
M  V30 22 C -3.375266 -1.500840 -1.172836 0
M  V30 23 C -4.874814 -1.454769 -1.061380 0 CFG=1
M  V30 24 C -5.209941 -2.080723 0.298439 0
M  V30 25 N -5.445604 -0.133580 -1.109111 0
M  V30 26 C -5.076183 1.115024 -0.466383 0
M  V30 27 O -5.862225 2.074188 -0.291002 0
M  V30 28 N 2.042392 1.048411 1.712584 0
M  V30 29 H 4.531497 -4.506317 2.011277 0
M  V30 30 H 5.056177 -4.176219 0.290397 0
M  V30 31 H 3.350111 -4.700188 0.609509 0
M  V30 32 H 6.231828 -2.929130 1.892834 0
M  V30 33 H 7.568912 -1.087723 2.753135 0
M  V30 34 H 6.558867 1.097255 3.026011 0
M  V30 35 H 4.265377 1.491956 2.467232 0
M  V30 36 H 1.734977 -2.067048 0.820257 0
M  V30 37 H -0.415006 -1.352667 0.339513 0
M  V30 38 H 1.431845 3.472943 2.116365 0
M  V30 39 H -0.792121 4.422343 1.642374 0
M  V30 40 H -2.327109 -1.398753 0.804593 0
M  V30 41 H -3.093695 -0.965585 -2.093625 0
M  V30 42 H -3.017926 -2.523252 -1.276672 0
M  V30 43 H -5.321145 -2.043496 -1.860653 0
M  V30 44 H -6.242707 -1.879401 0.615216 0
M  V30 45 H -5.034201 -3.183352 0.151356 0
M  V30 46 H -4.463110 -1.713519 1.025153 0
M  V30 47 H -6.300804 0.049806 -1.700900 0
M  V30 END ATOM
M  V30 BEGIN BOND
M  V30 1 1 1 2
M  V30 2 1 2 3
M  V30 3 2 3 4
M  V30 4 1 4 5
M  V30 5 2 5 6
M  V30 6 1 6 7
M  V30 7 2 7 8
M  V30 8 1 8 9
M  V30 9 2 9 10
M  V30 10 1 10 11
M  V30 11 2 11 12
M  V30 12 1 12 13
M  V30 13 1 13 14
M  V30 14 2 14 15
M  V30 15 1 15 16
M  V30 16 1 16 17
M  V30 17 1 17 18
M  V30 18 2 18 19
M  V30 19 1 19 20
M  V30 20 1 19 21
M  V30 21 1 21 22
M  V30 22 1 22 23
M  V30 23 1 23 24
M  V30 24 1 23 25
M  V30 25 1 25 26
M  V30 26 2 26 27
M  V30 27 2 13 28
M  V30 28 1 8 3
M  V30 29 1 28 9
M  V30 30 1 20 12
M  V30 31 2 20 16
M  V30 32 1 26 18
M  V30 33 1 1 29
M  V30 34 1 1 30
M  V30 35 1 1 31
M  V30 36 1 4 32
M  V30 37 1 5 33
M  V30 38 1 6 34
M  V30 39 1 7 35
M  V30 40 1 10 36
M  V30 41 1 11 37
M  V30 42 1 14 38
M  V30 43 1 15 39
M  V30 44 1 21 40
M  V30 45 1 22 41
M  V30 46 1 22 42
M  V30 47 1 23 43 CFG=3
M  V30 48 1 24 44
M  V30 49 1 24 45
M  V30 50 1 24 46
M  V30 51 1 25 47
M  V30 END BOND
M  V30 END CTAB
M  END
>  <Dataset>  (60) 
ChEMBL_Kinases

>  <Ligand_Instance>  (60) 
nan

>  <PDB_ID>  (60) 
nan

>  <Standardized_SMILES>  (60) 
COc1ccccc1-c1ccc2c(ccc3sc4c(c32)NC[C@@H](C)NC4=O)n1

>  <Name>  (60) 
nan

>  <Pocket>  (60) 
nan

>  <ATP_Site>  (60) 
nan

>  <Peripheral>  (60) 
nan

>  <Num_H_Atoms_ProtBoundConf>  (60) 
nan

>  <Num_Resolved_Atoms>  (60) 
nan

>  <Num_Not_Resolved_Atoms>  (60) 
nan

$$$$
CHEMBL562178
     RDKit          3D

  0  0  0  0  0  0  0  0  0  0999 V3000
M  V30 BEGIN CTAB
M  V30 COUNTS 36 38 0 0 0
M  V30 BEGIN ATOM
M  V30 1 N -0.291175 -2.123645 1.117056 0
M  V30 2 C -0.317287 -0.798709 0.586230 0
M  V30 3 C 0.771576 -0.062426 0.176640 0
M  V30 4 C 2.067912 -0.695569 0.281756 0
M  V30 5 O 2.032786 -1.911790 0.676714 0
M  V30 6 C 3.415756 -0.276841 0.042629 0
M  V30 7 C 4.355144 -1.199343 -0.368676 0
M  V30 8 C 5.687149 -0.894252 -0.615095 0
M  V30 9 C 6.114071 0.396022 -0.444877 0
M  V30 10 C 5.239856 1.371180 -0.037231 0
M  V30 11 C 3.937004 0.989240 0.186489 0
M  V30 12 C 0.472791 1.191939 -0.297640 0
M  V30 13 C -0.775374 1.756621 -0.394921 0
M  V30 14 N -1.815513 1.012938 0.012871 0 CHG=1 VAL=4
M  V30 15 O -3.080507 1.540105 -0.067381 0 CHG=-1 VAL=1
M  V30 16 C -1.593538 -0.224471 0.487871 0
M  V30 17 C -2.779793 -0.960597 0.907671 0
M  V30 18 C -3.493167 -1.764883 0.042194 0
M  V30 19 C -4.602480 -2.421747 0.531655 0
M  V30 20 C -5.009073 -2.290731 1.860147 0
M  V30 21 C -4.273005 -1.476229 2.705673 0
M  V30 22 C -3.150186 -0.810109 2.214153 0
M  V30 23 Cl -2.264499 0.203612 3.334761 0
M  V30 24 H -0.488698 -3.089653 0.814588 0
M  V30 25 H 0.036590 -1.934911 2.097418 0
M  V30 26 H 4.070108 -2.242067 -0.520207 0
M  V30 27 H 6.406158 -1.638726 -0.938093 0
M  V30 28 H 7.148679 0.641393 -0.634944 0
M  V30 29 H 5.583153 2.380094 0.093810 0
M  V30 30 H 3.296045 1.791215 0.517166 0
M  V30 31 H 1.289948 1.803922 -0.640755 0
M  V30 32 H -0.903834 2.756967 -0.784418 0
M  V30 33 H -3.175666 -1.865324 -0.989471 0
M  V30 34 H -5.194638 -3.061002 -0.099137 0
M  V30 35 H -5.879488 -2.816996 2.210552 0
M  V30 36 H -4.623139 -1.402101 3.729786 0
M  V30 END ATOM
M  V30 BEGIN BOND
M  V30 1 1 1 2
M  V30 2 2 2 3
M  V30 3 1 3 4
M  V30 4 2 4 5
M  V30 5 1 4 6
M  V30 6 2 6 7
M  V30 7 1 7 8
M  V30 8 2 8 9
M  V30 9 1 9 10
M  V30 10 2 10 11
M  V30 11 1 3 12
M  V30 12 2 12 13
M  V30 13 1 13 14
M  V30 14 1 14 15
M  V30 15 2 14 16
M  V30 16 1 16 17
M  V30 17 2 17 18
M  V30 18 1 18 19
M  V30 19 2 19 20
M  V30 20 1 20 21
M  V30 21 2 21 22
M  V30 22 1 22 23
M  V30 23 1 16 2
M  V30 24 1 22 17
M  V30 25 1 11 6
M  V30 26 1 1 24
M  V30 27 1 1 25
M  V30 28 1 7 26
M  V30 29 1 8 27
M  V30 30 1 9 28
M  V30 31 1 10 29
M  V30 32 1 11 30
M  V30 33 1 12 31
M  V30 34 1 13 32
M  V30 35 1 18 33
M  V30 36 1 19 34
M  V30 37 1 20 35
M  V30 38 1 21 36
M  V30 END BOND
M  V30 END CTAB
M  END
>  <Dataset>  (61) 
ChEMBL_Kinases

>  <Ligand_Instance>  (61) 
nan

>  <PDB_ID>  (61) 
nan

>  <Standardized_SMILES>  (61) 
Nc1c(C(=O)c2ccccc2)cc[n+]([O-])c1-c1ccccc1Cl

>  <Name>  (61) 
nan

>  <Pocket>  (61) 
nan

>  <ATP_Site>  (61) 
nan

>  <Peripheral>  (61) 
nan

>  <Num_H_Atoms_ProtBoundConf>  (61) 
nan

>  <Num_Resolved_Atoms>  (61) 
nan

>  <Num_Not_Resolved_Atoms>  (61) 
nan

$$$$
CHEMBL562194
     RDKit          3D

  0  0  0  0  0  0  0  0  0  0999 V3000
M  V30 BEGIN CTAB
M  V30 COUNTS 41 45 0 0 0
M  V30 BEGIN ATOM
M  V30 1 C -1.043175 -5.696091 2.263149 0
M  V30 2 C -0.344198 -4.780845 1.308462 0 CFG=2
M  V30 3 C -0.828426 -3.362414 1.477005 0
M  V30 4 N 0.123527 -2.412139 0.874527 0
M  V30 5 C 0.382755 -2.123144 -0.495094 0
M  V30 6 C 0.351379 -3.221197 -1.378313 0
M  V30 7 S 0.736860 -2.587471 -2.962195 0
M  V30 8 C 0.928487 -0.849761 -2.381533 0
M  V30 9 C 1.246604 0.270291 -3.140930 0
M  V30 10 C 1.330257 1.481786 -2.493625 0
M  V30 11 C 1.079368 1.419844 -1.140002 0
M  V30 12 O 1.110570 2.493185 -0.347965 0
M  V30 13 C 0.836721 2.183147 0.887800 0
M  V30 14 C 0.777890 3.094192 2.029933 0
M  V30 15 C 1.036227 4.429750 1.799261 0
M  V30 16 C 0.995660 5.339176 2.838873 0
M  V30 17 C 0.684036 4.825264 4.100790 0
M  V30 18 C 0.421232 3.482997 4.350160 0
M  V30 19 C 0.471803 2.604934 3.283350 0
M  V30 20 C 0.621381 0.820217 0.856024 0
M  V30 21 C 0.766184 0.297699 -0.406458 0
M  V30 22 C 0.679887 -0.920592 -1.036599 0
M  V30 23 C 0.078061 -4.657436 -1.252054 0
M  V30 24 O 0.325346 -5.349286 -2.258330 0
M  V30 25 N -0.446356 -5.273738 -0.051428 0
M  V30 26 H -1.984623 -5.201522 2.591488 0
M  V30 27 H -0.429974 -5.836518 3.176697 0
M  V30 28 H -1.227260 -6.697299 1.835516 0
M  V30 29 H 0.754850 -4.810509 1.556192 0
M  V30 30 H -0.790300 -3.164452 2.576944 0
M  V30 31 H -1.813960 -3.195060 1.046934 0
M  V30 32 H 0.736986 -1.843065 1.539268 0
M  V30 33 H 1.415638 0.173672 -4.183390 0
M  V30 34 H 1.570989 2.356567 -3.040275 0
M  V30 35 H 1.277599 4.792848 0.790578 0
M  V30 36 H 1.190511 6.390458 2.704200 0
M  V30 37 H 0.658095 5.568687 4.910780 0
M  V30 38 H 0.186442 3.166533 5.364363 0
M  V30 39 H 0.267255 1.557147 3.474690 0
M  V30 40 H 0.364817 0.322107 1.769583 0
M  V30 41 H -0.946310 -6.184011 -0.283294 0
M  V30 END ATOM
M  V30 BEGIN BOND
M  V30 1 1 1 2
M  V30 2 1 2 3
M  V30 3 1 3 4
M  V30 4 1 4 5
M  V30 5 2 5 6
M  V30 6 1 6 7
M  V30 7 1 7 8
M  V30 8 2 8 9
M  V30 9 1 9 10
M  V30 10 2 10 11
M  V30 11 1 11 12
M  V30 12 1 12 13
M  V30 13 1 13 14
M  V30 14 2 14 15
M  V30 15 1 15 16
M  V30 16 2 16 17
M  V30 17 1 17 18
M  V30 18 2 18 19
M  V30 19 2 13 20
M  V30 20 1 20 21
M  V30 21 2 21 22
M  V30 22 1 6 23
M  V30 23 2 23 24
M  V30 24 1 23 25
M  V30 25 1 25 2
M  V30 26 1 22 5
M  V30 27 1 22 8
M  V30 28 1 21 11
M  V30 29 1 19 14
M  V30 30 1 1 26
M  V30 31 1 1 27
M  V30 32 1 1 28
M  V30 33 1 2 29 CFG=1
M  V30 34 1 3 30
M  V30 35 1 3 31
M  V30 36 1 4 32
M  V30 37 1 9 33
M  V30 38 1 10 34
M  V30 39 1 15 35
M  V30 40 1 16 36
M  V30 41 1 17 37
M  V30 42 1 18 38
M  V30 43 1 19 39
M  V30 44 1 20 40
M  V30 45 1 25 41
M  V30 END BOND
M  V30 END CTAB
M  END
>  <Dataset>  (62) 
ChEMBL_Kinases

>  <Ligand_Instance>  (62) 
nan

>  <PDB_ID>  (62) 
nan

>  <Standardized_SMILES>  (62) 
C[C@@H]1CNc2c(sc3ccc4oc(-c5ccccc5)cc4c23)C(=O)N1

>  <Name>  (62) 
nan

>  <Pocket>  (62) 
nan

>  <ATP_Site>  (62) 
nan

>  <Peripheral>  (62) 
nan

>  <Num_H_Atoms_ProtBoundConf>  (62) 
nan

>  <Num_Resolved_Atoms>  (62) 
nan

>  <Num_Not_Resolved_Atoms>  (62) 
nan

$$$$
CHEMBL562370
     RDKit          3D

  0  0  0  0  0  0  0  0  0  0999 V3000
M  V30 BEGIN CTAB
M  V30 COUNTS 53 56 0 0 0
M  V30 BEGIN ATOM
M  V30 1 C -5.118338 -3.653501 -0.413913 0
M  V30 2 N -4.050937 -4.593725 -0.742640 0
M  V30 3 C -2.688919 -4.168939 -0.809025 0
M  V30 4 N -2.389457 -2.874944 -0.561063 0
M  V30 5 C -1.117968 -2.414035 -0.608079 0
M  V30 6 N -0.611450 -1.176614 -0.396168 0
M  V30 7 C 0.733009 -1.210974 -0.559704 0
M  V30 8 C 1.750702 -0.154753 -0.446955 0
M  V30 9 C 3.103197 -0.391730 -0.655171 0
M  V30 10 C 3.964391 0.679521 -0.520253 0
M  V30 11 C 3.447229 1.914948 -0.189879 0
M  V30 12 C 2.088738 2.165242 0.022095 0
M  V30 13 C 1.745656 3.569649 0.367809 0
M  V30 14 N 1.795789 3.802940 1.811646 0
M  V30 15 C 0.756958 3.350534 2.661748 0
M  V30 16 O -0.282382 2.730961 2.327480 0
M  V30 17 C 0.675027 3.512467 4.131215 0
M  V30 18 C -0.619563 2.867012 4.636291 0
M  V30 19 C -1.792592 3.522003 4.000021 0
M  V30 20 N -2.959051 2.896124 4.493335 0
M  V30 21 O -2.117882 4.423076 3.189471 0
M  V30 22 C 1.240840 1.086200 -0.116371 0
M  V30 23 C 1.049794 -2.515624 -0.881995 0
M  V30 24 C -0.085062 -3.299937 -0.921687 0
M  V30 25 C -0.386373 -4.622796 -1.175869 0
M  V30 26 C -1.689957 -5.069766 -1.122034 0
M  V30 27 N -1.676688 -6.371825 -1.408927 0
M  V30 28 C -0.381771 -6.729071 -1.638093 0
M  V30 29 N 0.422758 -5.649377 -1.495102 0
M  V30 30 C 1.873232 -5.606583 -1.655644 0
M  V30 31 H -5.509520 -3.211288 -1.358309 0
M  V30 32 H -5.973820 -4.162826 0.064342 0
M  V30 33 H -4.771431 -2.815101 0.223930 0
M  V30 34 H -4.294358 -5.590149 -0.930875 0
M  V30 35 H -1.094321 -0.288700 -0.145459 0
M  V30 36 H 3.421110 -1.393059 -0.911158 0
M  V30 37 H 5.023846 0.530311 -0.675276 0
M  V30 38 H 4.184528 2.718979 -0.099219 0
M  V30 39 H 0.686680 3.756653 0.073109 0
M  V30 40 H 2.444530 4.253594 -0.116947 0
M  V30 41 H 2.574386 4.306475 2.331019 0
M  V30 42 H 0.678519 4.577711 4.442120 0
M  V30 43 H 1.506697 3.012789 4.657899 0
M  V30 44 H -0.580645 1.784575 4.380547 0
M  V30 45 H -0.681769 2.934972 5.738303 0
M  V30 46 H -3.707907 2.200824 4.218253 0
M  V30 47 H -3.800805 2.519239 4.999645 0
M  V30 48 H 0.206774 1.304242 0.048832 0
M  V30 49 H 2.031980 -2.899072 -1.079752 0
M  V30 50 H -0.091578 -7.738415 -1.893786 0
M  V30 51 H 2.366809 -5.310917 -0.716999 0
M  V30 52 H 2.198647 -6.622620 -2.011253 0
M  V30 53 H 2.088786 -4.898682 -2.493902 0
M  V30 END ATOM
M  V30 BEGIN BOND
M  V30 1 1 1 2
M  V30 2 1 2 3
M  V30 3 2 3 4
M  V30 4 1 4 5
M  V30 5 1 5 6
M  V30 6 1 6 7
M  V30 7 1 7 8
M  V30 8 2 8 9
M  V30 9 1 9 10
M  V30 10 2 10 11
M  V30 11 1 11 12
M  V30 12 1 12 13
M  V30 13 1 13 14
M  V30 14 1 14 15
M  V30 15 2 15 16
M  V30 16 1 15 17
M  V30 17 1 17 18
M  V30 18 1 18 19
M  V30 19 1 19 20
M  V30 20 2 19 21
M  V30 21 2 12 22
M  V30 22 2 7 23
M  V30 23 1 23 24
M  V30 24 1 24 25
M  V30 25 2 25 26
M  V30 26 1 26 27
M  V30 27 2 27 28
M  V30 28 1 28 29
M  V30 29 1 29 30
M  V30 30 1 26 3
M  V30 31 2 24 5
M  V30 32 1 29 25
M  V30 33 1 22 8
M  V30 34 1 1 31
M  V30 35 1 1 32
M  V30 36 1 1 33
M  V30 37 1 2 34
M  V30 38 1 6 35
M  V30 39 1 9 36
M  V30 40 1 10 37
M  V30 41 1 11 38
M  V30 42 1 13 39
M  V30 43 1 13 40
M  V30 44 1 14 41
M  V30 45 1 17 42
M  V30 46 1 17 43
M  V30 47 1 18 44
M  V30 48 1 18 45
M  V30 49 1 20 46
M  V30 50 1 20 47
M  V30 51 1 22 48
M  V30 52 1 23 49
M  V30 53 1 28 50
M  V30 54 1 30 51
M  V30 55 1 30 52
M  V30 56 1 30 53
M  V30 END BOND
M  V30 END CTAB
M  END
>  <Dataset>  (63) 
ChEMBL_Kinases

>  <Ligand_Instance>  (63) 
nan

>  <PDB_ID>  (63) 
nan

>  <Standardized_SMILES>  (63) 
CNc1nc2[nH]c(-c3cccc(CNC(=O)CCC(N)=O)c3)cc2c2c1ncn2C

>  <Name>  (63) 
nan

>  <Pocket>  (63) 
nan

>  <ATP_Site>  (63) 
nan

>  <Peripheral>  (63) 
nan

>  <Num_H_Atoms_ProtBoundConf>  (63) 
nan

>  <Num_Resolved_Atoms>  (63) 
nan

>  <Num_Not_Resolved_Atoms>  (63) 
nan

$$$$
CHEMBL562451
     RDKit          3D

  0  0  0  0  0  0  0  0  0  0999 V3000
M  V30 BEGIN CTAB
M  V30 COUNTS 59 62 0 0 0
M  V30 BEGIN ATOM
M  V30 1 C 1.961459 -3.205827 1.303644 0
M  V30 2 C 1.542372 -1.837024 0.909477 0
M  V30 3 C 2.324761 -0.677661 1.008747 0
M  V30 4 C 1.838044 0.577816 0.608417 0
M  V30 5 O 2.846232 1.479106 0.838575 0
M  V30 6 C 2.855481 2.854409 0.595069 0
M  V30 7 C 2.690879 3.282972 -0.819921 0
M  V30 8 N 2.722599 4.752599 -0.910403 0
M  V30 9 C 2.558213 5.141200 -2.318806 0
M  V30 10 C 2.332940 6.630691 -2.401659 0
M  V30 11 O 3.178511 7.321672 -1.512622 0
M  V30 12 C 4.299716 6.544124 -1.244740 0
M  V30 13 C 3.973624 5.297135 -0.454319 0
M  V30 14 C 0.553141 0.614004 0.113470 0
M  V30 15 C -0.216601 -0.523734 0.015088 0
M  V30 16 C 0.258379 -1.758413 0.407178 0
M  V30 17 C -0.649023 -2.892296 0.255910 0
M  V30 18 C -1.491143 -3.210553 1.320755 0
M  V30 19 N -1.436565 -2.430467 2.497617 0
M  V30 20 C -2.324371 -4.288902 1.121771 0
M  V30 21 C -3.199992 -4.618607 2.237258 0
M  V30 22 O -3.141683 -3.931500 3.288401 0
M  V30 23 C -4.207689 -5.654890 2.410029 0
M  V30 24 C -5.151907 -5.948637 1.448657 0
M  V30 25 C -6.114999 -6.924416 1.593499 0
M  V30 26 C -6.158830 -7.660741 2.752101 0
M  V30 27 F -7.117044 -8.624477 2.884274 0
M  V30 28 C -5.227912 -7.397758 3.744508 0
M  V30 29 C -4.280950 -6.412454 3.558898 0
M  V30 30 F -3.402778 -6.209478 4.570480 0
M  V30 31 C -2.284805 -4.970655 -0.071230 0
M  V30 32 C -1.426478 -4.613101 -1.102280 0
M  V30 33 N -0.612114 -3.568697 -0.923452 0 CHG=1 VAL=4
M  V30 34 O 0.269974 -3.154798 -1.906569 0 CHG=-1 VAL=1
M  V30 35 H 3.080463 -3.285982 1.324740 0
M  V30 36 H 1.624484 -3.937282 0.541598 0
M  V30 37 H 1.658876 -3.468013 2.344294 0
M  V30 38 H 3.302091 -0.963520 1.429834 0
M  V30 39 H 3.863789 3.215047 0.965431 0
M  V30 40 H 2.123017 3.399899 1.257702 0
M  V30 41 H 1.768503 2.993568 -1.328520 0
M  V30 42 H 3.526197 2.893442 -1.472853 0
M  V30 43 H 3.420803 4.863834 -2.939789 0
M  V30 44 H 1.647289 4.621730 -2.723137 0
M  V30 45 H 1.301219 6.923399 -2.085057 0
M  V30 46 H 2.510602 6.962058 -3.433477 0
M  V30 47 H 4.743222 6.250870 -2.230228 0
M  V30 48 H 4.993605 7.173982 -0.666025 0
M  V30 49 H 3.856536 5.562045 0.612318 0
M  V30 50 H 4.775837 4.546674 -0.590592 0
M  V30 51 H 0.291322 1.626127 -0.150602 0
M  V30 52 H -1.204373 -0.348082 -0.391086 0
M  V30 53 H -1.780338 -1.488643 2.787392 0
M  V30 54 H -0.906960 -3.003727 3.205846 0
M  V30 55 H -5.180097 -5.418287 0.527504 0
M  V30 56 H -6.856678 -7.144556 0.820723 0
M  V30 57 H -5.317775 -8.014306 4.632894 0
M  V30 58 H -2.943422 -5.814730 -0.211176 0
M  V30 59 H -1.390784 -5.141129 -2.036004 0
M  V30 END ATOM
M  V30 BEGIN BOND
M  V30 1 1 1 2
M  V30 2 2 2 3
M  V30 3 1 3 4
M  V30 4 1 4 5
M  V30 5 1 5 6
M  V30 6 1 6 7
M  V30 7 1 7 8
M  V30 8 1 8 9
M  V30 9 1 9 10
M  V30 10 1 10 11
M  V30 11 1 11 12
M  V30 12 1 12 13
M  V30 13 2 4 14
M  V30 14 1 14 15
M  V30 15 2 15 16
M  V30 16 1 16 17
M  V30 17 2 17 18
M  V30 18 1 18 19
M  V30 19 1 18 20
M  V30 20 1 20 21
M  V30 21 2 21 22
M  V30 22 1 21 23
M  V30 23 2 23 24
M  V30 24 1 24 25
M  V30 25 2 25 26
M  V30 26 1 26 27
M  V30 27 1 26 28
M  V30 28 2 28 29
M  V30 29 1 29 30
M  V30 30 2 20 31
M  V30 31 1 31 32
M  V30 32 2 32 33
M  V30 33 1 33 34
M  V30 34 1 16 2
M  V30 35 1 33 17
M  V30 36 1 13 8
M  V30 37 1 29 23
M  V30 38 1 1 35
M  V30 39 1 1 36
M  V30 40 1 1 37
M  V30 41 1 3 38
M  V30 42 1 6 39
M  V30 43 1 6 40
M  V30 44 1 7 41
M  V30 45 1 7 42
M  V30 46 1 9 43
M  V30 47 1 9 44
M  V30 48 1 10 45
M  V30 49 1 10 46
M  V30 50 1 12 47
M  V30 51 1 12 48
M  V30 52 1 13 49
M  V30 53 1 13 50
M  V30 54 1 14 51
M  V30 55 1 15 52
M  V30 56 1 19 53
M  V30 57 1 19 54
M  V30 58 1 24 55
M  V30 59 1 25 56
M  V30 60 1 28 57
M  V30 61 1 31 58
M  V30 62 1 32 59
M  V30 END BOND
M  V30 END CTAB
M  END
>  <Dataset>  (64) 
ChEMBL_Kinases

>  <Ligand_Instance>  (64) 
nan

>  <PDB_ID>  (64) 
nan

>  <Standardized_SMILES>  (64) 
Cc1cc(OCCN2CCOCC2)ccc1-c1c(N)c(C(=O)c2ccc(F)cc2F)cc[n+]1[O-]

>  <Name>  (64) 
nan

>  <Pocket>  (64) 
nan

>  <ATP_Site>  (64) 
nan

>  <Peripheral>  (64) 
nan

>  <Num_H_Atoms_ProtBoundConf>  (64) 
nan

>  <Num_Resolved_Atoms>  (64) 
nan

>  <Num_Not_Resolved_Atoms>  (64) 
nan

$$$$
CHEMBL562527
     RDKit          3D

  0  0  0  0  0  0  0  0  0  0999 V3000
M  V30 BEGIN CTAB
M  V30 COUNTS 54 58 0 0 0
M  V30 BEGIN ATOM
M  V30 1 C 0.314892 -2.365513 4.256467 0
M  V30 2 C 0.907618 -3.287390 3.242685 0
M  V30 3 N 1.346871 -2.649992 2.044883 0
M  V30 4 C 2.615374 -2.192727 1.978841 0
M  V30 5 O 3.403075 -2.321195 2.945347 0
M  V30 6 C 3.176283 -1.555791 0.887610 0
M  V30 7 C 2.376749 -1.365507 -0.239747 0
M  V30 8 N 2.890282 -0.720602 -1.397951 0
M  V30 9 C 2.473902 0.470437 -2.053107 0
M  V30 10 C 1.410645 1.178938 -1.541084 0
M  V30 11 C 1.039007 2.327215 -2.210510 0
M  V30 12 C -0.055079 3.195574 -1.814995 0
M  V30 13 O -0.420227 4.258324 -2.411434 0
M  V30 14 N -0.871341 2.947894 -0.675949 0
M  V30 15 C -1.971728 3.782387 -0.241734 0
M  V30 16 C -3.193290 3.071278 0.317597 0
M  V30 17 C -2.308374 3.845953 1.217094 0
M  V30 18 C 1.712164 2.753891 -3.358966 0
M  V30 19 C 2.770362 1.985291 -3.808625 0
M  V30 20 C 3.194377 0.813418 -3.175140 0
M  V30 21 Cl 4.535970 -0.110259 -3.793085 0
M  V30 22 C 1.090145 -1.814756 -0.208744 0
M  V30 23 C 0.028459 -1.820245 -1.080377 0
M  V30 24 N -1.008813 -2.432062 -0.448195 0
M  V30 25 N -0.650126 -2.810396 0.776309 0
M  V30 26 C -1.670338 -3.461675 1.516319 0
M  V30 27 C -1.832859 -4.789404 1.081973 0
M  V30 28 C -2.777941 -5.617595 1.651290 0
M  V30 29 C -3.595930 -5.172837 2.665557 0
M  V30 30 F -4.561255 -5.887825 3.305825 0
M  V30 31 C -3.433955 -3.872469 3.088156 0
M  V30 32 C -2.505793 -3.045788 2.534980 0
M  V30 33 C 0.632932 -2.437450 0.933607 0
M  V30 34 H -0.194986 -1.475915 3.821793 0
M  V30 35 H -0.466595 -2.924566 4.811712 0
M  V30 36 H 1.042725 -2.068690 5.052176 0
M  V30 37 H 0.157864 -4.052541 2.993411 0
M  V30 38 H 1.808770 -3.729290 3.731759 0
M  V30 39 H 4.178139 -1.202951 0.855531 0
M  V30 40 H 3.686632 -1.319978 -1.707269 0
M  V30 41 H 0.853244 0.918153 -0.674303 0
M  V30 42 H -0.693794 2.100998 -0.074437 0
M  V30 43 H -2.175503 4.671752 -0.855020 0
M  V30 44 H -4.194804 3.478569 0.033126 0
M  V30 45 H -3.117843 1.969143 0.342074 0
M  V30 46 H -1.667138 3.252736 1.902558 0
M  V30 47 H -2.709111 4.789655 1.613866 0
M  V30 48 H 1.464420 3.638647 -3.917602 0
M  V30 49 H 3.302913 2.313708 -4.708383 0
M  V30 50 H 0.055680 -1.402817 -2.078917 0
M  V30 51 H -1.252790 -5.278357 0.284856 0
M  V30 52 H -2.924879 -6.642818 1.337207 0
M  V30 53 H -4.035769 -3.457018 3.873843 0
M  V30 54 H -2.288275 -2.000995 2.785818 0
M  V30 END ATOM
M  V30 BEGIN BOND
M  V30 1 1 1 2
M  V30 2 1 2 3
M  V30 3 1 3 4
M  V30 4 2 4 5
M  V30 5 1 4 6
M  V30 6 2 6 7
M  V30 7 1 7 8
M  V30 8 1 8 9
M  V30 9 2 9 10
M  V30 10 1 10 11
M  V30 11 1 11 12
M  V30 12 2 12 13
M  V30 13 1 12 14
M  V30 14 1 14 15
M  V30 15 1 15 16
M  V30 16 1 16 17
M  V30 17 2 11 18
M  V30 18 1 18 19
M  V30 19 2 19 20
M  V30 20 1 20 21
M  V30 21 1 7 22
M  V30 22 1 22 23
M  V30 23 2 23 24
M  V30 24 1 24 25
M  V30 25 1 25 26
M  V30 26 2 26 27
M  V30 27 1 27 28
M  V30 28 2 28 29
M  V30 29 1 29 30
M  V30 30 1 29 31
M  V30 31 2 31 32
M  V30 32 1 25 33
M  V30 33 1 33 3
M  V30 34 1 20 9
M  V30 35 2 33 22
M  V30 36 1 17 15
M  V30 37 1 32 26
M  V30 38 1 1 34
M  V30 39 1 1 35
M  V30 40 1 1 36
M  V30 41 1 2 37
M  V30 42 1 2 38
M  V30 43 1 6 39
M  V30 44 1 8 40
M  V30 45 1 10 41
M  V30 46 1 14 42
M  V30 47 1 15 43
M  V30 48 1 16 44
M  V30 49 1 16 45
M  V30 50 1 17 46
M  V30 51 1 17 47
M  V30 52 1 18 48
M  V30 53 1 19 49
M  V30 54 1 23 50
M  V30 55 1 27 51
M  V30 56 1 28 52
M  V30 57 1 31 53
M  V30 58 1 32 54
M  V30 END BOND
M  V30 END CTAB
M  END
>  <Dataset>  (65) 
ChEMBL_Kinases

>  <Ligand_Instance>  (65) 
nan

>  <PDB_ID>  (65) 
nan

>  <Standardized_SMILES>  (65) 
CCn1c(=O)cc(Nc2cc(C(=O)NC3CC3)ccc2Cl)c2cnn(-c3ccc(F)cc3)c21

>  <Name>  (65) 
nan

>  <Pocket>  (65) 
nan

>  <ATP_Site>  (65) 
nan

>  <Peripheral>  (65) 
nan

>  <Num_H_Atoms_ProtBoundConf>  (65) 
nan

>  <Num_Resolved_Atoms>  (65) 
nan

>  <Num_Not_Resolved_Atoms>  (65) 
nan

$$$$
CHEMBL562528
     RDKit          3D

  0  0  0  0  0  0  0  0  0  0999 V3000
M  V30 BEGIN CTAB
M  V30 COUNTS 56 60 0 0 0
M  V30 BEGIN ATOM
M  V30 1 C -3.288670 -3.048272 2.528376 0
M  V30 2 C -1.854311 -3.545946 2.655278 0
M  V30 3 N -1.047305 -2.735556 1.805731 0
M  V30 4 C -0.483549 -1.569441 2.240908 0
M  V30 5 O -0.754737 -1.303429 3.455102 0
M  V30 6 C 0.303127 -0.792781 1.383860 0
M  V30 7 C 0.551408 -1.170119 0.040708 0
M  V30 8 O 1.308266 -0.230027 -0.455807 0
M  V30 9 C 1.446888 0.733969 -1.334978 0
M  V30 10 C 1.619285 1.881534 -0.523223 0
M  V30 11 C 1.807786 3.176929 -1.041147 0
M  V30 12 C 1.995790 4.434110 -0.332978 0
M  V30 13 O 2.157921 5.550640 -0.886303 0
M  V30 14 N 2.021130 4.566772 1.085181 0
M  V30 15 C 2.209837 5.829523 1.766320 0
M  V30 16 C 1.202661 6.070931 2.882869 0
M  V30 17 C 2.631653 5.785772 3.178735 0
M  V30 18 C 1.824265 3.328722 -2.432865 0
M  V30 19 C 1.662923 2.254351 -3.272001 0
M  V30 20 C 1.488049 1.047157 -2.653870 0
M  V30 21 C 1.322794 -0.178710 -3.464532 0
M  V30 22 C -0.068256 -2.354657 -0.265115 0
M  V30 23 C 0.041323 -2.931820 -1.503615 0
M  V30 24 N -0.675067 -4.067816 -1.427479 0
M  V30 25 N -1.194528 -4.173419 -0.196226 0
M  V30 26 C -1.991864 -5.291627 0.159217 0
M  V30 27 C -1.136520 -6.367687 0.444605 0
M  V30 28 C -1.654777 -7.613955 0.817233 0
M  V30 29 C -3.016827 -7.793969 0.906968 0
M  V30 30 F -3.611488 -8.960251 1.258734 0
M  V30 31 C -3.841941 -6.735988 0.625933 0
M  V30 32 C -3.348633 -5.514359 0.261082 0
M  V30 33 C -0.842344 -3.129432 0.560465 0
M  V30 34 H -4.035184 -3.854171 2.650240 0
M  V30 35 H -3.541453 -2.260423 3.268193 0
M  V30 36 H -3.431579 -2.532331 1.533656 0
M  V30 37 H -1.568405 -3.259685 3.714171 0
M  V30 38 H -1.736051 -4.614468 2.629149 0
M  V30 39 H 0.637548 0.082162 1.958360 0
M  V30 40 H 1.645706 2.029392 0.569170 0
M  V30 41 H 1.895583 3.697581 1.678227 0
M  V30 42 H 2.338824 6.722763 1.123695 0
M  V30 43 H 0.393046 5.355297 3.026822 0
M  V30 44 H 0.885772 7.118077 3.104964 0
M  V30 45 H 3.260607 6.593234 3.631557 0
M  V30 46 H 2.910585 4.794845 3.593703 0
M  V30 47 H 1.962241 4.284252 -2.930968 0
M  V30 48 H 1.659472 2.261112 -4.349484 0
M  V30 49 H 1.576378 0.006922 -4.519278 0
M  V30 50 H 2.056597 -0.968533 -3.130349 0
M  V30 51 H 0.275691 -0.542444 -3.467627 0
M  V30 52 H 0.560074 -2.627155 -2.378558 0
M  V30 53 H -0.044554 -6.401797 0.423948 0
M  V30 54 H -1.057879 -8.481298 1.049851 0
M  V30 55 H -4.930987 -6.774291 0.667329 0
M  V30 56 H -3.872817 -4.586057 0.008906 0
M  V30 END ATOM
M  V30 BEGIN BOND
M  V30 1 1 1 2
M  V30 2 1 2 3
M  V30 3 1 3 4
M  V30 4 2 4 5
M  V30 5 1 4 6
M  V30 6 2 6 7
M  V30 7 1 7 8
M  V30 8 1 8 9
M  V30 9 2 9 10
M  V30 10 1 10 11
M  V30 11 1 11 12
M  V30 12 2 12 13
M  V30 13 1 12 14
M  V30 14 1 14 15
M  V30 15 1 15 16
M  V30 16 1 16 17
M  V30 17 2 11 18
M  V30 18 1 18 19
M  V30 19 2 19 20
M  V30 20 1 20 21
M  V30 21 1 7 22
M  V30 22 1 22 23
M  V30 23 2 23 24
M  V30 24 1 24 25
M  V30 25 1 25 26
M  V30 26 2 26 27
M  V30 27 1 27 28
M  V30 28 2 28 29
M  V30 29 1 29 30
M  V30 30 1 29 31
M  V30 31 2 31 32
M  V30 32 1 25 33
M  V30 33 1 33 3
M  V30 34 1 20 9
M  V30 35 2 33 22
M  V30 36 1 17 15
M  V30 37 1 32 26
M  V30 38 1 1 34
M  V30 39 1 1 35
M  V30 40 1 1 36
M  V30 41 1 2 37
M  V30 42 1 2 38
M  V30 43 1 6 39
M  V30 44 1 10 40
M  V30 45 1 14 41
M  V30 46 1 15 42
M  V30 47 1 16 43
M  V30 48 1 16 44
M  V30 49 1 17 45
M  V30 50 1 17 46
M  V30 51 1 18 47
M  V30 52 1 19 48
M  V30 53 1 21 49
M  V30 54 1 21 50
M  V30 55 1 21 51
M  V30 56 1 23 52
M  V30 57 1 27 53
M  V30 58 1 28 54
M  V30 59 1 31 55
M  V30 60 1 32 56
M  V30 END BOND
M  V30 END CTAB
M  END
>  <Dataset>  (66) 
ChEMBL_Kinases

>  <Ligand_Instance>  (66) 
nan

>  <PDB_ID>  (66) 
nan

>  <Standardized_SMILES>  (66) 
CCn1c(=O)cc(Oc2cc(C(=O)NC3CC3)ccc2C)c2cnn(-c3ccc(F)cc3)c21

>  <Name>  (66) 
nan

>  <Pocket>  (66) 
nan

>  <ATP_Site>  (66) 
nan

>  <Peripheral>  (66) 
nan

>  <Num_H_Atoms_ProtBoundConf>  (66) 
nan

>  <Num_Resolved_Atoms>  (66) 
nan

>  <Num_Not_Resolved_Atoms>  (66) 
nan

$$$$
CHEMBL571580
     RDKit          3D

  0  0  0  0  0  0  0  0  0  0999 V3000
M  V30 BEGIN CTAB
M  V30 COUNTS 64 67 0 0 0
M  V30 BEGIN ATOM
M  V30 1 C 3.824017 0.922164 4.021828 0
M  V30 2 N 4.754684 1.993164 3.678153 0
M  V30 3 C 6.036404 2.359952 4.186871 0
M  V30 4 O 6.713943 1.553691 4.868896 0
M  V30 5 N 6.247145 3.703666 3.740354 0
M  V30 6 C 5.107394 4.132560 2.975925 0
M  V30 7 O 5.009101 5.386927 2.787425 0
M  V30 8 C 4.369103 2.889205 2.633820 0
M  V30 9 C 4.879684 2.440258 1.269361 0
M  V30 10 C 3.699519 1.683194 0.742590 0
M  V30 11 C 3.716744 0.749900 -0.274177 0
M  V30 12 C 2.519825 0.141083 -0.634643 0
M  V30 13 C 1.387924 0.519387 0.059439 0
M  V30 14 N 0.149347 -0.114834 -0.317623 0
M  V30 15 C -0.000144 -1.305248 0.481723 0
M  V30 16 O 0.916235 -1.579515 1.324387 0
M  V30 17 C -1.056645 -2.328654 0.526704 0
M  V30 18 N -2.134767 -2.091011 -0.402850 0
M  V30 19 C -3.267007 -1.294401 0.093637 0
M  V30 20 C -4.319376 -2.142668 0.707301 0
M  V30 21 C -4.339848 -2.485231 2.063191 0
M  V30 22 C -5.360890 -3.279438 2.542028 0
M  V30 23 C -6.385559 -3.769318 1.756857 0
M  V30 24 C -6.377333 -3.439171 0.418681 0
M  V30 25 F -7.369413 -3.904382 -0.379110 0
M  V30 26 C -5.360731 -2.645085 -0.071978 0
M  V30 27 C -2.360763 -2.462532 -1.731571 0
M  V30 28 O -1.261944 -2.871634 -1.297190 0
M  V30 29 C -2.632436 -2.823312 -3.095360 0
M  V30 30 C -2.832925 -1.640519 -4.023316 0
M  V30 31 C -1.532724 -3.660748 -3.710311 0
M  V30 32 C -3.894674 -3.688696 -3.244758 0
M  V30 33 C 1.362715 1.459322 1.085342 0
M  V30 34 C 2.569477 2.063390 1.438149 0
M  V30 35 C 2.890906 3.086434 2.467005 0
M  V30 36 H 3.424972 0.429963 3.108474 0
M  V30 37 H 4.326186 0.099873 4.581083 0
M  V30 38 H 3.005334 1.261079 4.680856 0
M  V30 39 H 7.134771 4.196818 3.993802 0
M  V30 40 H 5.741947 1.787090 1.448034 0
M  V30 41 H 5.172360 3.263362 0.617964 0
M  V30 42 H 4.612330 0.469063 -0.803345 0
M  V30 43 H 2.447409 -0.599645 -1.420265 0
M  V30 44 H -0.674926 -0.017106 -0.961904 0
M  V30 45 H -0.611446 -3.315880 0.307155 0
M  V30 46 H -1.457144 -2.439194 1.566762 0
M  V30 47 H -2.897970 -0.643272 0.925944 0
M  V30 48 H -3.662043 -0.598106 -0.657038 0
M  V30 49 H -3.548115 -2.113632 2.698843 0
M  V30 50 H -5.291993 -3.491106 3.603364 0
M  V30 51 H -7.142279 -4.384418 2.221564 0
M  V30 52 H -5.424562 -2.431645 -1.126132 0
M  V30 53 H -3.342422 -0.791504 -3.569996 0
M  V30 54 H -3.407631 -1.973277 -4.920464 0
M  V30 55 H -1.847435 -1.284752 -4.404787 0
M  V30 56 H -1.918160 -4.371240 -4.455590 0
M  V30 57 H -0.792064 -3.013091 -4.220210 0
M  V30 58 H -1.094239 -4.246563 -2.881508 0
M  V30 59 H -3.809049 -4.374544 -4.113523 0
M  V30 60 H -4.762679 -3.028740 -3.496248 0
M  V30 61 H -4.042472 -4.308737 -2.350847 0
M  V30 62 H 0.426021 1.702951 1.584532 0
M  V30 63 H 2.316917 2.959992 3.396348 0
M  V30 64 H 2.661863 4.112975 2.094066 0
M  V30 END ATOM
M  V30 BEGIN BOND
M  V30 1 1 1 2
M  V30 2 1 2 3
M  V30 3 2 3 4
M  V30 4 1 3 5
M  V30 5 1 5 6
M  V30 6 2 6 7
M  V30 7 1 6 8
M  V30 8 1 8 9
M  V30 9 1 9 10
M  V30 10 2 10 11
M  V30 11 1 11 12
M  V30 12 2 12 13
M  V30 13 1 13 14
M  V30 14 1 14 15
M  V30 15 2 15 16
M  V30 16 1 15 17
M  V30 17 1 17 18
M  V30 18 1 18 19
M  V30 19 1 19 20
M  V30 20 2 20 21
M  V30 21 1 21 22
M  V30 22 2 22 23
M  V30 23 1 23 24
M  V30 24 1 24 25
M  V30 25 2 24 26
M  V30 26 1 18 27
M  V30 27 2 27 28
M  V30 28 1 27 29
M  V30 29 1 29 30
M  V30 30 1 29 31
M  V30 31 1 29 32
M  V30 32 1 13 33
M  V30 33 2 33 34
M  V30 34 1 34 35
M  V30 35 1 8 2
M  V30 36 1 34 10
M  V30 37 1 35 8
M  V30 38 1 26 20
M  V30 39 1 1 36
M  V30 40 1 1 37
M  V30 41 1 1 38
M  V30 42 1 5 39
M  V30 43 1 9 40
M  V30 44 1 9 41
M  V30 45 1 11 42
M  V30 46 1 12 43
M  V30 47 1 14 44
M  V30 48 1 17 45
M  V30 49 1 17 46
M  V30 50 1 19 47
M  V30 51 1 19 48
M  V30 52 1 21 49
M  V30 53 1 22 50
M  V30 54 1 23 51
M  V30 55 1 26 52
M  V30 56 1 30 53
M  V30 57 1 30 54
M  V30 58 1 30 55
M  V30 59 1 31 56
M  V30 60 1 31 57
M  V30 61 1 31 58
M  V30 62 1 32 59
M  V30 63 1 32 60
M  V30 64 1 32 61
M  V30 65 1 33 62
M  V30 66 1 35 63
M  V30 67 1 35 64
M  V30 END BOND
M  V30 END CTAB
M  END
>  <Dataset>  (67) 
ChEMBL_Kinases

>  <Ligand_Instance>  (67) 
nan

>  <PDB_ID>  (67) 
nan

>  <Standardized_SMILES>  (67) 
CN1C(=O)NC(=O)C12Cc1ccc(NC(=O)CN(Cc3cccc(F)c3)C(=O)C(C)(C)C)cc1C2

>  <Name>  (67) 
nan

>  <Pocket>  (67) 
nan

>  <ATP_Site>  (67) 
nan

>  <Peripheral>  (67) 
nan

>  <Num_H_Atoms_ProtBoundConf>  (67) 
nan

>  <Num_Resolved_Atoms>  (67) 
nan

>  <Num_Not_Resolved_Atoms>  (67) 
nan

$$$$
CHEMBL562562
     RDKit          3D

  0  0  0  0  0  0  0  0  0  0999 V3000
M  V30 BEGIN CTAB
M  V30 COUNTS 61 63 0 0 0
M  V30 BEGIN ATOM
M  V30 1 C 6.488178 -1.927514 4.371002 0
M  V30 2 O 6.047084 -3.268543 4.232864 0
M  V30 3 C 4.793425 -3.469546 3.670661 0
M  V30 4 C 3.921534 -2.498527 3.228083 0
M  V30 5 C 2.692460 -2.842267 2.683686 0
M  V30 6 C 1.814392 -1.720492 2.234146 0
M  V30 7 C 2.066804 -1.337468 0.783291 0
M  V30 8 C 1.142735 -0.227413 0.467687 0
M  V30 9 C 1.605653 0.991584 0.971952 0
M  V30 10 O 2.803874 1.124251 1.703524 0
M  V30 11 C 0.859271 2.129686 0.747860 0
M  V30 12 C -0.311012 2.008734 0.035377 0
M  V30 13 C -0.804560 0.831033 -0.477917 0
M  V30 14 O -1.989227 0.764289 -1.189076 0
M  V30 15 C -2.803686 1.848884 -1.549755 0 CFG=2
M  V30 16 O -3.953200 2.017335 -0.850541 0
M  V30 17 C -4.883929 1.036315 -1.041613 0 CFG=2
M  V30 18 C -5.031752 0.055659 0.088412 0
M  V30 19 O -3.886311 -0.639974 0.399844 0
M  V30 20 C -4.710749 0.247816 -2.326363 0 CFG=1
M  V30 21 O -5.911850 -0.385619 -2.620581 0
M  V30 22 C -4.391442 1.306900 -3.383702 0 CFG=2
M  V30 23 O -4.346538 0.722881 -4.640722 0
M  V30 24 C -3.020659 1.827810 -3.038404 0 CFG=1
M  V30 25 O -2.835422 3.107111 -3.581146 0
M  V30 26 C -0.050238 -0.305792 -0.248721 0
M  V30 27 C -0.506320 -1.591997 -0.712097 0
M  V30 28 C -0.125797 -3.010552 -0.655364 0
M  V30 29 O -1.578503 -1.546101 -1.390698 0
M  V30 30 C 2.343437 -4.176225 2.586501 0
M  V30 31 C 3.193368 -5.164925 3.019928 0
M  V30 32 C 4.417936 -4.807367 3.561626 0
M  V30 33 O 5.206801 -5.896693 3.971978 0
M  V30 34 H 7.349423 -1.873571 5.071175 0
M  V30 35 H 6.818122 -1.512160 3.412797 0
M  V30 36 H 5.667474 -1.308284 4.802217 0
M  V30 37 H 4.262156 -1.496156 3.336611 0
M  V30 38 H 0.778467 -2.103224 2.364251 0
M  V30 39 H 1.924163 -0.865665 2.910234 0
M  V30 40 H 2.039742 -2.201752 0.147085 0
M  V30 41 H 3.132576 -0.947413 0.750824 0
M  V30 42 H 3.458799 1.864103 1.431989 0
M  V30 43 H 1.230037 3.073128 1.145940 0
M  V30 44 H -0.805831 2.942909 -0.074538 0
M  V30 45 H -2.230577 2.832738 -1.373765 0
M  V30 46 H -5.925489 1.491133 -1.150885 0
M  V30 47 H -5.527148 0.503227 0.969526 0
M  V30 48 H -5.763852 -0.723548 -0.276719 0
M  V30 49 H -3.645824 -0.509467 1.361574 0
M  V30 50 H -3.867829 -0.453852 -2.304920 0
M  V30 51 H -5.857139 -1.349434 -2.356267 0
M  V30 52 H -5.160912 2.109889 -3.366597 0
M  V30 53 H -5.235931 0.380961 -4.911340 0
M  V30 54 H -2.305854 1.104105 -3.537253 0
M  V30 55 H -2.448523 3.673970 -2.884887 0
M  V30 56 H -1.004230 -3.687347 -0.908430 0
M  V30 57 H 0.067865 -3.307681 0.417998 0
M  V30 58 H 0.658007 -3.322238 -1.354772 0
M  V30 59 H 1.391062 -4.426628 2.163804 0
M  V30 60 H 2.881510 -6.208599 2.926410 0
M  V30 61 H 4.836164 -6.543031 4.671646 0
M  V30 END ATOM
M  V30 BEGIN BOND
M  V30 1 1 1 2
M  V30 2 1 2 3
M  V30 3 2 3 4
M  V30 4 1 4 5
M  V30 5 1 5 6
M  V30 6 1 6 7
M  V30 7 1 7 8
M  V30 8 2 8 9
M  V30 9 1 9 10
M  V30 10 1 9 11
M  V30 11 2 11 12
M  V30 12 1 12 13
M  V30 13 1 13 14
M  V30 14 1 14 15
M  V30 15 1 15 16
M  V30 16 1 16 17
M  V30 17 1 17 18
M  V30 18 1 18 19
M  V30 19 1 17 20
M  V30 20 1 20 21
M  V30 21 1 20 22
M  V30 22 1 22 23
M  V30 23 1 22 24
M  V30 24 1 24 25
M  V30 25 2 13 26
M  V30 26 1 26 27
M  V30 27 1 27 28
M  V30 28 2 27 29
M  V30 29 2 5 30
M  V30 30 1 30 31
M  V30 31 2 31 32
M  V30 32 1 32 33
M  V30 33 1 32 3
M  V30 34 1 26 8
M  V30 35 1 24 15
M  V30 36 1 1 34
M  V30 37 1 1 35
M  V30 38 1 1 36
M  V30 39 1 4 37
M  V30 40 1 6 38
M  V30 41 1 6 39
M  V30 42 1 7 40
M  V30 43 1 7 41
M  V30 44 1 10 42
M  V30 45 1 11 43
M  V30 46 1 12 44
M  V30 47 1 15 45 CFG=3
M  V30 48 1 17 46 CFG=3
M  V30 49 1 18 47
M  V30 50 1 18 48
M  V30 51 1 19 49
M  V30 52 1 20 50 CFG=1
M  V30 53 1 21 51
M  V30 54 1 22 52 CFG=3
M  V30 55 1 23 53
M  V30 56 1 24 54 CFG=3
M  V30 57 1 25 55
M  V30 58 1 28 56
M  V30 59 1 28 57
M  V30 60 1 28 58
M  V30 61 1 30 59
M  V30 62 1 31 60
M  V30 63 1 33 61
M  V30 END BOND
M  V30 END CTAB
M  END
>  <Dataset>  (68) 
ChEMBL_Kinases

>  <Ligand_Instance>  (68) 
nan

>  <PDB_ID>  (68) 
nan

>  <Standardized_SMILES>  (68) 
COc1cc(CCc2c(O)ccc(O[C@@H]3O[C@H](CO)[C@@H](O)[C@H](O)[C@H]3O)c2C(C)=O)ccc1O

>  <Name>  (68) 
SCORZODIHYDROSTILBENE A

>  <Pocket>  (68) 
nan

>  <ATP_Site>  (68) 
nan

>  <Peripheral>  (68) 
nan

>  <Num_H_Atoms_ProtBoundConf>  (68) 
nan

>  <Num_Resolved_Atoms>  (68) 
nan

>  <Num_Not_Resolved_Atoms>  (68) 
nan

$$$$
CHEMBL561932
     RDKit          3D

  0  0  0  0  0  0  0  0  0  0999 V3000
M  V30 BEGIN CTAB
M  V30 COUNTS 51 55 0 0 0
M  V30 BEGIN ATOM
M  V30 1 C 0.148095 -5.633896 0.512914 0
M  V30 2 N 0.716106 -4.319838 0.347220 0
M  V30 3 C 1.916940 -4.164876 -0.278934 0
M  V30 4 O 2.536375 -5.173607 -0.716416 0
M  V30 5 C 2.519360 -2.916305 -0.469926 0
M  V30 6 C 1.874374 -1.786448 -0.006032 0
M  V30 7 N 2.437496 -0.493933 -0.171362 0
M  V30 8 C 1.828056 0.577356 -0.881854 0
M  V30 9 C 1.512333 1.769822 -0.310778 0
M  V30 10 C 0.922814 2.820900 -0.976222 0
M  V30 11 C 0.582139 4.103680 -0.365639 0
M  V30 12 O 0.046053 5.006149 -1.049466 0
M  V30 13 N 0.836033 4.375793 0.989015 0
M  V30 14 C 0.503414 5.639690 1.602076 0
M  V30 15 C 0.411909 5.837776 3.048314 0
M  V30 16 C 1.667846 6.239660 2.405088 0
M  V30 17 C 0.651679 2.605795 -2.311356 0
M  V30 18 C 0.955518 1.406164 -2.937614 0
M  V30 19 C 1.546770 0.379753 -2.229322 0
M  V30 20 Cl 1.937737 -1.147035 -3.010355 0
M  V30 21 C 0.661502 -1.937734 0.626952 0
M  V30 22 C -0.253258 -1.084840 1.206151 0
M  V30 23 N -1.266979 -1.852749 1.667790 0
M  V30 24 N -1.052801 -3.133274 1.418473 0
M  V30 25 C -2.039610 -4.061514 1.848819 0
M  V30 26 C -2.024106 -4.985596 2.872626 0
M  V30 27 C -3.127605 -5.780923 3.091187 0
M  V30 28 C -4.260054 -5.682514 2.311283 0
M  V30 29 F -5.295335 -6.512658 2.608542 0
M  V30 30 C -4.292808 -4.764138 1.283509 0
M  V30 31 C -3.194654 -3.969703 1.062755 0
M  V30 32 C 0.128197 -3.196512 0.779890 0
M  V30 33 H 0.361139 -5.944491 1.545629 0
M  V30 34 H 0.676615 -6.359117 -0.165670 0
M  V30 35 H -0.926594 -5.573839 0.255851 0
M  V30 36 H 3.463433 -2.826847 -0.965605 0
M  V30 37 H 3.349622 -0.131300 0.184099 0
M  V30 38 H 1.742613 1.893511 0.736239 0
M  V30 39 H 1.279740 3.673153 1.620315 0
M  V30 40 H 0.034233 6.382927 0.935185 0
M  V30 41 H 0.455068 4.924582 3.698038 0
M  V30 42 H -0.273325 6.596083 3.445403 0
M  V30 43 H 2.564498 5.632242 2.586487 0
M  V30 44 H 1.879034 7.317596 2.315814 0
M  V30 45 H 0.190966 3.348088 -2.947966 0
M  V30 46 H 0.733401 1.252336 -3.998381 0
M  V30 47 H -0.147973 -0.015116 1.262351 0
M  V30 48 H -1.087553 -4.968949 3.409973 0
M  V30 49 H -3.035961 -6.475802 3.908514 0
M  V30 50 H -5.202248 -4.730408 0.706929 0
M  V30 51 H -3.342540 -3.285800 0.224126 0
M  V30 END ATOM
M  V30 BEGIN BOND
M  V30 1 1 1 2
M  V30 2 1 2 3
M  V30 3 2 3 4
M  V30 4 1 3 5
M  V30 5 2 5 6
M  V30 6 1 6 7
M  V30 7 1 7 8
M  V30 8 2 8 9
M  V30 9 1 9 10
M  V30 10 1 10 11
M  V30 11 2 11 12
M  V30 12 1 11 13
M  V30 13 1 13 14
M  V30 14 1 14 15
M  V30 15 1 15 16
M  V30 16 2 10 17
M  V30 17 1 17 18
M  V30 18 2 18 19
M  V30 19 1 19 20
M  V30 20 1 6 21
M  V30 21 1 21 22
M  V30 22 2 22 23
M  V30 23 1 23 24
M  V30 24 1 24 25
M  V30 25 2 25 26
M  V30 26 1 26 27
M  V30 27 2 27 28
M  V30 28 1 28 29
M  V30 29 1 28 30
M  V30 30 2 30 31
M  V30 31 1 24 32
M  V30 32 1 32 2
M  V30 33 1 19 8
M  V30 34 2 32 21
M  V30 35 1 16 14
M  V30 36 1 31 25
M  V30 37 1 1 33
M  V30 38 1 1 34
M  V30 39 1 1 35
M  V30 40 1 5 36
M  V30 41 1 7 37
M  V30 42 1 9 38
M  V30 43 1 13 39
M  V30 44 1 14 40
M  V30 45 1 15 41
M  V30 46 1 15 42
M  V30 47 1 16 43
M  V30 48 1 16 44
M  V30 49 1 17 45
M  V30 50 1 18 46
M  V30 51 1 22 47
M  V30 52 1 26 48
M  V30 53 1 27 49
M  V30 54 1 30 50
M  V30 55 1 31 51
M  V30 END BOND
M  V30 END CTAB
M  END
>  <Dataset>  (69) 
ChEMBL_Kinases

>  <Ligand_Instance>  (69) 
nan

>  <PDB_ID>  (69) 
nan

>  <Standardized_SMILES>  (69) 
Cn1c(=O)cc(Nc2cc(C(=O)NC3CC3)ccc2Cl)c2cnn(-c3ccc(F)cc3)c21

>  <Name>  (69) 
nan

>  <Pocket>  (69) 
nan

>  <ATP_Site>  (69) 
nan

>  <Peripheral>  (69) 
nan

>  <Num_H_Atoms_ProtBoundConf>  (69) 
nan

>  <Num_Resolved_Atoms>  (69) 
nan

>  <Num_Not_Resolved_Atoms>  (69) 
nan

$$$$
CHEMBL559462
     RDKit          3D

  0  0  0  0  0  0  0  0  0  0999 V3000
M  V30 BEGIN CTAB
M  V30 COUNTS 62 65 0 0 0
M  V30 BEGIN ATOM
M  V30 1 C 1.282554 -1.781892 3.640504 0
M  V30 2 C 0.929006 -1.055730 2.400861 0
M  V30 3 C 1.770540 -0.096553 1.819489 0
M  V30 4 C 1.372271 0.541053 0.660576 0
M  V30 5 C 2.293524 1.528280 0.106060 0
M  V30 6 O 3.366612 1.736497 0.705819 0
M  V30 7 N 2.070711 2.279643 -1.070141 0
M  V30 8 C 3.047690 3.240642 -1.544334 0
M  V30 9 C 2.476664 3.851951 -2.822772 0
M  V30 10 N 1.227571 4.514445 -2.618128 0
M  V30 11 C 0.642286 5.101636 -3.782261 0
M  V30 12 C 1.393970 6.337148 -4.199338 0
M  V30 13 O 1.365621 7.291508 -3.182205 0
M  V30 14 C 1.902385 6.812414 -1.998792 0
M  V30 15 C 1.262958 5.507647 -1.578574 0
M  V30 16 C 0.156419 0.232849 0.084885 0
M  V30 17 C -0.683493 -0.712239 0.648999 0
M  V30 18 C -0.284378 -1.351413 1.810570 0
M  V30 19 C -1.251930 -2.325347 2.307091 0
M  V30 20 C -1.149035 -3.647671 1.854165 0
M  V30 21 N -0.096293 -3.958978 0.929929 0
M  V30 22 C -2.080854 -4.533448 2.346031 0
M  V30 23 C -1.954179 -5.899463 1.874316 0
M  V30 24 O -0.977759 -6.167617 1.104691 0
M  V30 25 C -2.714332 -7.120546 2.074757 0
M  V30 26 C -2.083039 -8.319631 2.416969 0
M  V30 27 C -2.771750 -9.490885 2.631495 0
M  V30 28 C -4.142666 -9.509714 2.510190 0
M  V30 29 F -4.828491 -10.654680 2.718961 0
M  V30 30 C -4.816926 -8.345837 2.172124 0
M  V30 31 C -4.085253 -7.196247 1.966453 0
M  V30 32 F -4.809698 -6.128428 1.633275 0
M  V30 33 C -3.019173 -4.055211 3.226459 0
M  V30 34 C -3.096302 -2.747622 3.654707 0
M  V30 35 N -2.185374 -1.888171 3.171749 0 CHG=1 VAL=4
M  V30 36 O -2.221735 -0.575175 3.568513 0 CHG=-1 VAL=1
M  V30 37 H 1.784791 -2.724972 3.357513 0
M  V30 38 H 0.384811 -2.003613 4.261029 0
M  V30 39 H 1.968134 -1.198542 4.292431 0
M  V30 40 H 2.714089 0.088838 2.336929 0
M  V30 41 H 1.162863 2.096503 -1.568892 0
M  V30 42 H 3.344724 3.986432 -0.809621 0
M  V30 43 H 3.917642 2.625485 -1.890918 0
M  V30 44 H 3.213731 4.569965 -3.264294 0
M  V30 45 H 2.382717 3.050512 -3.581722 0
M  V30 46 H -0.415485 5.358407 -3.497661 0
M  V30 47 H 0.541386 4.415207 -4.646032 0
M  V30 48 H 0.841758 6.808621 -5.062899 0
M  V30 49 H 2.416990 6.036157 -4.486396 0
M  V30 50 H 3.003142 6.791649 -2.011319 0
M  V30 51 H 1.613489 7.553857 -1.203787 0
M  V30 52 H 0.182316 5.768005 -1.382745 0
M  V30 53 H 1.695962 5.168488 -0.639399 0
M  V30 54 H -0.151798 0.733236 -0.821126 0
M  V30 55 H -1.626883 -0.906681 0.143466 0
M  V30 56 H 0.760770 -3.943846 1.523061 0
M  V30 57 H -0.113535 -4.160528 -0.090295 0
M  V30 58 H -0.991182 -8.364068 2.527758 0
M  V30 59 H -2.234130 -10.407420 2.897927 0
M  V30 60 H -5.895425 -8.395831 2.085059 0
M  V30 61 H -3.740506 -4.732813 3.619174 0
M  V30 62 H -3.869675 -2.448497 4.353378 0
M  V30 END ATOM
M  V30 BEGIN BOND
M  V30 1 1 1 2
M  V30 2 2 2 3
M  V30 3 1 3 4
M  V30 4 1 4 5
M  V30 5 2 5 6
M  V30 6 1 5 7
M  V30 7 1 7 8
M  V30 8 1 8 9
M  V30 9 1 9 10
M  V30 10 1 10 11
M  V30 11 1 11 12
M  V30 12 1 12 13
M  V30 13 1 13 14
M  V30 14 1 14 15
M  V30 15 2 4 16
M  V30 16 1 16 17
M  V30 17 2 17 18
M  V30 18 1 18 19
M  V30 19 2 19 20
M  V30 20 1 20 21
M  V30 21 1 20 22
M  V30 22 1 22 23
M  V30 23 2 23 24
M  V30 24 1 23 25
M  V30 25 2 25 26
M  V30 26 1 26 27
M  V30 27 2 27 28
M  V30 28 1 28 29
M  V30 29 1 28 30
M  V30 30 2 30 31
M  V30 31 1 31 32
M  V30 32 2 22 33
M  V30 33 1 33 34
M  V30 34 2 34 35
M  V30 35 1 35 36
M  V30 36 1 18 2
M  V30 37 1 35 19
M  V30 38 1 15 10
M  V30 39 1 31 25
M  V30 40 1 1 37
M  V30 41 1 1 38
M  V30 42 1 1 39
M  V30 43 1 3 40
M  V30 44 1 7 41
M  V30 45 1 8 42
M  V30 46 1 8 43
M  V30 47 1 9 44
M  V30 48 1 9 45
M  V30 49 1 11 46
M  V30 50 1 11 47
M  V30 51 1 12 48
M  V30 52 1 12 49
M  V30 53 1 14 50
M  V30 54 1 14 51
M  V30 55 1 15 52
M  V30 56 1 15 53
M  V30 57 1 16 54
M  V30 58 1 17 55
M  V30 59 1 21 56
M  V30 60 1 21 57
M  V30 61 1 26 58
M  V30 62 1 27 59
M  V30 63 1 30 60
M  V30 64 1 33 61
M  V30 65 1 34 62
M  V30 END BOND
M  V30 END CTAB
M  END
>  <Dataset>  (70) 
ChEMBL_Kinases

>  <Ligand_Instance>  (70) 
nan

>  <PDB_ID>  (70) 
nan

>  <Standardized_SMILES>  (70) 
Cc1cc(C(=O)NCCN2CCOCC2)ccc1-c1c(N)c(C(=O)c2ccc(F)cc2F)cc[n+]1[O-]

>  <Name>  (70) 
nan

>  <Pocket>  (70) 
nan

>  <ATP_Site>  (70) 
nan

>  <Peripheral>  (70) 
nan

>  <Num_H_Atoms_ProtBoundConf>  (70) 
nan

>  <Num_Resolved_Atoms>  (70) 
nan

>  <Num_Not_Resolved_Atoms>  (70) 
nan

$$$$
CHEMBL559487
     RDKit          3D

  0  0  0  0  0  0  0  0  0  0999 V3000
M  V30 BEGIN CTAB
M  V30 COUNTS 29 31 0 0 0
M  V30 BEGIN ATOM
M  V30 1 C 0.701206 -3.704669 3.820148 0
M  V30 2 C 0.185150 -2.794515 2.751213 0 CFG=2
M  V30 3 C 1.256534 -1.778604 2.426527 0
M  V30 4 N 1.085597 -1.227235 1.090931 0
M  V30 5 C 0.035034 -0.401469 0.601207 0
M  V30 6 C -1.232831 -0.394608 1.233157 0
M  V30 7 S -2.245672 0.740675 0.348163 0
M  V30 8 C -0.884507 1.184324 -0.885229 0
M  V30 9 C -0.943111 2.099948 -1.982525 0
M  V30 10 C 0.206919 2.216306 -2.707438 0
M  V30 11 C 1.268622 1.465651 -2.320567 0
M  V30 12 O 2.438776 1.615825 -3.097362 0
M  V30 13 C 1.306360 0.603670 -1.278663 0
M  V30 14 C 0.210182 0.404869 -0.479414 0
M  V30 15 C -1.713692 -1.157311 2.414523 0
M  V30 16 O -2.930433 -0.907383 2.618397 0
M  V30 17 N -0.981088 -2.050769 3.241123 0
M  V30 18 H 1.312891 -4.483651 3.336199 0
M  V30 19 H 1.417857 -3.105421 4.448494 0
M  V30 20 H -0.100874 -4.100429 4.458232 0
M  V30 21 H -0.046272 -3.403952 1.877128 0
M  V30 22 H 1.146498 -0.965988 3.154978 0
M  V30 23 H 2.246479 -2.271538 2.462049 0
M  V30 24 H 1.835815 -1.461003 0.371464 0
M  V30 25 H -1.878659 2.589036 -2.111277 0
M  V30 26 H 0.120329 2.910486 -3.518024 0
M  V30 27 H 3.084982 2.334423 -2.741522 0
M  V30 28 H 2.222378 0.066987 -1.081489 0
M  V30 29 H -1.401574 -2.076053 4.198268 0
M  V30 END ATOM
M  V30 BEGIN BOND
M  V30 1 1 1 2
M  V30 2 1 2 3
M  V30 3 1 3 4
M  V30 4 1 4 5
M  V30 5 2 5 6
M  V30 6 1 6 7
M  V30 7 1 7 8
M  V30 8 2 8 9
M  V30 9 1 9 10
M  V30 10 2 10 11
M  V30 11 1 11 12
M  V30 12 1 11 13
M  V30 13 2 13 14
M  V30 14 1 6 15
M  V30 15 2 15 16
M  V30 16 1 15 17
M  V30 17 1 17 2
M  V30 18 1 14 5
M  V30 19 1 14 8
M  V30 20 1 1 18
M  V30 21 1 1 19
M  V30 22 1 1 20
M  V30 23 1 2 21 CFG=3
M  V30 24 1 3 22
M  V30 25 1 3 23
M  V30 26 1 4 24
M  V30 27 1 9 25
M  V30 28 1 10 26
M  V30 29 1 12 27
M  V30 30 1 13 28
M  V30 31 1 17 29
M  V30 END BOND
M  V30 END CTAB
M  END
>  <Dataset>  (71) 
ChEMBL_Kinases

>  <Ligand_Instance>  (71) 
nan

>  <PDB_ID>  (71) 
nan

>  <Standardized_SMILES>  (71) 
C[C@@H]1CNc2c(sc3ccc(O)cc23)C(=O)N1

>  <Name>  (71) 
nan

>  <Pocket>  (71) 
nan

>  <ATP_Site>  (71) 
nan

>  <Peripheral>  (71) 
nan

>  <Num_H_Atoms_ProtBoundConf>  (71) 
nan

>  <Num_Resolved_Atoms>  (71) 
nan

>  <Num_Not_Resolved_Atoms>  (71) 
nan

$$$$
CHEMBL559559
     RDKit          3D

  0  0  0  0  0  0  0  0  0  0999 V3000
M  V30 BEGIN CTAB
M  V30 COUNTS 57 60 0 0 0
M  V30 BEGIN ATOM
M  V30 1 C 3.350342 -3.187153 1.902764 0
M  V30 2 C 3.557960 -2.078728 2.910680 0
M  V30 3 S 4.932251 -1.052737 2.467983 0
M  V30 4 O 6.144090 -1.950012 2.411848 0
M  V30 5 O 5.173298 -0.016257 3.528992 0
M  V30 6 N 4.764177 -0.278820 0.960868 0
M  V30 7 C 3.784047 0.649283 0.566549 0
M  V30 8 C 3.488329 1.675609 1.472843 0
M  V30 9 C 2.535010 2.653683 1.163025 0
M  V30 10 C 1.833298 2.662246 -0.051502 0
M  V30 11 C 0.948504 3.803375 -0.148142 0
M  V30 12 C -0.416052 3.736552 0.450813 0
M  V30 13 N -1.274983 2.750560 -0.080226 0
M  V30 14 C -1.480000 1.369381 -0.249660 0
M  V30 15 O -0.561067 0.693474 0.272853 0
M  V30 16 C -2.588058 0.750773 -0.928094 0
M  V30 17 C -3.411684 1.480346 -1.768341 0
M  V30 18 C -4.452003 0.805812 -2.368842 0
M  V30 19 C -4.737345 -0.530576 -2.201490 0
M  V30 20 O -5.786569 -1.195343 -2.811484 0
M  V30 21 C -3.860767 -1.200675 -1.338703 0
M  V30 22 N -3.877180 -2.491438 -0.981772 0
M  V30 23 C -2.843462 -2.732882 -0.123525 0
M  V30 24 C -2.559276 -4.039398 0.456991 0
M  V30 25 C -3.351303 -5.108025 0.130010 0
M  V30 26 C -3.112640 -6.375200 0.660300 0
M  V30 27 C -2.058103 -6.549709 1.528768 0
M  V30 28 Cl -1.753732 -8.136196 2.194351 0
M  V30 29 C -1.291163 -5.475756 1.834511 0
M  V30 30 C -1.500360 -4.197335 1.325292 0
M  V30 31 Cl -0.544306 -2.780548 1.693062 0
M  V30 32 N -2.213553 -1.555392 0.020749 0
M  V30 33 C -2.798358 -0.589070 -0.702584 0
M  V30 34 C 2.145501 1.633153 -0.929917 0
M  V30 35 C 3.083456 0.677734 -0.615946 0
M  V30 36 H 2.311358 -3.555518 2.055050 0
M  V30 37 H 4.012541 -4.048587 2.204108 0
M  V30 38 H 3.501023 -2.893199 0.863637 0
M  V30 39 H 3.806874 -2.557138 3.879298 0
M  V30 40 H 2.619287 -1.519017 3.041625 0
M  V30 41 H 5.416160 -0.437194 0.149202 0
M  V30 42 H 4.017571 1.697914 2.433193 0
M  V30 43 H 2.409024 3.385081 1.956079 0
M  V30 44 H 1.494346 4.743254 0.207333 0
M  V30 45 H 0.804646 4.071307 -1.256642 0
M  V30 46 H -0.846501 4.779686 0.373465 0
M  V30 47 H -0.341959 3.622223 1.587519 0
M  V30 48 H -2.099784 3.237555 -0.535823 0
M  V30 49 H -3.290577 2.530260 -1.981181 0
M  V30 50 H -5.102677 1.370489 -3.027180 0
M  V30 51 H -5.817282 -1.286373 -3.818486 0
M  V30 52 H -4.571832 -3.207428 -1.304939 0
M  V30 53 H -4.203782 -5.067347 -0.542040 0
M  V30 54 H -3.743061 -7.232646 0.403599 0
M  V30 55 H -0.454800 -5.554246 2.508760 0
M  V30 56 H 1.579839 1.688928 -1.836722 0
M  V30 57 H 3.293299 -0.102484 -1.321790 0
M  V30 END ATOM
M  V30 BEGIN BOND
M  V30 1 1 1 2
M  V30 2 1 2 3
M  V30 3 2 3 4
M  V30 4 2 3 5
M  V30 5 1 3 6
M  V30 6 1 6 7
M  V30 7 2 7 8
M  V30 8 1 8 9
M  V30 9 2 9 10
M  V30 10 1 10 11
M  V30 11 1 11 12
M  V30 12 1 12 13
M  V30 13 1 13 14
M  V30 14 2 14 15
M  V30 15 1 14 16
M  V30 16 2 16 17
M  V30 17 1 17 18
M  V30 18 2 18 19
M  V30 19 1 19 20
M  V30 20 1 19 21
M  V30 21 1 21 22
M  V30 22 1 22 23
M  V30 23 1 23 24
M  V30 24 2 24 25
M  V30 25 1 25 26
M  V30 26 2 26 27
M  V30 27 1 27 28
M  V30 28 1 27 29
M  V30 29 2 29 30
M  V30 30 1 30 31
M  V30 31 2 23 32
M  V30 32 1 32 33
M  V30 33 1 10 34
M  V30 34 2 34 35
M  V30 35 1 35 7
M  V30 36 1 33 16
M  V30 37 2 33 21
M  V30 38 1 30 24
M  V30 39 1 1 36
M  V30 40 1 1 37
M  V30 41 1 1 38
M  V30 42 1 2 39
M  V30 43 1 2 40
M  V30 44 1 6 41
M  V30 45 1 8 42
M  V30 46 1 9 43
M  V30 47 1 11 44
M  V30 48 1 11 45
M  V30 49 1 12 46
M  V30 50 1 12 47
M  V30 51 1 13 48
M  V30 52 1 17 49
M  V30 53 1 18 50
M  V30 54 1 20 51
M  V30 55 1 22 52
M  V30 56 1 25 53
M  V30 57 1 26 54
M  V30 58 1 29 55
M  V30 59 1 34 56
M  V30 60 1 35 57
M  V30 END BOND
M  V30 END CTAB
M  END
>  <Dataset>  (72) 
ChEMBL_Kinases

>  <Ligand_Instance>  (72) 
nan

>  <PDB_ID>  (72) 
nan

>  <Standardized_SMILES>  (72) 
CCS(=O)(=O)Nc1ccc(CCNC(=O)c2ccc(O)c3[nH]c(-c4ccc(Cl)cc4Cl)nc23)cc1

>  <Name>  (72) 
nan

>  <Pocket>  (72) 
nan

>  <ATP_Site>  (72) 
nan

>  <Peripheral>  (72) 
nan

>  <Num_H_Atoms_ProtBoundConf>  (72) 
nan

>  <Num_Resolved_Atoms>  (72) 
nan

>  <Num_Not_Resolved_Atoms>  (72) 
nan

$$$$
CHEMBL571897
     RDKit          3D

  0  0  0  0  0  0  0  0  0  0999 V3000
M  V30 BEGIN CTAB
M  V30 COUNTS 30 32 0 0 0
M  V30 BEGIN ATOM
M  V30 1 C 0.178148 -4.857267 -0.259013 0
M  V30 2 O 1.524081 -4.530186 -0.024855 0
M  V30 3 C 1.834095 -3.212467 0.374259 0
M  V30 4 C 3.175273 -2.972453 0.583711 0
M  V30 5 C 3.496620 -1.696300 0.972479 0
M  V30 6 C 2.490233 -0.810180 1.111545 0
M  V30 7 S 2.610437 1.001299 1.628197 0
M  V30 8 C 0.742984 1.235999 1.494629 0
M  V30 9 C 0.244315 0.007389 1.099784 0
M  V30 10 C 1.143070 -1.001608 0.914945 0
M  V30 11 C 0.836448 -2.284245 0.525950 0
M  V30 12 C -1.222130 -0.084299 0.914099 0
M  V30 13 C -1.776117 1.098301 0.168917 0
M  V30 14 C -2.251670 2.191009 1.101232 0
M  V30 15 N -1.091674 2.996311 1.438228 0
M  V30 16 C 0.213362 2.574502 1.809066 0
M  V30 17 O 0.986528 3.337015 2.431884 0
M  V30 18 H -0.243931 -4.300065 -1.134305 0
M  V30 19 H 0.094629 -5.947069 -0.461865 0
M  V30 20 H -0.501437 -4.625286 0.588640 0
M  V30 21 H 3.964120 -3.698646 0.465915 0
M  V30 22 H 4.479592 -1.340364 1.176006 0
M  V30 23 H -0.168019 -2.621198 0.325413 0
M  V30 24 H -1.394411 -0.980518 0.283924 0
M  V30 25 H -1.760651 -0.265740 1.866596 0
M  V30 26 H -2.605148 0.739803 -0.474173 0
M  V30 27 H -0.984211 1.477478 -0.515345 0
M  V30 28 H -2.568349 1.715200 2.065539 0
M  V30 29 H -3.070667 2.778561 0.689639 0
M  V30 30 H -1.172644 4.057882 1.421865 0
M  V30 END ATOM
M  V30 BEGIN BOND
M  V30 1 1 1 2
M  V30 2 1 2 3
M  V30 3 2 3 4
M  V30 4 1 4 5
M  V30 5 2 5 6
M  V30 6 1 6 7
M  V30 7 1 7 8
M  V30 8 2 8 9
M  V30 9 1 9 10
M  V30 10 2 10 11
M  V30 11 1 9 12
M  V30 12 1 12 13
M  V30 13 1 13 14
M  V30 14 1 14 15
M  V30 15 1 15 16
M  V30 16 2 16 17
M  V30 17 1 11 3
M  V30 18 1 10 6
M  V30 19 1 16 8
M  V30 20 1 1 18
M  V30 21 1 1 19
M  V30 22 1 1 20
M  V30 23 1 4 21
M  V30 24 1 5 22
M  V30 25 1 11 23
M  V30 26 1 12 24
M  V30 27 1 12 25
M  V30 28 1 13 26
M  V30 29 1 13 27
M  V30 30 1 14 28
M  V30 31 1 14 29
M  V30 32 1 15 30
M  V30 END BOND
M  V30 END CTAB
M  END
>  <Dataset>  (73) 
ChEMBL_Kinases

>  <Ligand_Instance>  (73) 
nan

>  <PDB_ID>  (73) 
nan

>  <Standardized_SMILES>  (73) 
COc1ccc2sc3c(c2c1)CCCNC3=O

>  <Name>  (73) 
nan

>  <Pocket>  (73) 
nan

>  <ATP_Site>  (73) 
nan

>  <Peripheral>  (73) 
nan

>  <Num_H_Atoms_ProtBoundConf>  (73) 
nan

>  <Num_Resolved_Atoms>  (73) 
nan

>  <Num_Not_Resolved_Atoms>  (73) 
nan

$$$$
CHEMBL559592
     RDKit          3D

  0  0  0  0  0  0  0  0  0  0999 V3000
M  V30 BEGIN CTAB
M  V30 COUNTS 37 40 0 0 0
M  V30 BEGIN ATOM
M  V30 1 C -1.474588 -4.197826 1.563235 0
M  V30 2 N -0.763425 -2.935558 1.452403 0
M  V30 3 C 0.241253 -2.648763 0.591300 0
M  V30 4 C 0.694370 -1.353087 0.751159 0
M  V30 5 C 1.770698 -0.773172 -0.043169 0
M  V30 6 N 3.024132 -1.286762 -0.020114 0
M  V30 7 C 4.028649 -0.768490 -0.744739 0
M  V30 8 N 5.325756 -1.392375 -0.646755 0
M  V30 9 N 3.832063 0.293062 -1.532133 0
M  V30 10 C 2.610608 0.864779 -1.611353 0
M  V30 11 C 1.563789 0.324176 -0.855970 0
M  V30 12 C 0.246557 0.943984 -0.943623 0
M  V30 13 C -0.035608 2.253026 -0.606237 0
M  V30 14 N -1.271447 2.734376 -0.717655 0
M  V30 15 C -2.314239 1.995211 -1.158176 0
M  V30 16 N -2.049735 0.710924 -1.491647 0
M  V30 17 C -0.822856 0.166239 -1.401387 0
M  V30 18 C -0.097796 -0.845973 1.774949 0
M  V30 19 C -0.057832 0.419432 2.330823 0
M  V30 20 C -0.960137 0.681361 3.349078 0
M  V30 21 C -1.866983 -0.270069 3.800657 0
M  V30 22 C -1.880746 -1.519075 3.226380 0
M  V30 23 C -0.990079 -1.823196 2.200026 0
M  V30 24 H -1.582294 -4.501183 2.622877 0
M  V30 25 H -0.943522 -4.953967 0.946031 0
M  V30 26 H -2.520256 -4.055723 1.188468 0
M  V30 27 H 0.616326 -3.370014 -0.120126 0
M  V30 28 H 5.904777 -2.011279 -1.277874 0
M  V30 29 H 5.678728 -1.092596 0.311071 0
M  V30 30 H 2.400893 1.727751 -2.236507 0
M  V30 31 H 0.813770 2.841250 -0.251709 0
M  V30 32 H -3.323494 2.375801 -1.253179 0
M  V30 33 H -0.704457 -0.889985 -1.696596 0
M  V30 34 H 0.647206 1.180309 1.989774 0
M  V30 35 H -0.995336 1.642226 3.836161 0
M  V30 36 H -2.584886 -0.114314 4.585649 0
M  V30 37 H -2.562209 -2.306927 3.531879 0
M  V30 END ATOM
M  V30 BEGIN BOND
M  V30 1 1 1 2
M  V30 2 1 2 3
M  V30 3 2 3 4
M  V30 4 1 4 5
M  V30 5 2 5 6
M  V30 6 1 6 7
M  V30 7 1 7 8
M  V30 8 2 7 9
M  V30 9 1 9 10
M  V30 10 2 10 11
M  V30 11 1 11 12
M  V30 12 2 12 13
M  V30 13 1 13 14
M  V30 14 2 14 15
M  V30 15 1 15 16
M  V30 16 2 16 17
M  V30 17 1 4 18
M  V30 18 2 18 19
M  V30 19 1 19 20
M  V30 20 2 20 21
M  V30 21 1 21 22
M  V30 22 2 22 23
M  V30 23 1 23 2
M  V30 24 1 11 5
M  V30 25 1 17 12
M  V30 26 1 23 18
M  V30 27 1 1 24
M  V30 28 1 1 25
M  V30 29 1 1 26
M  V30 30 1 3 27
M  V30 31 1 8 28
M  V30 32 1 8 29
M  V30 33 1 10 30
M  V30 34 1 13 31
M  V30 35 1 15 32
M  V30 36 1 17 33
M  V30 37 1 19 34
M  V30 38 1 20 35
M  V30 39 1 21 36
M  V30 40 1 22 37
M  V30 END BOND
M  V30 END CTAB
M  END
>  <Dataset>  (74) 
ChEMBL_Kinases

>  <Ligand_Instance>  (74) 
nan

>  <PDB_ID>  (74) 
nan

>  <Standardized_SMILES>  (74) 
Cn1cc(-c2nc(N)ncc2-c2cncnc2)c2ccccc21

>  <Name>  (74) 
nan

>  <Pocket>  (74) 
nan

>  <ATP_Site>  (74) 
nan

>  <Peripheral>  (74) 
nan

>  <Num_H_Atoms_ProtBoundConf>  (74) 
nan

>  <Num_Resolved_Atoms>  (74) 
nan

>  <Num_Not_Resolved_Atoms>  (74) 
nan

$$$$
CHEMBL559597
     RDKit          3D

  0  0  0  0  0  0  0  0  0  0999 V3000
M  V30 BEGIN CTAB
M  V30 COUNTS 57 61 0 0 0
M  V30 BEGIN ATOM
M  V30 1 C 0.070449 -5.343839 3.528129 0
M  V30 2 C 0.960523 -4.701554 2.479664 0
M  V30 3 N 0.358508 -3.547872 1.884313 0
M  V30 4 C 0.600124 -2.377059 2.495697 0
M  V30 5 O 1.315189 -2.322799 3.530543 0
M  V30 6 C 0.022157 -1.228553 1.930040 0
M  V30 7 C -0.789578 -1.244063 0.764235 0
M  V30 8 N -1.191325 0.044322 0.477284 0
M  V30 9 C -1.098743 1.136735 -0.395441 0
M  V30 10 C -0.533815 2.220443 0.304122 0
M  V30 11 C -0.257837 3.495171 -0.189600 0
M  V30 12 C 0.329641 4.561702 0.604480 0
M  V30 13 O 0.616937 4.353375 1.810446 0
M  V30 14 N 0.576767 5.815370 0.036725 0
M  V30 15 C 1.151730 6.910599 0.756254 0
M  V30 16 C 2.328918 7.645036 0.113490 0
M  V30 17 C 0.966584 8.311707 0.440449 0
M  V30 18 C -0.595124 3.656798 -1.512540 0
M  V30 19 C -1.151618 2.667416 -2.286250 0
M  V30 20 C -1.369052 1.476637 -1.687949 0
M  V30 21 C -1.972514 0.362281 -2.431475 0
M  V30 22 C -0.942976 -2.500785 0.263198 0
M  V30 23 C -1.681847 -2.836081 -0.830853 0
M  V30 24 N -1.571373 -4.167442 -0.958167 0
M  V30 25 N -0.802640 -4.643705 0.009099 0
M  V30 26 C -0.537026 -6.030817 0.079163 0
M  V30 27 C 0.426263 -6.378275 -0.858332 0
M  V30 28 C 0.867543 -7.686319 -1.019878 0
M  V30 29 C 0.339203 -8.676439 -0.230348 0
M  V30 30 F 0.720122 -9.964874 -0.332601 0
M  V30 31 C -0.615679 -8.345207 0.701997 0
M  V30 32 C -1.056749 -7.063404 0.869398 0
M  V30 33 C -0.395642 -3.636365 0.787827 0
M  V30 34 H -1.007244 -5.181457 3.267024 0
M  V30 35 H 0.247766 -6.436600 3.497700 0
M  V30 36 H 0.298413 -4.967858 4.545922 0
M  V30 37 H 1.924768 -4.406679 2.983309 0
M  V30 38 H 1.168318 -5.469240 1.719526 0
M  V30 39 H 0.276933 -0.331300 2.499465 0
M  V30 40 H -1.905350 0.293172 1.243537 0
M  V30 41 H -0.237874 2.175671 1.357479 0
M  V30 42 H 0.373829 6.082258 -0.949221 0
M  V30 43 H 1.377937 6.651432 1.812716 0
M  V30 44 H 2.574614 7.453233 -0.939192 0
M  V30 45 H 3.182579 7.960763 0.711713 0
M  V30 46 H 0.478333 8.726327 -0.433641 0
M  V30 47 H 1.022695 9.055934 1.276687 0
M  V30 48 H -0.435920 4.589464 -2.025157 0
M  V30 49 H -1.431375 2.750647 -3.325520 0
M  V30 50 H -2.871562 -0.013596 -1.881697 0
M  V30 51 H -2.277176 0.676238 -3.450309 0
M  V30 52 H -1.194990 -0.421383 -2.513327 0
M  V30 53 H -2.257490 -2.222141 -1.474020 0
M  V30 54 H 0.946580 -5.713163 -1.563582 0
M  V30 55 H 1.607631 -8.013490 -1.726103 0
M  V30 56 H -1.091552 -9.060205 1.371886 0
M  V30 57 H -1.794968 -6.653916 1.552775 0
M  V30 END ATOM
M  V30 BEGIN BOND
M  V30 1 1 1 2
M  V30 2 1 2 3
M  V30 3 1 3 4
M  V30 4 2 4 5
M  V30 5 1 4 6
M  V30 6 2 6 7
M  V30 7 1 7 8
M  V30 8 1 8 9
M  V30 9 2 9 10
M  V30 10 1 10 11
M  V30 11 1 11 12
M  V30 12 2 12 13
M  V30 13 1 12 14
M  V30 14 1 14 15
M  V30 15 1 15 16
M  V30 16 1 16 17
M  V30 17 2 11 18
M  V30 18 1 18 19
M  V30 19 2 19 20
M  V30 20 1 20 21
M  V30 21 1 7 22
M  V30 22 1 22 23
M  V30 23 2 23 24
M  V30 24 1 24 25
M  V30 25 1 25 26
M  V30 26 2 26 27
M  V30 27 1 27 28
M  V30 28 2 28 29
M  V30 29 1 29 30
M  V30 30 1 29 31
M  V30 31 2 31 32
M  V30 32 1 25 33
M  V30 33 1 33 3
M  V30 34 1 20 9
M  V30 35 2 33 22
M  V30 36 1 17 15
M  V30 37 1 32 26
M  V30 38 1 1 34
M  V30 39 1 1 35
M  V30 40 1 1 36
M  V30 41 1 2 37
M  V30 42 1 2 38
M  V30 43 1 6 39
M  V30 44 1 8 40
M  V30 45 1 10 41
M  V30 46 1 14 42
M  V30 47 1 15 43
M  V30 48 1 16 44
M  V30 49 1 16 45
M  V30 50 1 17 46
M  V30 51 1 17 47
M  V30 52 1 18 48
M  V30 53 1 19 49
M  V30 54 1 21 50
M  V30 55 1 21 51
M  V30 56 1 21 52
M  V30 57 1 23 53
M  V30 58 1 27 54
M  V30 59 1 28 55
M  V30 60 1 31 56
M  V30 61 1 32 57
M  V30 END BOND
M  V30 END CTAB
M  END
>  <Dataset>  (75) 
ChEMBL_Kinases

>  <Ligand_Instance>  (75) 
nan

>  <PDB_ID>  (75) 
nan

>  <Standardized_SMILES>  (75) 
CCn1c(=O)cc(Nc2cc(C(=O)NC3CC3)ccc2C)c2cnn(-c3ccc(F)cc3)c21

>  <Name>  (75) 
nan

>  <Pocket>  (75) 
nan

>  <ATP_Site>  (75) 
nan

>  <Peripheral>  (75) 
nan

>  <Num_H_Atoms_ProtBoundConf>  (75) 
nan

>  <Num_Resolved_Atoms>  (75) 
nan

>  <Num_Not_Resolved_Atoms>  (75) 
nan

$$$$
CHEMBL571823
     RDKit          3D

  0  0  0  0  0  0  0  0  0  0999 V3000
M  V30 BEGIN CTAB
M  V30 COUNTS 64 67 0 0 0
M  V30 BEGIN ATOM
M  V30 1 C 2.860086 -0.117516 4.724115 0
M  V30 2 N 2.812792 1.152984 5.433814 0
M  V30 3 C 3.103430 1.297376 6.819081 0
M  V30 4 O 3.453297 0.361956 7.590056 0
M  V30 5 N 2.909189 2.691148 7.098052 0
M  V30 6 C 2.507222 3.364303 5.886972 0
M  V30 7 O 2.252141 4.584836 5.846794 0
M  V30 8 C 2.461853 2.379018 4.775000 0 CFG=1
M  V30 9 C 3.349428 2.741446 3.614322 0
M  V30 10 C 2.566591 2.261392 2.440248 0
M  V30 11 C 2.999729 2.032026 1.134498 0
M  V30 12 C 2.114385 1.582630 0.181100 0
M  V30 13 C 0.790519 1.360382 0.529904 0
M  V30 14 N -0.220068 0.887705 -0.387737 0
M  V30 15 C -0.367988 -0.546974 -0.463754 0
M  V30 16 O 0.484396 -0.994613 0.346689 0
M  V30 17 C -1.424188 -0.945955 -1.427208 0
M  V30 18 N -1.599096 -2.381478 -1.528869 0
M  V30 19 C -2.563954 -2.865774 -0.560003 0
M  V30 20 C -3.948400 -2.878919 -1.033210 0
M  V30 21 C -4.839642 -1.823766 -0.877443 0
M  V30 22 C -6.147205 -1.810167 -1.313808 0
M  V30 23 C -6.631717 -2.916334 -1.956941 0
M  V30 24 C -5.827196 -4.016492 -2.161319 0
M  V30 25 C -4.531970 -3.958870 -1.698192 0
M  V30 26 C -0.972222 -3.287348 -2.406475 0
M  V30 27 O -1.270833 -4.523830 -2.315327 0
M  V30 28 C 0.022303 -2.946767 -3.451929 0
M  V30 29 C -0.483196 -1.989169 -4.475173 0
M  V30 30 C 0.511177 -4.202142 -4.168199 0
M  V30 31 C 1.216266 -2.321418 -2.760203 0
M  V30 32 C 0.348294 1.580743 1.808567 0
M  V30 33 C 1.232958 2.033562 2.775876 0
M  V30 34 C 1.047808 2.358870 4.232600 0
M  V30 35 H 3.795447 -0.178618 4.113471 0
M  V30 36 H 1.958535 -0.224617 4.087109 0
M  V30 37 H 2.908257 -0.970938 5.419448 0
M  V30 38 H 3.055353 3.086386 8.055688 0
M  V30 39 H 4.301377 2.160053 3.622172 0
M  V30 40 H 3.532210 3.809103 3.484946 0
M  V30 41 H 4.046947 2.203661 0.842209 0
M  V30 42 H 2.383499 1.381538 -0.861868 0
M  V30 43 H -0.723053 1.673583 -0.888030 0
M  V30 44 H -1.148884 -0.590169 -2.443150 0
M  V30 45 H -2.341708 -0.401633 -1.162345 0
M  V30 46 H -2.219900 -3.905527 -0.286591 0
M  V30 47 H -2.540122 -2.314914 0.404603 0
M  V30 48 H -4.521635 -0.926918 -0.377419 0
M  V30 49 H -6.788371 -0.953889 -1.159147 0
M  V30 50 H -7.653822 -2.927548 -2.307675 0
M  V30 51 H -6.212345 -4.887316 -2.668598 0
M  V30 52 H -3.949501 -4.844434 -1.882374 0
M  V30 53 H -0.306554 -2.408086 -5.485672 0
M  V30 54 H -1.600573 -1.852071 -4.427026 0
M  V30 55 H 0.063128 -1.019854 -4.459337 0
M  V30 56 H -0.159853 -4.469476 -5.012393 0
M  V30 57 H 1.476316 -3.903868 -4.668149 0
M  V30 58 H 0.664159 -5.049004 -3.478162 0
M  V30 59 H 2.152844 -2.705481 -3.243413 0
M  V30 60 H 1.191440 -1.202047 -2.799481 0
M  V30 61 H 1.268708 -2.635043 -1.697488 0
M  V30 62 H -0.684082 1.414393 2.107981 0
M  V30 63 H 0.555256 3.358577 4.301380 0
M  V30 64 H 0.491205 1.555929 4.751128 0
M  V30 END ATOM
M  V30 BEGIN BOND
M  V30 1 1 1 2
M  V30 2 1 2 3
M  V30 3 2 3 4
M  V30 4 1 3 5
M  V30 5 1 5 6
M  V30 6 2 6 7
M  V30 7 1 6 8
M  V30 8 1 8 9
M  V30 9 1 9 10
M  V30 10 2 10 11
M  V30 11 1 11 12
M  V30 12 2 12 13
M  V30 13 1 13 14
M  V30 14 1 14 15
M  V30 15 2 15 16
M  V30 16 1 15 17
M  V30 17 1 17 18
M  V30 18 1 18 19
M  V30 19 1 19 20
M  V30 20 2 20 21
M  V30 21 1 21 22
M  V30 22 2 22 23
M  V30 23 1 23 24
M  V30 24 2 24 25
M  V30 25 1 18 26
M  V30 26 2 26 27
M  V30 27 1 26 28
M  V30 28 1 28 29
M  V30 29 1 28 30
M  V30 30 1 28 31
M  V30 31 1 13 32
M  V30 32 2 32 33
M  V30 33 1 33 34
M  V30 34 1 8 2 CFG=1
M  V30 35 1 33 10
M  V30 36 1 34 8
M  V30 37 1 25 20
M  V30 38 1 1 35
M  V30 39 1 1 36
M  V30 40 1 1 37
M  V30 41 1 5 38
M  V30 42 1 9 39
M  V30 43 1 9 40
M  V30 44 1 11 41
M  V30 45 1 12 42
M  V30 46 1 14 43
M  V30 47 1 17 44
M  V30 48 1 17 45
M  V30 49 1 19 46
M  V30 50 1 19 47
M  V30 51 1 21 48
M  V30 52 1 22 49
M  V30 53 1 23 50
M  V30 54 1 24 51
M  V30 55 1 25 52
M  V30 56 1 29 53
M  V30 57 1 29 54
M  V30 58 1 29 55
M  V30 59 1 30 56
M  V30 60 1 30 57
M  V30 61 1 30 58
M  V30 62 1 31 59
M  V30 63 1 31 60
M  V30 64 1 31 61
M  V30 65 1 32 62
M  V30 66 1 34 63
M  V30 67 1 34 64
M  V30 END BOND
M  V30 END CTAB
M  END
>  <Dataset>  (76) 
ChEMBL_Kinases

>  <Ligand_Instance>  (76) 
nan

>  <PDB_ID>  (76) 
nan

>  <Standardized_SMILES>  (76) 
CN1C(=O)NC(=O)[C@@]12Cc1ccc(NC(=O)CN(Cc3ccccc3)C(=O)C(C)(C)C)cc1C2

>  <Name>  (76) 
nan

>  <Pocket>  (76) 
nan

>  <ATP_Site>  (76) 
nan

>  <Peripheral>  (76) 
nan

>  <Num_H_Atoms_ProtBoundConf>  (76) 
nan

>  <Num_Resolved_Atoms>  (76) 
nan

>  <Num_Not_Resolved_Atoms>  (76) 
nan

$$$$
CHEMBL559735
     RDKit          3D

  0  0  0  0  0  0  0  0  0  0999 V3000
M  V30 BEGIN CTAB
M  V30 COUNTS 41 44 0 0 0
M  V30 BEGIN ATOM
M  V30 1 C 0.749124 -3.501448 3.697275 0
M  V30 2 N 0.410820 -2.726918 2.520941 0
M  V30 3 C 1.135132 -2.527001 1.422210 0
M  V30 4 C 0.429038 -1.723230 0.548555 0
M  V30 5 C 1.014476 -1.358618 -0.737086 0
M  V30 6 N 1.313314 -2.301659 -1.649154 0
M  V30 7 C 1.852084 -2.065287 -2.855255 0
M  V30 8 N 2.076125 -3.240384 -3.644845 0
M  V30 9 N 2.118781 -0.786158 -3.189164 0
M  V30 10 C 1.839747 0.184568 -2.317371 0
M  V30 11 C 1.278366 -0.041747 -1.055955 0
M  V30 12 C 0.987372 1.045229 -0.128006 0
M  V30 13 C 0.092111 2.007199 -0.553881 0
M  V30 14 C -0.257180 3.083795 0.245831 0
M  V30 15 C 0.288679 3.216617 1.496163 0
M  V30 16 C 1.183450 2.260247 1.928898 0
M  V30 17 N 1.750052 2.388091 3.214453 0
M  V30 18 C 1.544261 1.180401 1.147670 0
M  V30 19 C -0.777391 -1.439857 1.177631 0
M  V30 20 C -1.802750 -0.666146 0.673959 0
M  V30 21 C -2.904844 -0.538612 1.503325 0
M  V30 22 C -2.966488 -1.144811 2.743885 0
M  V30 23 C -1.909105 -1.903155 3.186295 0
M  V30 24 C -0.764422 -2.082347 2.415812 0
M  V30 25 H 0.941778 -2.873409 4.576105 0
M  V30 26 H -0.092009 -4.187757 3.988497 0
M  V30 27 H 1.602522 -4.174508 3.441431 0
M  V30 28 H 2.123637 -2.968468 1.312668 0
M  V30 29 H 1.224999 -3.816871 -3.841501 0
M  V30 30 H 3.101973 -3.252866 -3.856502 0
M  V30 31 H 2.063954 1.215505 -2.610495 0
M  V30 32 H -0.366946 1.949518 -1.529978 0
M  V30 33 H -0.960150 3.828535 -0.101845 0
M  V30 34 H 0.046148 4.050239 2.170037 0
M  V30 35 H 1.540446 2.115934 4.219789 0
M  V30 36 H 2.631591 2.914142 3.059043 0
M  V30 37 H 2.239734 0.407997 1.446375 0
M  V30 38 H -1.753139 -0.202710 -0.277352 0
M  V30 39 H -3.749157 0.042251 1.200738 0
M  V30 40 H -3.813288 -1.069028 3.423908 0
M  V30 41 H -1.910006 -2.393322 4.141975 0
M  V30 END ATOM
M  V30 BEGIN BOND
M  V30 1 1 1 2
M  V30 2 1 2 3
M  V30 3 2 3 4
M  V30 4 1 4 5
M  V30 5 2 5 6
M  V30 6 1 6 7
M  V30 7 1 7 8
M  V30 8 2 7 9
M  V30 9 1 9 10
M  V30 10 2 10 11
M  V30 11 1 11 12
M  V30 12 2 12 13
M  V30 13 1 13 14
M  V30 14 2 14 15
M  V30 15 1 15 16
M  V30 16 1 16 17
M  V30 17 2 16 18
M  V30 18 1 4 19
M  V30 19 2 19 20
M  V30 20 1 20 21
M  V30 21 2 21 22
M  V30 22 1 22 23
M  V30 23 2 23 24
M  V30 24 1 24 2
M  V30 25 1 11 5
M  V30 26 1 18 12
M  V30 27 1 24 19
M  V30 28 1 1 25
M  V30 29 1 1 26
M  V30 30 1 1 27
M  V30 31 1 3 28
M  V30 32 1 8 29
M  V30 33 1 8 30
M  V30 34 1 10 31
M  V30 35 1 13 32
M  V30 36 1 14 33
M  V30 37 1 15 34
M  V30 38 1 17 35
M  V30 39 1 17 36
M  V30 40 1 18 37
M  V30 41 1 20 38
M  V30 42 1 21 39
M  V30 43 1 22 40
M  V30 44 1 23 41
M  V30 END BOND
M  V30 END CTAB
M  END
>  <Dataset>  (77) 
ChEMBL_Kinases

>  <Ligand_Instance>  (77) 
nan

>  <PDB_ID>  (77) 
nan

>  <Standardized_SMILES>  (77) 
Cn1cc(-c2nc(N)ncc2-c2cccc(N)c2)c2ccccc21

>  <Name>  (77) 
nan

>  <Pocket>  (77) 
nan

>  <ATP_Site>  (77) 
nan

>  <Peripheral>  (77) 
nan

>  <Num_H_Atoms_ProtBoundConf>  (77) 
nan

>  <Num_Resolved_Atoms>  (77) 
nan

>  <Num_Not_Resolved_Atoms>  (77) 
nan

$$$$
CHEMBL559783
     RDKit          3D

  0  0  0  0  0  0  0  0  0  0999 V3000
M  V30 BEGIN CTAB
M  V30 COUNTS 36 38 0 0 0
M  V30 BEGIN ATOM
M  V30 1 N 0.706422 -2.268354 0.877863 0
M  V30 2 C -0.063099 -1.079111 0.691112 0
M  V30 3 C 0.446137 0.141749 0.291415 0
M  V30 4 C 1.884510 0.165303 0.057330 0
M  V30 5 O 2.546926 -0.887386 0.239589 0
M  V30 6 C 2.770067 1.237017 -0.374983 0
M  V30 7 C 2.524639 2.101502 -1.408766 0
M  V30 8 C 3.370918 3.107013 -1.806594 0
M  V30 9 C 4.559325 3.273592 -1.127437 0
M  V30 10 F 5.423924 4.254692 -1.487963 0
M  V30 11 C 4.872035 2.439042 -0.075749 0
M  V30 12 C 3.983022 1.431263 0.294000 0
M  V30 13 F 4.350301 0.636290 1.345095 0
M  V30 14 C -0.383054 1.233654 0.139650 0
M  V30 15 C -1.742991 1.167885 0.374452 0
M  V30 16 N -2.249822 -0.020834 0.765352 0 CHG=1 VAL=4
M  V30 17 O -3.599934 -0.153776 1.016088 0 CHG=-1 VAL=1
M  V30 18 C -1.450656 -1.101393 0.919036 0
M  V30 19 C -2.057650 -2.349188 1.341395 0
M  V30 20 C -2.527267 -3.234589 0.369234 0
M  V30 21 Cl -2.406919 -2.886625 -1.347482 0
M  V30 22 C -3.117230 -4.445504 0.749386 0
M  V30 23 C -3.242151 -4.779068 2.082858 0
M  V30 24 C -2.772874 -3.892881 3.031120 0
M  V30 25 C -2.182249 -2.683418 2.696195 0
M  V30 26 Cl -1.589982 -1.566833 3.923241 0
M  V30 27 H 0.566383 -3.061287 0.224910 0
M  V30 28 H 1.430311 -2.481937 1.608596 0
M  V30 29 H 1.620888 2.000271 -1.953725 0
M  V30 30 H 3.117284 3.766142 -2.641978 0
M  V30 31 H 5.808705 2.578126 0.451738 0
M  V30 32 H 0.040132 2.174851 -0.171752 0
M  V30 33 H -2.386232 2.029850 0.252777 0
M  V30 34 H -3.477062 -5.123077 -0.009167 0
M  V30 35 H -3.706870 -5.732604 2.377256 0
M  V30 36 H -2.852225 -4.117249 4.080890 0
M  V30 END ATOM
M  V30 BEGIN BOND
M  V30 1 1 1 2
M  V30 2 2 2 3
M  V30 3 1 3 4
M  V30 4 2 4 5
M  V30 5 1 4 6
M  V30 6 2 6 7
M  V30 7 1 7 8
M  V30 8 2 8 9
M  V30 9 1 9 10
M  V30 10 1 9 11
M  V30 11 2 11 12
M  V30 12 1 12 13
M  V30 13 1 3 14
M  V30 14 2 14 15
M  V30 15 1 15 16
M  V30 16 1 16 17
M  V30 17 2 16 18
M  V30 18 1 18 19
M  V30 19 2 19 20
M  V30 20 1 20 21
M  V30 21 1 20 22
M  V30 22 2 22 23
M  V30 23 1 23 24
M  V30 24 2 24 25
M  V30 25 1 25 26
M  V30 26 1 18 2
M  V30 27 1 25 19
M  V30 28 1 12 6
M  V30 29 1 1 27
M  V30 30 1 1 28
M  V30 31 1 7 29
M  V30 32 1 8 30
M  V30 33 1 11 31
M  V30 34 1 14 32
M  V30 35 1 15 33
M  V30 36 1 22 34
M  V30 37 1 23 35
M  V30 38 1 24 36
M  V30 END BOND
M  V30 END CTAB
M  END
>  <Dataset>  (78) 
ChEMBL_Kinases

>  <Ligand_Instance>  (78) 
nan

>  <PDB_ID>  (78) 
nan

>  <Standardized_SMILES>  (78) 
Nc1c(C(=O)c2ccc(F)cc2F)cc[n+]([O-])c1-c1c(Cl)cccc1Cl

>  <Name>  (78) 
nan

>  <Pocket>  (78) 
nan

>  <ATP_Site>  (78) 
nan

>  <Peripheral>  (78) 
nan

>  <Num_H_Atoms_ProtBoundConf>  (78) 
nan

>  <Num_Resolved_Atoms>  (78) 
nan

>  <Num_Not_Resolved_Atoms>  (78) 
nan

$$$$
CHEMBL559935
     RDKit          3D

  0  0  0  0  0  0  0  0  0  0999 V3000
M  V30 BEGIN CTAB
M  V30 COUNTS 51 55 0 0 0
M  V30 BEGIN ATOM
M  V30 1 C 1.740814 -4.163696 2.014758 0
M  V30 2 N 0.785227 -3.126949 2.354929 0
M  V30 3 C 0.718051 -2.620197 3.601260 0
M  V30 4 O 1.513887 -3.069699 4.484445 0
M  V30 5 C -0.172405 -1.630940 3.983282 0
M  V30 6 C -1.061737 -1.115296 3.033809 0
M  V30 7 N -2.021286 -0.102557 3.302805 0
M  V30 8 C -2.213397 1.195658 2.761573 0
M  V30 9 C -1.357319 1.647173 1.792091 0
M  V30 10 C -1.594725 2.920953 1.300625 0
M  V30 11 C -0.803766 3.573893 0.276697 0
M  V30 12 O -0.991647 4.736297 -0.196124 0
M  V30 13 N 0.320969 2.952651 -0.337109 0
M  V30 14 C 1.155510 3.549635 -1.367524 0
M  V30 15 C 2.624389 3.374447 -1.144843 0
M  V30 16 C 1.901346 2.682390 -2.291231 0
M  V30 17 C -2.649434 3.691607 1.773936 0
M  V30 18 C -3.479082 3.172559 2.757793 0
M  V30 19 C -3.274477 1.893406 3.279919 0
M  V30 20 F -4.085300 1.387083 4.240969 0
M  V30 21 C -1.003446 -1.630563 1.739686 0
M  V30 22 C -1.668471 -1.421129 0.537058 0
M  V30 23 N -1.149817 -2.247413 -0.388297 0
M  V30 24 N -0.182979 -2.978027 0.162531 0
M  V30 25 C 0.483084 -3.914658 -0.676035 0
M  V30 26 C 0.333675 -5.304490 -0.625606 0
M  V30 27 C 1.055691 -6.088603 -1.514722 0
M  V30 28 C 1.903846 -5.495002 -2.428828 0
M  V30 29 F 2.586162 -6.307695 -3.275234 0
M  V30 30 C 2.050109 -4.123362 -2.477237 0
M  V30 31 C 1.341567 -3.320206 -1.601815 0
M  V30 32 F 1.521563 -1.982096 -1.691485 0
M  V30 33 C -0.070410 -2.624568 1.459334 0
M  V30 34 H 1.335028 -5.186328 2.097976 0
M  V30 35 H 2.551374 -4.108507 2.798991 0
M  V30 36 H 2.280064 -3.973419 1.062397 0
M  V30 37 H -0.251104 -1.209661 4.957674 0
M  V30 38 H -2.604120 -0.546632 4.041543 0
M  V30 39 H -0.523654 1.096231 1.387754 0
M  V30 40 H 0.613858 1.978875 -0.055573 0
M  V30 41 H 0.850752 4.579087 -1.668397 0
M  V30 42 H 2.984667 2.686848 -0.342369 0
M  V30 43 H 3.338348 4.152840 -1.432709 0
M  V30 44 H 2.086510 3.009234 -3.329209 0
M  V30 45 H 1.718361 1.579978 -2.188951 0
M  V30 46 H -2.872005 4.690404 1.419360 0
M  V30 47 H -4.311026 3.763539 3.140351 0
M  V30 48 H -2.450523 -0.694984 0.471416 0
M  V30 49 H -0.364311 -5.656405 0.138428 0
M  V30 50 H 0.886856 -7.150027 -1.413986 0
M  V30 51 H 2.722433 -3.648387 -3.201445 0
M  V30 END ATOM
M  V30 BEGIN BOND
M  V30 1 1 1 2
M  V30 2 1 2 3
M  V30 3 2 3 4
M  V30 4 1 3 5
M  V30 5 2 5 6
M  V30 6 1 6 7
M  V30 7 1 7 8
M  V30 8 2 8 9
M  V30 9 1 9 10
M  V30 10 1 10 11
M  V30 11 2 11 12
M  V30 12 1 11 13
M  V30 13 1 13 14
M  V30 14 1 14 15
M  V30 15 1 15 16
M  V30 16 2 10 17
M  V30 17 1 17 18
M  V30 18 2 18 19
M  V30 19 1 19 20
M  V30 20 1 6 21
M  V30 21 1 21 22
M  V30 22 2 22 23
M  V30 23 1 23 24
M  V30 24 1 24 25
M  V30 25 2 25 26
M  V30 26 1 26 27
M  V30 27 2 27 28
M  V30 28 1 28 29
M  V30 29 1 28 30
M  V30 30 2 30 31
M  V30 31 1 31 32
M  V30 32 1 24 33
M  V30 33 1 33 2
M  V30 34 1 19 8
M  V30 35 2 33 21
M  V30 36 1 16 14
M  V30 37 1 31 25
M  V30 38 1 1 34
M  V30 39 1 1 35
M  V30 40 1 1 36
M  V30 41 1 5 37
M  V30 42 1 7 38
M  V30 43 1 9 39
M  V30 44 1 13 40
M  V30 45 1 14 41
M  V30 46 1 15 42
M  V30 47 1 15 43
M  V30 48 1 16 44
M  V30 49 1 16 45
M  V30 50 1 17 46
M  V30 51 1 18 47
M  V30 52 1 22 48
M  V30 53 1 26 49
M  V30 54 1 27 50
M  V30 55 1 30 51
M  V30 END BOND
M  V30 END CTAB
M  END
>  <Dataset>  (79) 
ChEMBL_Kinases

>  <Ligand_Instance>  (79) 
nan

>  <PDB_ID>  (79) 
nan

>  <Standardized_SMILES>  (79) 
Cn1c(=O)cc(Nc2cc(C(=O)NC3CC3)ccc2F)c2cnn(-c3ccc(F)cc3F)c21

>  <Name>  (79) 
nan

>  <Pocket>  (79) 
nan

>  <ATP_Site>  (79) 
nan

>  <Peripheral>  (79) 
nan

>  <Num_H_Atoms_ProtBoundConf>  (79) 
nan

>  <Num_Resolved_Atoms>  (79) 
nan

>  <Num_Not_Resolved_Atoms>  (79) 
nan

$$$$
CHEMBL560014
     RDKit          3D

  0  0  0  0  0  0  0  0  0  0999 V3000
M  V30 BEGIN CTAB
M  V30 COUNTS 43 46 0 0 0
M  V30 BEGIN ATOM
M  V30 1 C 0.037634 -2.729932 3.932388 0
M  V30 2 C -0.534561 -2.654090 2.510137 0 CFG=1
M  V30 3 O -0.126396 -1.532276 1.898130 0
M  V30 4 C -0.628603 -0.425885 1.327119 0
M  V30 5 C 0.361390 0.366980 0.869274 0
M  V30 6 C 0.039014 1.542900 0.254761 0
M  V30 7 C 0.616969 2.734082 -0.400336 0
M  V30 8 C -0.095356 3.780420 -0.932138 0
M  V30 9 N 0.772841 4.668856 -1.436294 0
M  V30 10 C 2.014094 4.221905 -1.242594 0
M  V30 11 C 3.193673 4.823569 -1.605118 0
M  V30 12 C 4.371758 4.176982 -1.302807 0
M  V30 13 C 4.272380 2.973087 -0.658104 0
M  V30 14 C 3.044694 2.442955 -0.331962 0
M  V30 15 N 1.887603 3.047427 -0.612591 0
M  V30 16 S -1.766184 1.501536 0.341841 0
M  V30 17 C -1.887189 -0.043632 1.168943 0
M  V30 18 C -3.182690 -0.595302 1.509376 0
M  V30 19 N -4.396472 0.072415 1.197669 0
M  V30 20 O -3.806544 -1.523801 2.026205 0
M  V30 21 C 0.015373 -3.895652 1.833081 0
M  V30 22 C 1.223056 -3.849023 1.171175 0
M  V30 23 C 1.670348 -5.014959 0.574036 0
M  V30 24 C 0.959586 -6.192520 0.621445 0
M  V30 25 C -0.242447 -6.247638 1.277664 0
M  V30 26 C -0.699413 -5.093568 1.876688 0
M  V30 27 Cl -2.227586 -5.055858 2.743028 0
M  V30 28 H -0.240998 -3.671067 4.434775 0
M  V30 29 H -0.285393 -1.897256 4.563724 0
M  V30 30 H 1.157105 -2.703639 3.920417 0
M  V30 31 H -1.618382 -2.843814 2.650085 0
M  V30 32 H 1.436861 0.277912 0.877920 0
M  V30 33 H -1.151230 3.990842 -1.006491 0
M  V30 34 H 3.220290 5.780707 -2.115807 0
M  V30 35 H 5.296175 4.656875 -1.591363 0
M  V30 36 H 5.209018 2.486496 -0.432378 0
M  V30 37 H 3.127344 1.501880 0.166277 0
M  V30 38 H -4.965283 -0.032332 0.302813 0
M  V30 39 H -4.911739 0.770499 1.802173 0
M  V30 40 H 1.799578 -2.932774 1.121138 0
M  V30 41 H 2.623426 -5.037382 0.034057 0
M  V30 42 H 1.275795 -7.127174 0.166466 0
M  V30 43 H -0.884571 -7.098130 1.383969 0
M  V30 END ATOM
M  V30 BEGIN BOND
M  V30 1 1 1 2
M  V30 2 1 2 3
M  V30 3 1 3 4
M  V30 4 1 4 5
M  V30 5 2 5 6
M  V30 6 1 6 7
M  V30 7 2 7 8
M  V30 8 1 8 9
M  V30 9 2 9 10
M  V30 10 1 10 11
M  V30 11 2 11 12
M  V30 12 1 12 13
M  V30 13 2 13 14
M  V30 14 1 14 15
M  V30 15 1 6 16
M  V30 16 1 16 17
M  V30 17 1 17 18
M  V30 18 1 18 19
M  V30 19 2 18 20
M  V30 20 1 2 21
M  V30 21 2 21 22
M  V30 22 1 22 23
M  V30 23 2 23 24
M  V30 24 1 24 25
M  V30 25 2 25 26
M  V30 26 1 26 27
M  V30 27 2 17 4
M  V30 28 1 26 21
M  V30 29 1 15 7
M  V30 30 1 15 10
M  V30 31 1 1 28
M  V30 32 1 1 29
M  V30 33 1 1 30
M  V30 34 1 2 31 CFG=1
M  V30 35 1 5 32
M  V30 36 1 8 33
M  V30 37 1 11 34
M  V30 38 1 12 35
M  V30 39 1 13 36
M  V30 40 1 14 37
M  V30 41 1 19 38
M  V30 42 1 19 39
M  V30 43 1 22 40
M  V30 44 1 23 41
M  V30 45 1 24 42
M  V30 46 1 25 43
M  V30 END BOND
M  V30 END CTAB
M  END
>  <Dataset>  (80) 
ChEMBL_Kinases

>  <Ligand_Instance>  (80) 
nan

>  <PDB_ID>  (80) 
nan

>  <Standardized_SMILES>  (80) 
C[C@@H](Oc1cc(-c2cnc3ccccn23)sc1C(N)=O)c1ccccc1Cl

>  <Name>  (80) 
nan

>  <Pocket>  (80) 
nan

>  <ATP_Site>  (80) 
nan

>  <Peripheral>  (80) 
nan

>  <Num_H_Atoms_ProtBoundConf>  (80) 
nan

>  <Num_Resolved_Atoms>  (80) 
nan

>  <Num_Not_Resolved_Atoms>  (80) 
nan

$$$$
CHEMBL560585
     RDKit          3D

  0  0  0  0  0  0  0  0  0  0999 V3000
M  V30 BEGIN CTAB
M  V30 COUNTS 49 53 0 0 0
M  V30 BEGIN ATOM
M  V30 1 C -1.547114 -1.423888 -3.208186 0
M  V30 2 N -1.669855 -1.964581 -1.869639 0
M  V30 3 C -1.732101 -1.247190 -0.720067 0
M  V30 4 C -1.851890 -2.117066 0.372770 0
M  V30 5 C -1.934858 -1.635703 1.746761 0
M  V30 6 C -1.164931 -0.674191 2.266041 0
M  V30 7 C -0.088891 0.147180 1.724112 0
M  V30 8 N 0.973447 -0.280204 0.980664 0
M  V30 9 N 1.753430 0.714286 0.643038 0
M  V30 10 C 2.975819 0.715458 -0.127301 0
M  V30 11 C 4.213794 0.515290 0.718838 0
M  V30 12 C 4.389459 1.587281 1.772480 0
M  V30 13 O 5.561763 1.368208 2.535796 0
M  V30 14 C 1.243561 1.859044 1.148120 0
M  V30 15 N 1.632895 3.158107 1.097738 0
M  V30 16 C 0.933717 4.150392 1.689996 0
M  V30 17 C -0.227145 3.850974 2.379349 0
M  V30 18 C -0.604050 2.524148 2.417551 0
M  V30 19 C 0.087934 1.495398 1.824799 0
M  V30 20 C -1.557628 -0.489975 3.675624 0
M  V30 21 O -1.192749 0.254638 4.648878 0
M  V30 22 N -2.630836 -1.401774 4.003915 0
M  V30 23 C -2.843310 -2.108930 2.763287 0
M  V30 24 O -3.747318 -3.013388 2.696733 0
M  V30 25 C -1.853808 -3.364435 -0.215324 0
M  V30 26 C -1.945254 -4.582071 0.417078 0
M  V30 27 C -1.929571 -5.765121 -0.302481 0
M  V30 28 C -1.819605 -5.725782 -1.687163 0
M  V30 29 C -1.729502 -4.463853 -2.281263 0
M  V30 30 C -1.743028 -3.274217 -1.585199 0
M  V30 31 H -1.413177 -2.233069 -3.950787 0
M  V30 32 H -0.798550 -0.627024 -3.247450 0
M  V30 33 H -2.528963 -0.935842 -3.473568 0
M  V30 34 H -1.690890 -0.171743 -0.708552 0
M  V30 35 H 3.041305 1.603836 -0.763064 0
M  V30 36 H 2.947214 -0.177973 -0.813592 0
M  V30 37 H 4.213346 -0.444171 1.237025 0
M  V30 38 H 5.074492 0.499282 0.012244 0
M  V30 39 H 4.523195 2.557453 1.266759 0
M  V30 40 H 3.508673 1.599751 2.449175 0
M  V30 41 H 5.329448 1.357404 3.508587 0
M  V30 42 H 1.348536 5.151406 1.580097 0
M  V30 43 H -0.771633 4.657212 2.844346 0
M  V30 44 H -1.507227 2.299492 2.941884 0
M  V30 45 H -3.167830 -1.561299 4.902760 0
M  V30 46 H -2.026126 -4.698204 1.486887 0
M  V30 47 H -1.996947 -6.774847 0.121470 0
M  V30 48 H -1.799747 -6.609164 -2.324329 0
M  V30 49 H -1.644594 -4.407987 -3.351237 0
M  V30 END ATOM
M  V30 BEGIN BOND
M  V30 1 1 1 2
M  V30 2 1 2 3
M  V30 3 2 3 4
M  V30 4 1 4 5
M  V30 5 2 5 6
M  V30 6 1 6 7
M  V30 7 2 7 8
M  V30 8 1 8 9
M  V30 9 1 9 10
M  V30 10 1 10 11
M  V30 11 1 11 12
M  V30 12 1 12 13
M  V30 13 1 9 14
M  V30 14 2 14 15
M  V30 15 1 15 16
M  V30 16 2 16 17
M  V30 17 1 17 18
M  V30 18 2 18 19
M  V30 19 1 6 20
M  V30 20 2 20 21
M  V30 21 1 20 22
M  V30 22 1 22 23
M  V30 23 2 23 24
M  V30 24 1 4 25
M  V30 25 2 25 26
M  V30 26 1 26 27
M  V30 27 2 27 28
M  V30 28 1 28 29
M  V30 29 2 29 30
M  V30 30 1 30 2
M  V30 31 1 23 5
M  V30 32 1 30 25
M  V30 33 1 19 7
M  V30 34 1 19 14
M  V30 35 1 1 31
M  V30 36 1 1 32
M  V30 37 1 1 33
M  V30 38 1 3 34
M  V30 39 1 10 35
M  V30 40 1 10 36
M  V30 41 1 11 37
M  V30 42 1 11 38
M  V30 43 1 12 39
M  V30 44 1 12 40
M  V30 45 1 13 41
M  V30 46 1 16 42
M  V30 47 1 17 43
M  V30 48 1 18 44
M  V30 49 1 22 45
M  V30 50 1 26 46
M  V30 51 1 27 47
M  V30 52 1 28 48
M  V30 53 1 29 49
M  V30 END BOND
M  V30 END CTAB
M  END
>  <Dataset>  (81) 
ChEMBL_Kinases

>  <Ligand_Instance>  (81) 
nan

>  <PDB_ID>  (81) 
nan

>  <Standardized_SMILES>  (81) 
Cn1cc(C2=C(c3nn(CCCO)c4ncccc34)C(=O)NC2=O)c2ccccc21

>  <Name>  (81) 
nan

>  <Pocket>  (81) 
nan

>  <ATP_Site>  (81) 
nan

>  <Peripheral>  (81) 
nan

>  <Num_H_Atoms_ProtBoundConf>  (81) 
nan

>  <Num_Resolved_Atoms>  (81) 
nan

>  <Num_Not_Resolved_Atoms>  (81) 
nan

$$$$
CHEMBL571785
     RDKit          3D

  0  0  0  0  0  0  0  0  0  0999 V3000
M  V30 BEGIN CTAB
M  V30 COUNTS 56 60 0 0 0
M  V30 BEGIN ATOM
M  V30 1 C 4.755660 -1.163927 -0.543733 0
M  V30 2 C 3.789766 -1.969208 0.228423 0
M  V30 3 C 2.958410 -1.440410 1.209910 0
M  V30 4 N 2.952613 -0.061106 1.535412 0
M  V30 5 C 2.865675 1.230635 1.025464 0
M  V30 6 C 4.126084 1.835516 1.112757 0
M  V30 7 C 5.302094 1.225928 1.729251 0
M  V30 8 N 6.237282 0.718220 2.227947 0
M  V30 9 C 4.440578 3.119475 0.650414 0
M  V30 10 N 3.415292 3.780219 0.087792 0
M  V30 11 C 2.191675 3.242279 -0.015671 0
M  V30 12 C 1.890022 1.991527 0.436780 0
M  V30 13 C 0.562369 1.425193 0.381931 0
M  V30 14 C -0.148069 0.362698 0.859281 0
M  V30 15 C -1.457962 0.363084 0.436810 0
M  V30 16 C -2.557825 -0.444038 0.618222 0
M  V30 17 C -3.706872 -0.032984 -0.024587 0
M  V30 18 C -4.927232 -0.903055 0.161640 0
M  V30 19 N -5.696161 -0.509856 1.286542 0
M  V30 20 C -6.861911 -1.256133 1.590626 0
M  V30 21 C -7.995430 -1.146762 0.631628 0
M  V30 22 O -7.704997 -1.560130 -0.660632 0
M  V30 23 C -3.787478 1.101902 -0.803810 0
M  V30 24 C -2.665345 1.889699 -0.965298 0
M  V30 25 C -1.501306 1.503271 -0.333907 0
M  V30 26 O -0.340410 2.051274 -0.323749 0
M  V30 27 C 2.133814 -2.385831 1.777286 0
M  V30 28 C 2.063160 -3.709242 1.481210 0
M  V30 29 C 2.907064 -4.162587 0.507866 0
M  V30 30 N 3.083857 -5.390948 -0.011238 0
M  V30 31 C 4.030773 -5.397070 -0.964744 0
M  V30 32 C 4.459751 -4.097095 -1.034670 0
M  V30 33 C 3.765970 -3.316626 -0.120494 0
M  V30 34 H 5.025227 -1.671240 -1.499552 0
M  V30 35 H 4.317377 -0.190740 -0.878436 0
M  V30 36 H 5.677432 -1.054194 0.026876 0
M  V30 37 H 3.058327 -0.059301 2.594476 0
M  V30 38 H 5.382056 3.607363 0.699338 0
M  V30 39 H 1.432736 3.842070 -0.478829 0
M  V30 40 H 0.313159 -0.344739 1.497579 0
M  V30 41 H -2.421190 -1.300179 1.230292 0
M  V30 42 H -5.501161 -0.923282 -0.786723 0
M  V30 43 H -4.596112 -1.963795 0.334987 0
M  V30 44 H -5.791091 0.516134 1.424396 0
M  V30 45 H -7.207084 -0.917578 2.607106 0
M  V30 46 H -6.564477 -2.333662 1.648998 0
M  V30 47 H -8.847947 -1.782537 0.993116 0
M  V30 48 H -8.404910 -0.109900 0.555697 0
M  V30 49 H -7.490243 -2.526936 -0.700875 0
M  V30 50 H -4.716634 1.387405 -1.292087 0
M  V30 51 H -2.650638 2.805705 -1.569067 0
M  V30 52 H 1.443642 -2.080127 2.573701 0
M  V30 53 H 1.397013 -4.399583 1.959423 0
M  V30 54 H 2.556662 -6.230938 0.285128 0
M  V30 55 H 4.404564 -6.217336 -1.568603 0
M  V30 56 H 5.225887 -3.752385 -1.708753 0
M  V30 END ATOM
M  V30 BEGIN BOND
M  V30 1 1 1 2
M  V30 2 2 2 3
M  V30 3 1 3 4
M  V30 4 1 4 5
M  V30 5 2 5 6
M  V30 6 1 6 7
M  V30 7 3 7 8
M  V30 8 1 6 9
M  V30 9 2 9 10
M  V30 10 1 10 11
M  V30 11 2 11 12
M  V30 12 1 12 13
M  V30 13 2 13 14
M  V30 14 1 14 15
M  V30 15 2 15 16
M  V30 16 1 16 17
M  V30 17 1 17 18
M  V30 18 1 18 19
M  V30 19 1 19 20
M  V30 20 1 20 21
M  V30 21 1 21 22
M  V30 22 2 17 23
M  V30 23 1 23 24
M  V30 24 2 24 25
M  V30 25 1 25 26
M  V30 26 1 3 27
M  V30 27 2 27 28
M  V30 28 1 28 29
M  V30 29 1 29 30
M  V30 30 1 30 31
M  V30 31 2 31 32
M  V30 32 1 32 33
M  V30 33 1 33 2
M  V30 34 1 12 5
M  V30 35 1 26 13
M  V30 36 2 33 29
M  V30 37 1 25 15
M  V30 38 1 1 34
M  V30 39 1 1 35
M  V30 40 1 1 36
M  V30 41 1 4 37
M  V30 42 1 9 38
M  V30 43 1 11 39
M  V30 44 1 14 40
M  V30 45 1 16 41
M  V30 46 1 18 42
M  V30 47 1 18 43
M  V30 48 1 19 44
M  V30 49 1 20 45
M  V30 50 1 20 46
M  V30 51 1 21 47
M  V30 52 1 21 48
M  V30 53 1 22 49
M  V30 54 1 23 50
M  V30 55 1 24 51
M  V30 56 1 27 52
M  V30 57 1 28 53
M  V30 58 1 30 54
M  V30 59 1 31 55
M  V30 60 1 32 56
M  V30 END BOND
M  V30 END CTAB
M  END
>  <Dataset>  (82) 
ChEMBL_Kinases

>  <Ligand_Instance>  (82) 
nan

>  <PDB_ID>  (82) 
nan

>  <Standardized_SMILES>  (82) 
Cc1c(Nc2c(C#N)cncc2-c2cc3cc(CNCCO)ccc3o2)ccc2[nH]ccc12

>  <Name>  (82) 
nan

>  <Pocket>  (82) 
nan

>  <ATP_Site>  (82) 
nan

>  <Peripheral>  (82) 
nan

>  <Num_H_Atoms_ProtBoundConf>  (82) 
nan

>  <Num_Resolved_Atoms>  (82) 
nan

>  <Num_Not_Resolved_Atoms>  (82) 
nan

$$$$
CHEMBL571784
     RDKit          3D

  0  0  0  0  0  0  0  0  0  0999 V3000
M  V30 BEGIN CTAB
M  V30 COUNTS 55 59 0 0 0
M  V30 BEGIN ATOM
M  V30 1 C -0.663433 -1.274582 4.130945 0
M  V30 2 C 0.378423 -2.181968 3.569327 0
M  V30 3 C 1.469632 -1.553862 2.957073 0
M  V30 4 N 1.560761 -0.141176 2.885128 0
M  V30 5 C 2.731575 0.268400 2.232148 0
M  V30 6 C 3.848161 0.351795 3.037808 0
M  V30 7 C 3.810579 0.048025 4.438815 0
M  V30 8 N 3.777842 -0.183888 5.585542 0
M  V30 9 C 5.054995 0.739737 2.495382 0
M  V30 10 N 5.117818 1.029938 1.185723 0
M  V30 11 C 4.008998 0.936356 0.438189 0
M  V30 12 C 2.763572 0.559346 0.888880 0
M  V30 13 C 1.599467 0.495509 0.024754 0
M  V30 14 C 0.294354 0.207160 0.231769 0
M  V30 15 C -0.414563 0.292121 -0.960801 0
M  V30 16 C -1.725070 0.111803 -1.343386 0
M  V30 17 C -2.098769 0.282898 -2.653570 0
M  V30 18 C -3.508054 0.091576 -3.078791 0
M  V30 19 N -4.288506 1.306682 -3.001335 0
M  V30 20 C -3.692226 2.313060 -3.867230 0
M  V30 21 C -5.587171 0.968152 -3.601634 0
M  V30 22 C -1.111076 0.639689 -3.557567 0
M  V30 23 C 0.217765 0.830128 -3.210648 0
M  V30 24 C 0.562879 0.649465 -1.878384 0
M  V30 25 O 1.689153 0.750523 -1.258596 0
M  V30 26 C 2.414889 -2.418050 2.448209 0
M  V30 27 C 2.286429 -3.808928 2.540393 0
M  V30 28 C 1.186751 -4.369384 3.156292 0
M  V30 29 N 0.805184 -5.631603 3.386282 0
M  V30 30 C -0.378550 -5.599636 4.039547 0
M  V30 31 C -0.792970 -4.299974 4.248592 0
M  V30 32 C 0.214984 -3.547685 3.680440 0
M  V30 33 H -1.510619 -1.857745 4.492648 0
M  V30 34 H -1.019982 -0.524676 3.400528 0
M  V30 35 H -0.248765 -0.720784 5.014495 0
M  V30 36 H 0.790785 0.419535 3.304382 0
M  V30 37 H 5.948673 0.809705 3.125060 0
M  V30 38 H 4.154814 1.192900 -0.622596 0
M  V30 39 H -0.143792 -0.044982 1.159846 0
M  V30 40 H -2.412717 -0.161323 -0.580550 0
M  V30 41 H -3.972161 -0.698498 -2.469534 0
M  V30 42 H -3.483183 -0.223213 -4.137848 0
M  V30 43 H -4.384607 3.200401 -3.800650 0
M  V30 44 H -2.676005 2.547376 -3.518771 0
M  V30 45 H -3.634299 1.972072 -4.936798 0
M  V30 46 H -5.523724 0.953863 -4.718872 0
M  V30 47 H -5.923646 -0.004854 -3.194212 0
M  V30 48 H -6.275303 1.777702 -3.325655 0
M  V30 49 H -1.382256 0.777114 -4.579957 0
M  V30 50 H 0.970486 1.109004 -3.937234 0
M  V30 51 H 3.281731 -2.021455 1.963406 0
M  V30 52 H 3.079469 -4.413439 2.111641 0
M  V30 53 H 1.375596 -6.453137 3.083783 0
M  V30 54 H -0.918977 -6.493562 4.351639 0
M  V30 55 H -1.680256 -3.944566 4.733203 0
M  V30 END ATOM
M  V30 BEGIN BOND
M  V30 1 1 1 2
M  V30 2 2 2 3
M  V30 3 1 3 4
M  V30 4 1 4 5
M  V30 5 2 5 6
M  V30 6 1 6 7
M  V30 7 3 7 8
M  V30 8 1 6 9
M  V30 9 2 9 10
M  V30 10 1 10 11
M  V30 11 2 11 12
M  V30 12 1 12 13
M  V30 13 2 13 14
M  V30 14 1 14 15
M  V30 15 2 15 16
M  V30 16 1 16 17
M  V30 17 1 17 18
M  V30 18 1 18 19
M  V30 19 1 19 20
M  V30 20 1 19 21
M  V30 21 2 17 22
M  V30 22 1 22 23
M  V30 23 2 23 24
M  V30 24 1 24 25
M  V30 25 1 3 26
M  V30 26 2 26 27
M  V30 27 1 27 28
M  V30 28 1 28 29
M  V30 29 1 29 30
M  V30 30 2 30 31
M  V30 31 1 31 32
M  V30 32 1 32 2
M  V30 33 1 12 5
M  V30 34 1 25 13
M  V30 35 2 32 28
M  V30 36 1 24 15
M  V30 37 1 1 33
M  V30 38 1 1 34
M  V30 39 1 1 35
M  V30 40 1 4 36
M  V30 41 1 9 37
M  V30 42 1 11 38
M  V30 43 1 14 39
M  V30 44 1 16 40
M  V30 45 1 18 41
M  V30 46 1 18 42
M  V30 47 1 20 43
M  V30 48 1 20 44
M  V30 49 1 20 45
M  V30 50 1 21 46
M  V30 51 1 21 47
M  V30 52 1 21 48
M  V30 53 1 22 49
M  V30 54 1 23 50
M  V30 55 1 26 51
M  V30 56 1 27 52
M  V30 57 1 29 53
M  V30 58 1 30 54
M  V30 59 1 31 55
M  V30 END BOND
M  V30 END CTAB
M  END
>  <Dataset>  (83) 
ChEMBL_Kinases

>  <Ligand_Instance>  (83) 
nan

>  <PDB_ID>  (83) 
nan

>  <Standardized_SMILES>  (83) 
Cc1c(Nc2c(C#N)cncc2-c2cc3cc(CN(C)C)ccc3o2)ccc2[nH]ccc12

>  <Name>  (83) 
nan

>  <Pocket>  (83) 
nan

>  <ATP_Site>  (83) 
nan

>  <Peripheral>  (83) 
nan

>  <Num_H_Atoms_ProtBoundConf>  (83) 
nan

>  <Num_Resolved_Atoms>  (83) 
nan

>  <Num_Not_Resolved_Atoms>  (83) 
nan

$$$$
CHEMBL3727773
     RDKit          3D

  0  0  0  0  0  0  0  0  0  0999 V3000
M  V30 BEGIN CTAB
M  V30 COUNTS 63 66 0 0 0
M  V30 BEGIN ATOM
M  V30 1 C 4.417309 1.495689 -2.011013 0
M  V30 2 C 4.802235 2.837718 -1.472712 0
M  V30 3 C 5.519178 2.694954 -0.137298 0
M  V30 4 C 3.618768 3.773820 -1.349195 0 CFG=2
M  V30 5 C 3.013565 3.967640 -2.699963 0
M  V30 6 O 4.124796 4.990376 -0.836064 0
M  V30 7 C 2.594800 3.230023 -0.457432 0
M  V30 8 C 1.740063 2.785625 0.308458 0
M  V30 9 C 0.731301 2.248648 1.188013 0
M  V30 10 C 0.726380 2.770152 2.486834 0
M  V30 11 S -0.701941 1.841008 3.313612 0
M  V30 12 C -1.076974 0.920396 1.859440 0
M  V30 13 C -2.064308 -0.034421 1.659728 0
M  V30 14 N -2.939459 -0.334560 2.726935 0
M  V30 15 C -4.013282 -1.251458 2.838183 0
M  V30 16 C -3.670021 -2.694499 3.068496 0 CFG=1
M  V30 17 N -4.922994 -3.409967 3.142791 0
M  V30 18 C -2.716525 -3.233393 2.082282 0
M  V30 19 C -2.394019 -4.693861 2.340642 0
M  V30 20 C -1.317311 -5.006225 3.175527 0
M  V30 21 C -0.914357 -6.278436 3.495066 0
M  V30 22 C -1.648477 -7.306861 2.933439 0
M  V30 23 C -2.718738 -7.043205 2.103832 0
M  V30 24 C -3.110637 -5.751262 1.792728 0
M  V30 25 N -2.173098 -0.618523 0.455768 0
M  V30 26 C -1.302224 -0.230482 -0.489035 0
M  V30 27 C -1.348460 -0.821415 -1.846349 0
M  V30 28 C -2.314965 -1.773521 -2.084290 0
M  V30 29 C -2.412011 -2.363405 -3.327846 0
M  V30 30 N -1.559409 -2.005626 -4.307606 0
M  V30 31 C -0.605087 -1.078010 -4.103467 0
M  V30 32 C -0.483668 -0.471087 -2.871087 0
M  V30 33 N -0.346964 0.689793 -0.304626 0
M  V30 34 C -0.202328 1.299601 0.884503 0
M  V30 35 H 5.143564 1.162614 -2.778054 0
M  V30 36 H 3.395693 1.481991 -2.440928 0
M  V30 37 H 4.524834 0.751177 -1.181460 0
M  V30 38 H 5.531739 3.298471 -2.169588 0
M  V30 39 H 6.345930 3.441076 -0.027542 0
M  V30 40 H 4.787285 2.896396 0.669726 0
M  V30 41 H 5.946419 1.683725 0.018631 0
M  V30 42 H 3.312290 4.992854 -3.057715 0
M  V30 43 H 1.906993 3.990367 -2.705718 0
M  V30 44 H 3.344681 3.245685 -3.464900 0
M  V30 45 H 4.755700 4.779506 -0.118225 0
M  V30 46 H 1.328669 3.506355 2.989120 0
M  V30 47 H -2.811859 0.192363 3.643307 0
M  V30 48 H -4.744903 -0.911286 3.619489 0
M  V30 49 H -4.576119 -1.217262 1.839727 0
M  V30 50 H -3.242105 -2.724929 4.120069 0
M  V30 51 H -5.740121 -2.910865 2.776699 0
M  V30 52 H -5.052541 -3.994349 3.975038 0
M  V30 53 H -3.093390 -3.129093 1.050323 0
M  V30 54 H -1.761995 -2.680439 2.186199 0
M  V30 55 H -0.759819 -4.158896 3.601606 0
M  V30 56 H -0.065331 -6.411310 4.152708 0
M  V30 57 H -1.367292 -8.324019 3.157202 0
M  V30 58 H -3.284865 -7.876721 1.671000 0
M  V30 59 H -3.942851 -5.500379 1.147346 0
M  V30 60 H -3.007111 -2.061418 -1.282544 0
M  V30 61 H -3.191961 -3.101902 -3.446250 0
M  V30 62 H 0.089145 -0.775841 -4.874524 0
M  V30 63 H 0.242717 0.278332 -2.608744 0
M  V30 END ATOM
M  V30 BEGIN BOND
M  V30 1 1 1 2
M  V30 2 1 2 3
M  V30 3 1 2 4
M  V30 4 1 4 5
M  V30 5 1 4 6
M  V30 6 1 4 7 CFG=1
M  V30 7 3 7 8
M  V30 8 1 8 9
M  V30 9 2 9 10
M  V30 10 1 10 11
M  V30 11 1 11 12
M  V30 12 2 12 13
M  V30 13 1 13 14
M  V30 14 1 14 15
M  V30 15 1 15 16
M  V30 16 1 16 17
M  V30 17 1 16 18
M  V30 18 1 18 19
M  V30 19 2 19 20
M  V30 20 1 20 21
M  V30 21 2 21 22
M  V30 22 1 22 23
M  V30 23 2 23 24
M  V30 24 1 13 25
M  V30 25 2 25 26
M  V30 26 1 26 27
M  V30 27 2 27 28
M  V30 28 1 28 29
M  V30 29 2 29 30
M  V30 30 1 30 31
M  V30 31 2 31 32
M  V30 32 1 26 33
M  V30 33 2 33 34
M  V30 34 1 34 9
M  V30 35 1 34 12
M  V30 36 1 24 19
M  V30 37 1 32 27
M  V30 38 1 1 35
M  V30 39 1 1 36
M  V30 40 1 1 37
M  V30 41 1 2 38
M  V30 42 1 3 39
M  V30 43 1 3 40
M  V30 44 1 3 41
M  V30 45 1 5 42
M  V30 46 1 5 43
M  V30 47 1 5 44
M  V30 48 1 6 45
M  V30 49 1 10 46
M  V30 50 1 14 47
M  V30 51 1 15 48
M  V30 52 1 15 49
M  V30 53 1 16 50 CFG=1
M  V30 54 1 17 51
M  V30 55 1 17 52
M  V30 56 1 18 53
M  V30 57 1 18 54
M  V30 58 1 20 55
M  V30 59 1 21 56
M  V30 60 1 22 57
M  V30 61 1 23 58
M  V30 62 1 24 59
M  V30 63 1 28 60
M  V30 64 1 29 61
M  V30 65 1 31 62
M  V30 66 1 32 63
M  V30 END BOND
M  V30 END CTAB
M  END
>  <Dataset>  (84) 
ChEMBL_Kinases

>  <Ligand_Instance>  (84) 
nan

>  <PDB_ID>  (84) 
nan

>  <Standardized_SMILES>  (84) 
CC(C)[C@](C)(O)C#Cc1csc2c(NC[C@@H](N)Cc3ccccc3)nc(-c3ccncc3)nc12

>  <Name>  (84) 
nan

>  <Pocket>  (84) 
nan

>  <ATP_Site>  (84) 
nan

>  <Peripheral>  (84) 
nan

>  <Num_H_Atoms_ProtBoundConf>  (84) 
nan

>  <Num_Resolved_Atoms>  (84) 
nan

>  <Num_Not_Resolved_Atoms>  (84) 
nan

$$$$
CHEMBL560056
     RDKit          3D

  0  0  0  0  0  0  0  0  0  0999 V3000
M  V30 BEGIN CTAB
M  V30 COUNTS 41 43 0 0 0
M  V30 BEGIN ATOM
M  V30 1 C -0.020973 -2.835579 4.141618 0
M  V30 2 C 1.290411 -3.077530 3.392580 0
M  V30 3 O 1.342371 -2.137072 2.364576 0
M  V30 4 C 2.385175 -2.032750 1.457526 0
M  V30 5 O 2.982211 -2.989667 2.006757 0
M  V30 6 C 2.610878 -1.131665 0.337578 0
M  V30 7 C 3.791963 -1.363900 -0.334857 0
M  V30 8 N 4.089310 -0.581520 -1.394483 0
M  V30 9 C 3.203943 0.389063 -1.733719 0
M  V30 10 N 3.260721 1.290217 -2.732128 0
M  V30 11 N 2.184143 2.084704 -2.736256 0
M  V30 12 C 1.417352 1.669001 -1.699727 0
M  V30 13 C 2.025215 0.612596 -1.053791 0
M  V30 14 C 1.682433 -0.160839 0.031807 0
M  V30 15 N 0.490506 0.050180 0.744020 0
M  V30 16 C 0.230549 0.906693 1.875024 0
M  V30 17 C -1.166480 1.476117 1.697189 0
M  V30 18 O -1.584270 1.533801 0.390644 0
M  V30 19 C -1.669630 0.305608 -0.231750 0
M  V30 20 C -3.054525 -0.293125 -0.207310 0
M  V30 21 N -3.563220 -0.513118 1.121651 0
M  V30 22 C -0.671510 -0.695179 0.294448 0
M  V30 23 H -0.824837 -3.327944 3.577333 0
M  V30 24 H 0.056162 -3.122408 5.199024 0
M  V30 25 H -0.254423 -1.736419 4.148735 0
M  V30 26 H 2.151221 -3.036381 4.087861 0
M  V30 27 H 1.228441 -4.122243 3.004368 0
M  V30 28 H 4.495655 -2.133710 -0.066654 0
M  V30 29 H 4.047623 1.358771 -3.416875 0
M  V30 30 H 0.466456 2.075756 -1.390635 0
M  V30 31 H 0.994565 1.703064 1.990886 0
M  V30 32 H 0.218534 0.319849 2.806285 0
M  V30 33 H -1.133515 2.512861 2.091376 0
M  V30 34 H -1.902169 0.953435 2.363673 0
M  V30 35 H -1.425448 0.484932 -1.301652 0
M  V30 36 H -3.724419 0.471376 -0.697088 0
M  V30 37 H -3.035710 -1.201544 -0.837126 0
M  V30 38 H -4.539126 -0.878460 0.998176 0
M  V30 39 H -3.028723 -1.273680 1.603831 0
M  V30 40 H -0.462046 -1.399197 -0.525358 0
M  V30 41 H -1.031980 -1.250145 1.187525 0
M  V30 END ATOM
M  V30 BEGIN BOND
M  V30 1 1 1 2
M  V30 2 1 2 3
M  V30 3 1 3 4
M  V30 4 2 4 5
M  V30 5 1 4 6
M  V30 6 2 6 7
M  V30 7 1 7 8
M  V30 8 2 8 9
M  V30 9 1 9 10
M  V30 10 1 10 11
M  V30 11 2 11 12
M  V30 12 1 12 13
M  V30 13 2 13 14
M  V30 14 1 14 15
M  V30 15 1 15 16
M  V30 16 1 16 17
M  V30 17 1 17 18
M  V30 18 1 18 19
M  V30 19 1 19 20
M  V30 20 1 20 21
M  V30 21 1 19 22
M  V30 22 1 14 6
M  V30 23 1 22 15
M  V30 24 1 13 9
M  V30 25 1 1 23
M  V30 26 1 1 24
M  V30 27 1 1 25
M  V30 28 1 2 26
M  V30 29 1 2 27
M  V30 30 1 7 28
M  V30 31 1 10 29
M  V30 32 1 12 30
M  V30 33 1 16 31
M  V30 34 1 16 32
M  V30 35 1 17 33
M  V30 36 1 17 34
M  V30 37 1 19 35
M  V30 38 1 20 36
M  V30 39 1 20 37
M  V30 40 1 21 38
M  V30 41 1 21 39
M  V30 42 1 22 40
M  V30 43 1 22 41
M  V30 END BOND
M  V30 END CTAB
M  END
>  <Dataset>  (85) 
ChEMBL_Kinases

>  <Ligand_Instance>  (85) 
nan

>  <PDB_ID>  (85) 
nan

>  <Standardized_SMILES>  (85) 
CCOC(=O)c1cnc2[nH]ncc2c1N1CCOC(CN)C1

>  <Name>  (85) 
nan

>  <Pocket>  (85) 
nan

>  <ATP_Site>  (85) 
nan

>  <Peripheral>  (85) 
nan

>  <Num_H_Atoms_ProtBoundConf>  (85) 
nan

>  <Num_Resolved_Atoms>  (85) 
nan

>  <Num_Not_Resolved_Atoms>  (85) 
nan

$$$$
CHEMBL560075
     RDKit          3D

  0  0  0  0  0  0  0  0  0  0999 V3000
M  V30 BEGIN CTAB
M  V30 COUNTS 42 46 0 0 0
M  V30 BEGIN ATOM
M  V30 1 C -0.720359 -6.330061 -0.756187 0
M  V30 2 C 0.300058 -5.293189 -0.355708 0 CFG=2
M  V30 3 C -0.397515 -3.999487 -0.105857 0
M  V30 4 N 0.528084 -2.974152 0.416264 0
M  V30 5 C 1.455374 -2.177591 -0.322475 0
M  V30 6 C 2.264768 -2.907011 -1.234652 0
M  V30 7 S 3.401336 -1.660738 -1.912960 0
M  V30 8 C 2.722253 -0.319423 -0.959288 0
M  V30 9 C 3.170562 0.984097 -1.017482 0
M  V30 10 C 2.523189 1.898778 -0.216187 0
M  V30 11 C 1.491648 1.378622 0.549687 0
M  V30 12 N 0.883406 2.365156 1.282828 0
M  V30 13 C -0.169900 2.121121 2.081959 0
M  V30 14 C -0.752099 3.231308 2.825351 0
M  V30 15 C -0.166277 4.467681 2.647507 0
M  V30 16 C -0.670598 5.581428 3.328333 0
M  V30 17 C -1.763717 5.404028 4.176160 0
M  V30 18 N -2.327578 4.194325 4.342571 0
M  V30 19 C -1.828594 3.122277 3.676195 0
M  V30 20 C -0.617689 0.815352 2.130587 0
M  V30 21 C 0.017658 -0.143595 1.383104 0
M  V30 22 C 1.091472 0.067880 0.564231 0
M  V30 23 C 1.723810 -0.857017 -0.218398 0
M  V30 24 C 2.345900 -4.298945 -1.702788 0
M  V30 25 O 3.365892 -4.570674 -2.378465 0
M  V30 26 N 1.308214 -5.265275 -1.391266 0
M  V30 27 H -0.567426 -6.685370 -1.812430 0
M  V30 28 H -1.759975 -5.923778 -0.715561 0
M  V30 29 H -0.601039 -7.248511 -0.143784 0
M  V30 30 H 0.750022 -5.610343 0.619386 0
M  V30 31 H -1.108618 -4.204905 0.744406 0
M  V30 32 H -1.023885 -3.640046 -0.918826 0
M  V30 33 H 0.626845 -2.722097 1.464508 0
M  V30 34 H 3.974762 1.270916 -1.647849 0
M  V30 35 H 2.838297 2.926310 -0.224760 0
M  V30 36 H 0.682772 4.643580 1.998206 0
M  V30 37 H -0.200295 6.542727 3.177968 0
M  V30 38 H -2.079904 6.335372 4.659477 0
M  V30 39 H -2.292815 2.165844 3.822786 0
M  V30 40 H -1.459510 0.649480 2.774426 0
M  V30 41 H -0.466348 -1.067287 1.496174 0
M  V30 42 H 1.372714 -6.059328 -2.095479 0
M  V30 END ATOM
M  V30 BEGIN BOND
M  V30 1 1 1 2
M  V30 2 1 2 3
M  V30 3 1 3 4
M  V30 4 1 4 5
M  V30 5 2 5 6
M  V30 6 1 6 7
M  V30 7 1 7 8
M  V30 8 2 8 9
M  V30 9 1 9 10
M  V30 10 2 10 11
M  V30 11 1 11 12
M  V30 12 2 12 13
M  V30 13 1 13 14
M  V30 14 2 14 15
M  V30 15 1 15 16
M  V30 16 2 16 17
M  V30 17 1 17 18
M  V30 18 2 18 19
M  V30 19 1 13 20
M  V30 20 2 20 21
M  V30 21 1 21 22
M  V30 22 2 22 23
M  V30 23 1 6 24
M  V30 24 2 24 25
M  V30 25 1 24 26
M  V30 26 1 26 2
M  V30 27 1 23 5
M  V30 28 1 23 8
M  V30 29 1 22 11
M  V30 30 1 19 14
M  V30 31 1 1 27
M  V30 32 1 1 28
M  V30 33 1 1 29
M  V30 34 1 2 30 CFG=1
M  V30 35 1 3 31
M  V30 36 1 3 32
M  V30 37 1 4 33
M  V30 38 1 9 34
M  V30 39 1 10 35
M  V30 40 1 15 36
M  V30 41 1 16 37
M  V30 42 1 17 38
M  V30 43 1 19 39
M  V30 44 1 20 40
M  V30 45 1 21 41
M  V30 46 1 26 42
M  V30 END BOND
M  V30 END CTAB
M  END
>  <Dataset>  (86) 
ChEMBL_Kinases

>  <Ligand_Instance>  (86) 
nan

>  <PDB_ID>  (86) 
nan

>  <Standardized_SMILES>  (86) 
C[C@@H]1CNc2c(sc3ccc4nc(-c5cccnc5)ccc4c23)C(=O)N1

>  <Name>  (86) 
nan

>  <Pocket>  (86) 
nan

>  <ATP_Site>  (86) 
nan

>  <Peripheral>  (86) 
nan

>  <Num_H_Atoms_ProtBoundConf>  (86) 
nan

>  <Num_Resolved_Atoms>  (86) 
nan

>  <Num_Not_Resolved_Atoms>  (86) 
nan

$$$$
CHEMBL560206
     RDKit          3D

  0  0  0  0  0  0  0  0  0  0999 V3000
M  V30 BEGIN CTAB
M  V30 COUNTS 47 50 0 0 0
M  V30 BEGIN ATOM
M  V30 1 C -1.982262 -1.555740 3.149141 0
M  V30 2 C -1.612521 -1.824483 1.684781 0 CFG=1
M  V30 3 O -0.836598 -0.803524 1.256351 0
M  V30 4 C -0.745080 0.139045 0.330089 0
M  V30 5 C 0.390733 0.877062 0.522707 0
M  V30 6 C 0.732113 1.897441 -0.271084 0
M  V30 7 C 1.669125 2.949149 -0.585430 0
M  V30 8 C 1.597627 3.850711 -1.620549 0
M  V30 9 N 2.653382 4.670062 -1.577792 0
M  V30 10 C 3.395586 4.299938 -0.527530 0
M  V30 11 C 4.581932 4.891287 -0.123433 0
M  V30 12 C 5.187020 4.351206 0.991047 0
M  V30 13 C 4.558631 3.265849 1.610151 0
M  V30 14 C 3.391482 2.766291 1.123951 0
M  V30 15 N 2.780882 3.265313 0.049047 0
M  V30 16 S -0.743689 1.810014 -1.450879 0
M  V30 17 C -1.554838 0.448846 -0.698922 0
M  V30 18 C -2.756722 0.005658 -1.268161 0
M  V30 19 N -3.713450 -0.979916 -1.064768 0
M  V30 20 O -3.363253 0.451605 -2.250751 0
M  V30 21 C -0.816444 -3.125182 1.634072 0
M  V30 22 C 0.558002 -3.095013 1.753607 0
M  V30 23 C 1.304520 -4.255755 1.711657 0
M  V30 24 C 0.684051 -5.475741 1.548287 0
M  V30 25 C -0.686317 -5.480381 1.431473 0
M  V30 26 C -1.467001 -4.329327 1.469519 0
M  V30 27 C -2.932055 -4.414921 1.336784 0
M  V30 28 O -3.501108 -4.235477 2.603463 0
M  V30 29 H -1.580093 -0.585371 3.504283 0
M  V30 30 H -3.085980 -1.494026 3.215473 0
M  V30 31 H -1.541928 -2.342347 3.806895 0
M  V30 32 H -2.543931 -1.975204 1.106424 0
M  V30 33 H 1.182447 0.836061 1.249231 0
M  V30 34 H 0.879309 4.001612 -2.414096 0
M  V30 35 H 5.022906 5.727600 -0.637916 0
M  V30 36 H 6.114160 4.783900 1.339748 0
M  V30 37 H 5.080361 2.901527 2.461407 0
M  V30 38 H 3.047710 1.952813 1.699677 0
M  V30 39 H -4.413532 -1.703370 -0.920277 0
M  V30 40 H -4.413712 -1.452027 -0.437251 0
M  V30 41 H 1.078515 -2.156982 1.883062 0
M  V30 42 H 2.391062 -4.254779 1.803964 0
M  V30 43 H 1.190849 -6.425037 1.505373 0
M  V30 44 H -1.202562 -6.433942 1.300712 0
M  V30 45 H -3.196452 -5.464783 1.017801 0
M  V30 46 H -3.356028 -3.759450 0.562001 0
M  V30 47 H -2.836764 -4.464483 3.308259 0
M  V30 END ATOM
M  V30 BEGIN BOND
M  V30 1 1 1 2
M  V30 2 1 2 3
M  V30 3 1 3 4
M  V30 4 1 4 5
M  V30 5 2 5 6
M  V30 6 1 6 7
M  V30 7 2 7 8
M  V30 8 1 8 9
M  V30 9 2 9 10
M  V30 10 1 10 11
M  V30 11 2 11 12
M  V30 12 1 12 13
M  V30 13 2 13 14
M  V30 14 1 14 15
M  V30 15 1 6 16
M  V30 16 1 16 17
M  V30 17 1 17 18
M  V30 18 1 18 19
M  V30 19 2 18 20
M  V30 20 1 2 21
M  V30 21 2 21 22
M  V30 22 1 22 23
M  V30 23 2 23 24
M  V30 24 1 24 25
M  V30 25 2 25 26
M  V30 26 1 26 27
M  V30 27 1 27 28
M  V30 28 2 17 4
M  V30 29 1 26 21
M  V30 30 1 15 7
M  V30 31 1 15 10
M  V30 32 1 1 29
M  V30 33 1 1 30
M  V30 34 1 1 31
M  V30 35 1 2 32 CFG=3
M  V30 36 1 5 33
M  V30 37 1 8 34
M  V30 38 1 11 35
M  V30 39 1 12 36
M  V30 40 1 13 37
M  V30 41 1 14 38
M  V30 42 1 19 39
M  V30 43 1 19 40
M  V30 44 1 22 41
M  V30 45 1 23 42
M  V30 46 1 24 43
M  V30 47 1 25 44
M  V30 48 1 27 45
M  V30 49 1 27 46
M  V30 50 1 28 47
M  V30 END BOND
M  V30 END CTAB
M  END
>  <Dataset>  (87) 
ChEMBL_Kinases

>  <Ligand_Instance>  (87) 
nan

>  <PDB_ID>  (87) 
nan

>  <Standardized_SMILES>  (87) 
C[C@@H](Oc1cc(-c2cnc3ccccn23)sc1C(N)=O)c1ccccc1CO

>  <Name>  (87) 
nan

>  <Pocket>  (87) 
nan

>  <ATP_Site>  (87) 
nan

>  <Peripheral>  (87) 
nan

>  <Num_H_Atoms_ProtBoundConf>  (87) 
nan

>  <Num_Resolved_Atoms>  (87) 
nan

>  <Num_Not_Resolved_Atoms>  (87) 
nan

$$$$
CHEMBL560390
     RDKit          3D

  0  0  0  0  0  0  0  0  0  0999 V3000
M  V30 BEGIN CTAB
M  V30 COUNTS 51 55 0 0 0
M  V30 BEGIN ATOM
M  V30 1 C 1.621483 -4.318598 1.737110 0
M  V30 2 N 0.536128 -3.403415 1.990107 0
M  V30 3 C 0.132377 -3.188586 3.261730 0
M  V30 4 O 0.693648 -3.778168 4.219057 0
M  V30 5 C -0.906354 -2.312419 3.503403 0
M  V30 6 C -1.570069 -1.628355 2.494370 0
M  V30 7 N -2.642665 -0.723633 2.719631 0
M  V30 8 C -2.804662 0.657999 2.432818 0
M  V30 9 C -1.773890 1.337461 1.822030 0
M  V30 10 C -1.996130 2.676795 1.570136 0
M  V30 11 C -1.019984 3.553468 0.931419 0
M  V30 12 O -1.207574 4.788709 0.692120 0
M  V30 13 N 0.252406 3.109539 0.508082 0
M  V30 14 C 1.258495 3.932290 -0.129352 0
M  V30 15 C 2.725135 3.560107 0.110795 0
M  V30 16 C 2.135235 3.285484 -1.219628 0
M  V30 17 C -3.192792 3.280853 1.919698 0
M  V30 18 C -4.191677 2.551029 2.530053 0
M  V30 19 C -4.016348 1.190251 2.807267 0
M  V30 20 Cl -5.266182 0.237920 3.581047 0
M  V30 21 C -1.145959 -1.856822 1.184582 0
M  V30 22 C -1.493248 -1.423866 -0.055180 0
M  V30 23 N -0.679811 -2.036121 -0.941211 0
M  V30 24 N 0.163397 -2.834541 -0.315287 0
M  V30 25 C 1.099287 -3.563879 -1.099928 0
M  V30 26 C 1.121375 -4.922812 -1.391717 0
M  V30 27 C 2.137478 -5.417919 -2.183407 0
M  V30 28 F 2.054101 -6.757719 -2.399588 0
M  V30 29 C 3.125617 -4.598489 -2.688357 0
M  V30 30 C 3.112194 -3.253010 -2.405185 0
M  V30 31 C 2.102328 -2.743601 -1.614818 0
M  V30 32 F 2.195871 -1.402314 -1.405198 0
M  V30 33 C -0.095634 -2.749480 1.003133 0
M  V30 34 H 1.240930 -5.332507 1.477422 0
M  V30 35 H 2.204541 -4.470782 2.691444 0
M  V30 36 H 2.362816 -3.916885 1.027815 0
M  V30 37 H -1.217314 -2.150305 4.513618 0
M  V30 38 H -3.347952 -1.337851 3.179283 0
M  V30 39 H -0.833812 0.900237 1.538721 0
M  V30 40 H 0.538973 2.114438 0.643575 0
M  V30 41 H 1.031806 5.001350 -0.309404 0
M  V30 42 H 2.862815 2.787674 0.868994 0
M  V30 43 H 3.394820 4.413410 0.193801 0
M  V30 44 H 1.786726 2.274785 -1.511599 0
M  V30 45 H 2.481098 3.886628 -2.060541 0
M  V30 46 H -3.388565 4.331091 1.731270 0
M  V30 47 H -5.142215 3.012318 2.812508 0
M  V30 48 H -2.300294 -0.711634 -0.164382 0
M  V30 49 H 0.301590 -5.458672 -0.943456 0
M  V30 50 H 3.895329 -5.078398 -3.309492 0
M  V30 51 H 3.912834 -2.639758 -2.824649 0
M  V30 END ATOM
M  V30 BEGIN BOND
M  V30 1 1 1 2
M  V30 2 1 2 3
M  V30 3 2 3 4
M  V30 4 1 3 5
M  V30 5 2 5 6
M  V30 6 1 6 7
M  V30 7 1 7 8
M  V30 8 2 8 9
M  V30 9 1 9 10
M  V30 10 1 10 11
M  V30 11 2 11 12
M  V30 12 1 11 13
M  V30 13 1 13 14
M  V30 14 1 14 15
M  V30 15 1 15 16
M  V30 16 2 10 17
M  V30 17 1 17 18
M  V30 18 2 18 19
M  V30 19 1 19 20
M  V30 20 1 6 21
M  V30 21 1 21 22
M  V30 22 2 22 23
M  V30 23 1 23 24
M  V30 24 1 24 25
M  V30 25 2 25 26
M  V30 26 1 26 27
M  V30 27 1 27 28
M  V30 28 2 27 29
M  V30 29 1 29 30
M  V30 30 2 30 31
M  V30 31 1 31 32
M  V30 32 1 24 33
M  V30 33 1 33 2
M  V30 34 1 19 8
M  V30 35 2 33 21
M  V30 36 1 16 14
M  V30 37 1 31 25
M  V30 38 1 1 34
M  V30 39 1 1 35
M  V30 40 1 1 36
M  V30 41 1 5 37
M  V30 42 1 7 38
M  V30 43 1 9 39
M  V30 44 1 13 40
M  V30 45 1 14 41
M  V30 46 1 15 42
M  V30 47 1 15 43
M  V30 48 1 16 44
M  V30 49 1 16 45
M  V30 50 1 17 46
M  V30 51 1 18 47
M  V30 52 1 22 48
M  V30 53 1 26 49
M  V30 54 1 29 50
M  V30 55 1 30 51
M  V30 END BOND
M  V30 END CTAB
M  END
>  <Dataset>  (88) 
ChEMBL_Kinases

>  <Ligand_Instance>  (88) 
nan

>  <PDB_ID>  (88) 
nan

>  <Standardized_SMILES>  (88) 
Cn1c(=O)cc(Nc2cc(C(=O)NC3CC3)ccc2Cl)c2cnn(-c3cc(F)ccc3F)c21

>  <Name>  (88) 
nan

>  <Pocket>  (88) 
nan

>  <ATP_Site>  (88) 
nan

>  <Peripheral>  (88) 
nan

>  <Num_H_Atoms_ProtBoundConf>  (88) 
nan

>  <Num_Resolved_Atoms>  (88) 
nan

>  <Num_Not_Resolved_Atoms>  (88) 
nan

$$$$
CHEMBL3727756
     RDKit          3D

  0  0  0  0  0  0  0  0  0  0999 V3000
M  V30 BEGIN CTAB
M  V30 COUNTS 47 50 0 0 0
M  V30 BEGIN ATOM
M  V30 1 C 1.942955 -2.834746 0.323883 0
M  V30 2 C 2.139429 -2.872259 -1.157531 0
M  V30 3 C 1.678446 -1.552580 -1.773100 0 CFG=2
M  V30 4 N 2.449697 -0.499982 -1.209699 0
M  V30 5 C 0.197636 -1.421950 -1.689146 0
M  V30 6 O -0.381099 -1.336632 -0.448394 0
M  V30 7 C -0.169119 -0.351647 0.483980 0
M  V30 8 N 0.638648 0.698056 0.326619 0
M  V30 9 C 0.891603 1.681232 1.171645 0
M  V30 10 C 1.783881 2.807456 0.941201 0
M  V30 11 C 2.497555 3.009323 -0.221407 0
M  V30 12 C 3.338118 4.091304 -0.416067 0
M  V30 13 N 3.477911 5.006568 0.574028 0
M  V30 14 C 2.799684 4.844984 1.721055 0
M  V30 15 C 1.962053 3.767295 1.915904 0
M  V30 16 N 0.238577 1.592963 2.338110 0
M  V30 17 C -0.600328 0.571092 2.595308 0
M  V30 18 S -1.554014 0.228203 4.011999 0
M  V30 19 C -2.289595 -1.278883 3.403323 0
M  V30 20 C -1.722183 -1.414069 2.095840 0
M  V30 21 C -0.847436 -0.430865 1.712733 0
M  V30 22 C -2.297665 -2.657422 1.525543 0
M  V30 23 C -3.810091 -2.624757 1.518151 0
M  V30 24 C -4.373537 -2.357643 2.894476 0
M  V30 25 C -3.250840 -2.292267 3.919296 0
M  V30 26 H 2.283135 -1.885032 0.778403 0
M  V30 27 H 0.893760 -3.035892 0.626026 0
M  V30 28 H 2.554839 -3.634126 0.835837 0
M  V30 29 H 3.173978 -3.076964 -1.435050 0
M  V30 30 H 1.488401 -3.675981 -1.600696 0
M  V30 31 H 1.909486 -1.672770 -2.879903 0
M  V30 32 H 3.272839 -0.823832 -0.650802 0
M  V30 33 H 2.731187 0.138534 -1.989903 0
M  V30 34 H -0.241787 -2.320827 -2.218032 0
M  V30 35 H -0.181901 -0.567826 -2.333247 0
M  V30 36 H 2.398869 2.294326 -1.017119 0
M  V30 37 H 3.884865 4.221544 -1.340159 0
M  V30 38 H 2.876732 5.546268 2.541426 0
M  V30 39 H 1.406190 3.623251 2.839096 0
M  V30 40 H -1.890656 -3.559572 2.026149 0
M  V30 41 H -1.990010 -2.725668 0.464485 0
M  V30 42 H -4.147611 -1.903464 0.753372 0
M  V30 43 H -4.158726 -3.629836 1.196279 0
M  V30 44 H -4.820064 -1.340599 2.864873 0
M  V30 45 H -5.134538 -3.122043 3.177544 0
M  V30 46 H -2.820830 -3.293104 4.056375 0
M  V30 47 H -3.638357 -1.873432 4.868889 0
M  V30 END ATOM
M  V30 BEGIN BOND
M  V30 1 1 1 2
M  V30 2 1 2 3
M  V30 3 1 3 4
M  V30 4 1 3 5
M  V30 5 1 5 6
M  V30 6 1 6 7
M  V30 7 2 7 8
M  V30 8 1 8 9
M  V30 9 1 9 10
M  V30 10 2 10 11
M  V30 11 1 11 12
M  V30 12 2 12 13
M  V30 13 1 13 14
M  V30 14 2 14 15
M  V30 15 2 9 16
M  V30 16 1 16 17
M  V30 17 1 17 18
M  V30 18 1 18 19
M  V30 19 2 19 20
M  V30 20 1 20 21
M  V30 21 1 20 22
M  V30 22 1 22 23
M  V30 23 1 23 24
M  V30 24 1 24 25
M  V30 25 1 21 7
M  V30 26 1 15 10
M  V30 27 2 21 17
M  V30 28 1 25 19
M  V30 29 1 1 26
M  V30 30 1 1 27
M  V30 31 1 1 28
M  V30 32 1 2 29
M  V30 33 1 2 30
M  V30 34 1 3 31 CFG=3
M  V30 35 1 4 32
M  V30 36 1 4 33
M  V30 37 1 5 34
M  V30 38 1 5 35
M  V30 39 1 11 36
M  V30 40 1 12 37
M  V30 41 1 14 38
M  V30 42 1 15 39
M  V30 43 1 22 40
M  V30 44 1 22 41
M  V30 45 1 23 42
M  V30 46 1 23 43
M  V30 47 1 24 44
M  V30 48 1 24 45
M  V30 49 1 25 46
M  V30 50 1 25 47
M  V30 END BOND
M  V30 END CTAB
M  END
>  <Dataset>  (89) 
ChEMBL_Kinases

>  <Ligand_Instance>  (89) 
nan

>  <PDB_ID>  (89) 
nan

>  <Standardized_SMILES>  (89) 
CC[C@H](N)COc1nc(-c2ccncc2)nc2sc3c(c12)CCCC3

>  <Name>  (89) 
nan

>  <Pocket>  (89) 
nan

>  <ATP_Site>  (89) 
nan

>  <Peripheral>  (89) 
nan

>  <Num_H_Atoms_ProtBoundConf>  (89) 
nan

>  <Num_Resolved_Atoms>  (89) 
nan

>  <Num_Not_Resolved_Atoms>  (89) 
nan

$$$$
CHEMBL560415
     RDKit          3D

  0  0  0  0  0  0  0  0  0  0999 V3000
M  V30 BEGIN CTAB
M  V30 COUNTS 42 45 0 0 0
M  V30 BEGIN ATOM
M  V30 1 C 1.416440 -5.687864 1.015744 0
M  V30 2 C 2.038330 -4.507605 1.710312 0
M  V30 3 C 1.355593 -3.311554 1.751328 0
M  V30 4 C 1.908318 -2.226722 2.394262 0
M  V30 5 N 1.255078 -0.968567 2.470414 0
M  V30 6 C 0.127552 -0.421564 1.805080 0
M  V30 7 N 0.440666 0.412815 0.786701 0
M  V30 8 C -0.481576 1.028576 0.029577 0
M  V30 9 C -0.062732 1.919428 -1.046642 0
M  V30 10 C -0.989896 2.574077 -1.848722 0
M  V30 11 C -0.439746 3.397200 -2.838990 0
M  V30 12 C 0.927338 3.531558 -2.987427 0
M  V30 13 C 1.807655 2.846924 -2.149680 0
M  V30 14 C 3.272987 3.003968 -2.334912 0
M  V30 15 N 1.273486 2.071801 -1.216772 0
M  V30 16 N -1.792894 0.788816 0.315950 0
M  V30 17 C -2.145859 -0.033071 1.318677 0
M  V30 18 C -3.463992 -0.284865 1.614994 0
M  V30 19 C -3.790781 -1.134909 2.647567 0
M  V30 20 C -2.797610 -1.752900 3.407899 0
M  V30 21 C -1.448377 -1.532514 3.150013 0
M  V30 22 C -1.212206 -0.671795 2.103993 0
M  V30 23 C 3.138195 -2.320901 2.998103 0
M  V30 24 C 3.801886 -3.530666 2.942712 0
M  V30 25 N 3.241741 -4.594658 2.303057 0
M  V30 26 H 0.543550 -5.316133 0.423533 0
M  V30 27 H 2.123876 -6.123242 0.293251 0
M  V30 28 H 1.046533 -6.424469 1.760424 0
M  V30 29 H 0.384773 -3.185866 1.290606 0
M  V30 30 H 1.557238 -0.212334 3.093717 0
M  V30 31 H -2.046733 2.448544 -1.708450 0
M  V30 32 H -1.092104 3.945325 -3.509984 0
M  V30 33 H 1.384612 4.159528 -3.742183 0
M  V30 34 H 3.680510 3.487283 -1.426349 0
M  V30 35 H 3.475318 3.618577 -3.230978 0
M  V30 36 H 3.760168 1.996000 -2.408768 0
M  V30 37 H -4.241845 0.180238 1.042175 0
M  V30 38 H -4.820085 -1.381714 2.938858 0
M  V30 39 H -3.034668 -2.430810 4.231139 0
M  V30 40 H -0.649173 -1.988149 3.712311 0
M  V30 41 H 3.630872 -1.507554 3.519868 0
M  V30 42 H 4.782456 -3.652779 3.409303 0
M  V30 END ATOM
M  V30 BEGIN BOND
M  V30 1 1 1 2
M  V30 2 2 2 3
M  V30 3 1 3 4
M  V30 4 1 4 5
M  V30 5 1 5 6
M  V30 6 2 6 7
M  V30 7 1 7 8
M  V30 8 1 8 9
M  V30 9 2 9 10
M  V30 10 1 10 11
M  V30 11 2 11 12
M  V30 12 1 12 13
M  V30 13 1 13 14
M  V30 14 2 13 15
M  V30 15 2 8 16
M  V30 16 1 16 17
M  V30 17 2 17 18
M  V30 18 1 18 19
M  V30 19 2 19 20
M  V30 20 1 20 21
M  V30 21 2 21 22
M  V30 22 2 4 23
M  V30 23 1 23 24
M  V30 24 2 24 25
M  V30 25 1 25 2
M  V30 26 1 22 6
M  V30 27 1 15 9
M  V30 28 1 22 17
M  V30 29 1 1 26
M  V30 30 1 1 27
M  V30 31 1 1 28
M  V30 32 1 3 29
M  V30 33 1 5 30
M  V30 34 1 10 31
M  V30 35 1 11 32
M  V30 36 1 12 33
M  V30 37 1 14 34
M  V30 38 1 14 35
M  V30 39 1 14 36
M  V30 40 1 18 37
M  V30 41 1 19 38
M  V30 42 1 20 39
M  V30 43 1 21 40
M  V30 44 1 23 41
M  V30 45 1 24 42
M  V30 END BOND
M  V30 END CTAB
M  END
>  <Dataset>  (90) 
ChEMBL_Kinases

>  <Ligand_Instance>  (90) 
nan

>  <PDB_ID>  (90) 
nan

>  <Standardized_SMILES>  (90) 
Cc1cc(Nc2nc(-c3cccc(C)n3)nc3ccccc23)ccn1

>  <Name>  (90) 
nan

>  <Pocket>  (90) 
nan

>  <ATP_Site>  (90) 
nan

>  <Peripheral>  (90) 
nan

>  <Num_H_Atoms_ProtBoundConf>  (90) 
nan

>  <Num_Resolved_Atoms>  (90) 
nan

>  <Num_Not_Resolved_Atoms>  (90) 
nan

$$$$
CHEMBL560488
     RDKit          3D

  0  0  0  0  0  0  0  0  0  0999 V3000
M  V30 BEGIN CTAB
M  V30 COUNTS 47 50 0 0 0
M  V30 BEGIN ATOM
M  V30 1 C -0.986931 -3.134026 -1.341927 0
M  V30 2 C -0.581870 -2.865709 0.132105 0 CFG=1
M  V30 3 O 0.058145 -1.664065 0.133593 0
M  V30 4 C 1.267918 -1.222080 0.476735 0
M  V30 5 C 1.453694 0.115742 0.293193 0
M  V30 6 C 2.571846 0.746302 0.569039 0
M  V30 7 C 3.198935 2.044090 0.548098 0
M  V30 8 C 4.482846 2.359900 0.940498 0
M  V30 9 N 4.715292 3.673030 0.778108 0
M  V30 10 C 3.598620 4.225294 0.283126 0
M  V30 11 C 3.384525 5.545069 -0.037366 0
M  V30 12 C 2.156186 5.917299 -0.538097 0
M  V30 13 C 1.213526 4.920951 -0.684117 0
M  V30 14 C 1.537777 3.630410 -0.330355 0
M  V30 15 N 2.712576 3.226126 0.157523 0
M  V30 16 S 3.633169 -0.574859 1.187960 0
M  V30 17 C 2.397781 -1.894832 0.999139 0
M  V30 18 C 2.623257 -3.266663 1.333606 0
M  V30 19 N 3.907239 -3.583495 1.844087 0
M  V30 20 O 2.286665 -4.416899 1.429189 0
M  V30 21 C -1.872130 -2.761700 0.937059 0
M  V30 22 C -2.476119 -1.507636 1.082540 0
M  V30 23 C -3.652792 -1.391032 1.812520 0
M  V30 24 C -4.234336 -2.499685 2.397158 0
M  V30 25 C -5.490354 -2.409420 3.182933 0
M  V30 26 O -6.616802 -2.587097 2.365394 0
M  V30 27 C -3.617497 -3.735632 2.239983 0
M  V30 28 C -2.448992 -3.878065 1.520181 0
M  V30 29 Cl -1.706471 -5.446952 1.346559 0
M  V30 30 H -1.406379 -2.192680 -1.712474 0
M  V30 31 H -1.758182 -3.939077 -1.347265 0
M  V30 32 H -0.072731 -3.457761 -1.879719 0
M  V30 33 H -0.041299 -3.737800 0.484302 0
M  V30 34 H 0.736342 0.822480 -0.090508 0
M  V30 35 H 5.299162 1.776443 1.335737 0
M  V30 36 H 4.158907 6.289706 0.096318 0
M  V30 37 H 2.026769 6.962627 -0.777830 0
M  V30 38 H 0.266179 5.237297 -1.075745 0
M  V30 39 H 0.708745 2.973317 -0.499487 0
M  V30 40 H 4.762388 -3.869692 1.291427 0
M  V30 41 H 4.212018 -3.578438 2.856670 0
M  V30 42 H -2.064070 -0.624647 0.649589 0
M  V30 43 H -4.159512 -0.431482 1.952335 0
M  V30 44 H -5.627601 -1.406062 3.645788 0
M  V30 45 H -5.492659 -3.142750 4.018810 0
M  V30 46 H -6.381829 -2.597438 1.407386 0
M  V30 47 H -4.091862 -4.592680 2.707797 0
M  V30 END ATOM
M  V30 BEGIN BOND
M  V30 1 1 1 2
M  V30 2 1 2 3
M  V30 3 1 3 4
M  V30 4 1 4 5
M  V30 5 2 5 6
M  V30 6 1 6 7
M  V30 7 2 7 8
M  V30 8 1 8 9
M  V30 9 2 9 10
M  V30 10 1 10 11
M  V30 11 2 11 12
M  V30 12 1 12 13
M  V30 13 2 13 14
M  V30 14 1 14 15
M  V30 15 1 6 16
M  V30 16 1 16 17
M  V30 17 1 17 18
M  V30 18 1 18 19
M  V30 19 2 18 20
M  V30 20 1 2 21
M  V30 21 2 21 22
M  V30 22 1 22 23
M  V30 23 2 23 24
M  V30 24 1 24 25
M  V30 25 1 25 26
M  V30 26 1 24 27
M  V30 27 2 27 28
M  V30 28 1 28 29
M  V30 29 2 17 4
M  V30 30 1 28 21
M  V30 31 1 15 7
M  V30 32 1 15 10
M  V30 33 1 1 30
M  V30 34 1 1 31
M  V30 35 1 1 32
M  V30 36 1 2 33 CFG=1
M  V30 37 1 5 34
M  V30 38 1 8 35
M  V30 39 1 11 36
M  V30 40 1 12 37
M  V30 41 1 13 38
M  V30 42 1 14 39
M  V30 43 1 19 40
M  V30 44 1 19 41
M  V30 45 1 22 42
M  V30 46 1 23 43
M  V30 47 1 25 44
M  V30 48 1 25 45
M  V30 49 1 26 46
M  V30 50 1 27 47
M  V30 END BOND
M  V30 END CTAB
M  END
>  <Dataset>  (91) 
ChEMBL_Kinases

>  <Ligand_Instance>  (91) 
nan

>  <PDB_ID>  (91) 
nan

>  <Standardized_SMILES>  (91) 
C[C@@H](Oc1cc(-c2cnc3ccccn23)sc1C(N)=O)c1ccc(CO)cc1Cl

>  <Name>  (91) 
nan

>  <Pocket>  (91) 
nan

>  <ATP_Site>  (91) 
nan

>  <Peripheral>  (91) 
nan

>  <Num_H_Atoms_ProtBoundConf>  (91) 
nan

>  <Num_Resolved_Atoms>  (91) 
nan

>  <Num_Not_Resolved_Atoms>  (91) 
nan

$$$$
CHEMBL571619
     RDKit          3D

  0  0  0  0  0  0  0  0  0  0999 V3000
M  V30 BEGIN CTAB
M  V30 COUNTS 36 38 0 0 0
M  V30 BEGIN ATOM
M  V30 1 N 2.418068 -5.620512 3.943760 0
M  V30 2 C 2.146280 -4.212884 3.953493 0
M  V30 3 O 2.029687 -3.771835 5.125506 0
M  V30 4 C 2.044114 -3.504500 2.671310 0
M  V30 5 C 2.207721 -4.181985 1.470672 0
M  V30 6 C 2.093595 -3.429621 0.316296 0
M  V30 7 C 1.832236 -2.074615 0.292473 0
M  V30 8 N 1.723495 -1.338871 -0.926014 0
M  V30 9 C 1.449983 0.056006 -0.858065 0
M  V30 10 N 2.434947 0.970022 -0.787981 0
M  V30 11 C 2.058921 2.260154 -0.728157 0
M  V30 12 C 0.716931 2.577806 -0.741100 0
M  V30 13 C -0.294101 1.646577 -0.812689 0
M  V30 14 C -1.711029 1.989817 -0.826314 0
M  V30 15 C -2.208263 3.274687 -0.769434 0
M  V30 16 C -3.570349 3.513393 -0.787717 0
M  V30 17 C -4.449460 2.444675 -0.864403 0
M  V30 18 C -3.982670 1.141119 -0.922971 0
M  V30 19 C -2.615538 0.950229 -0.902033 0
M  V30 20 N 0.144081 0.377285 -0.869986 0
M  V30 21 C 1.677978 -1.449401 1.520471 0
M  V30 22 C 1.778918 -2.139906 2.720068 0
M  V30 23 H 2.029891 -6.510210 3.529179 0
M  V30 24 H 3.209314 -6.110890 4.448417 0
M  V30 25 H 2.413565 -5.243047 1.446416 0
M  V30 26 H 2.218120 -3.941046 -0.627177 0
M  V30 27 H 1.849547 -1.858278 -1.807461 0
M  V30 28 H 2.845525 2.999423 -0.671737 0
M  V30 29 H 0.472714 3.629878 -0.690884 0
M  V30 30 H -1.509715 4.092285 -0.710161 0
M  V30 31 H -3.929289 4.547222 -0.741030 0
M  V30 32 H -5.520508 2.599510 -0.880554 0
M  V30 33 H -4.665053 0.278617 -0.984228 0
M  V30 34 H -2.251973 -0.072905 -0.948101 0
M  V30 35 H 1.472893 -0.393145 1.550279 0
M  V30 36 H 1.653089 -1.621926 3.664838 0
M  V30 END ATOM
M  V30 BEGIN BOND
M  V30 1 1 1 2
M  V30 2 2 2 3
M  V30 3 1 2 4
M  V30 4 2 4 5
M  V30 5 1 5 6
M  V30 6 2 6 7
M  V30 7 1 7 8
M  V30 8 1 8 9
M  V30 9 2 9 10
M  V30 10 1 10 11
M  V30 11 2 11 12
M  V30 12 1 12 13
M  V30 13 1 13 14
M  V30 14 2 14 15
M  V30 15 1 15 16
M  V30 16 2 16 17
M  V30 17 1 17 18
M  V30 18 2 18 19
M  V30 19 2 13 20
M  V30 20 1 7 21
M  V30 21 2 21 22
M  V30 22 1 22 4
M  V30 23 1 20 9
M  V30 24 1 19 14
M  V30 25 1 1 23
M  V30 26 1 1 24
M  V30 27 1 5 25
M  V30 28 1 6 26
M  V30 29 1 8 27
M  V30 30 1 11 28
M  V30 31 1 12 29
M  V30 32 1 15 30
M  V30 33 1 16 31
M  V30 34 1 17 32
M  V30 35 1 18 33
M  V30 36 1 19 34
M  V30 37 1 21 35
M  V30 38 1 22 36
M  V30 END BOND
M  V30 END CTAB
M  END
>  <Dataset>  (92) 
ChEMBL_Kinases

>  <Ligand_Instance>  (92) 
nan

>  <PDB_ID>  (92) 
nan

>  <Standardized_SMILES>  (92) 
NC(=O)c1ccc(Nc2nccc(-c3ccccc3)n2)cc1

>  <Name>  (92) 
nan

>  <Pocket>  (92) 
nan

>  <ATP_Site>  (92) 
nan

>  <Peripheral>  (92) 
nan

>  <Num_H_Atoms_ProtBoundConf>  (92) 
nan

>  <Num_Resolved_Atoms>  (92) 
nan

>  <Num_Not_Resolved_Atoms>  (92) 
nan

$$$$
CHEMBL571797
     RDKit          3D

  0  0  0  0  0  0  0  0  0  0999 V3000
M  V30 BEGIN CTAB
M  V30 COUNTS 64 67 0 0 0
M  V30 BEGIN ATOM
M  V30 1 C 3.937401 0.222008 3.135770 0
M  V30 2 N 4.570860 1.529624 2.985220 0
M  V30 3 C 5.865131 2.044971 3.347487 0
M  V30 4 O 6.805559 1.227384 3.624972 0
M  V30 5 N 5.812682 3.475813 3.315430 0
M  V30 6 C 4.476891 3.855822 2.930603 0
M  V30 7 O 4.106525 5.041664 3.127258 0
M  V30 8 C 3.875895 2.625400 2.364103 0 CFG=1
M  V30 9 C 4.049228 2.673343 0.858794 0
M  V30 10 C 2.965813 1.743154 0.385901 0
M  V30 11 C 2.925108 1.056181 -0.809664 0
M  V30 12 C 1.822421 0.243515 -1.046600 0
M  V30 13 C 0.857756 0.195068 -0.057132 0
M  V30 14 N -0.297113 -0.639523 -0.274085 0
M  V30 15 C 0.034010 -1.933761 0.254286 0
M  V30 16 O 1.210326 -2.033386 0.760388 0
M  V30 17 C -0.620415 -3.255960 0.390913 0
M  V30 18 N -1.978983 -3.294307 -0.121311 0
M  V30 19 C -3.017916 -3.041384 0.853766 0
M  V30 20 C -3.404384 -1.638408 1.015546 0
M  V30 21 C -2.703035 -0.868763 1.951201 0
M  V30 22 C -2.975598 0.459981 2.198230 0
M  V30 23 F -2.322496 1.214668 3.083916 0
M  V30 24 C -3.983787 1.097588 1.507428 0
M  V30 25 C -4.710808 0.370545 0.564206 0
M  V30 26 Cl -5.998272 1.144911 -0.332678 0
M  V30 27 C -4.388035 -0.954614 0.364980 0
M  V30 28 C -2.060938 -3.601777 -1.504923 0
M  V30 29 O -0.821026 -3.731726 -1.791011 0
M  V30 30 C -3.079577 -3.781525 -2.538000 0
M  V30 31 C -3.928491 -2.584918 -2.821692 0
M  V30 32 C -2.381712 -4.173884 -3.829476 0
M  V30 33 C -4.022974 -4.933282 -2.239198 0
M  V30 34 C 0.892303 0.887132 1.154367 0
M  V30 35 C 2.003393 1.695346 1.373935 0
M  V30 36 C 2.376447 2.559172 2.518653 0
M  V30 37 H 3.618506 -0.060848 2.115725 0
M  V30 38 H 3.103060 0.273387 3.865231 0
M  V30 39 H 4.624464 -0.560700 3.477438 0
M  V30 40 H 6.697454 3.980450 3.561248 0
M  V30 41 H 5.061644 2.280028 0.632904 0
M  V30 42 H 3.880412 3.707006 0.494347 0
M  V30 43 H 3.696773 1.127805 -1.541721 0
M  V30 44 H 1.688937 -0.336882 -1.945879 0
M  V30 45 H -1.272928 -0.714862 -0.652709 0
M  V30 46 H -0.586154 -3.581522 1.458172 0
M  V30 47 H 0.024775 -4.019608 -0.127885 0
M  V30 48 H -2.670144 -3.408587 1.865304 0
M  V30 49 H -3.914751 -3.698834 0.666389 0
M  V30 50 H -1.899452 -1.295969 2.532046 0
M  V30 51 H -4.235700 2.133366 1.663360 0
M  V30 52 H -4.961310 -1.505987 -0.364703 0
M  V30 53 H -4.981482 -2.724512 -2.479809 0
M  V30 54 H -3.956410 -2.353010 -3.905248 0
M  V30 55 H -3.476229 -1.672741 -2.345051 0
M  V30 56 H -1.614335 -4.966601 -3.601137 0
M  V30 57 H -1.789448 -3.320148 -4.240869 0
M  V30 58 H -3.068296 -4.624290 -4.550276 0
M  V30 59 H -3.455254 -5.889956 -2.118660 0
M  V30 60 H -4.597734 -5.085585 -3.187114 0
M  V30 61 H -4.748067 -4.729422 -1.452596 0
M  V30 62 H 0.090918 0.780283 1.855509 0
M  V30 63 H 2.049441 2.191723 3.488566 0
M  V30 64 H 2.009586 3.594565 2.269553 0
M  V30 END ATOM
M  V30 BEGIN BOND
M  V30 1 1 1 2
M  V30 2 1 2 3
M  V30 3 2 3 4
M  V30 4 1 3 5
M  V30 5 1 5 6
M  V30 6 2 6 7
M  V30 7 1 6 8
M  V30 8 1 8 9
M  V30 9 1 9 10
M  V30 10 2 10 11
M  V30 11 1 11 12
M  V30 12 2 12 13
M  V30 13 1 13 14
M  V30 14 1 14 15
M  V30 15 2 15 16
M  V30 16 1 15 17
M  V30 17 1 17 18
M  V30 18 1 18 19
M  V30 19 1 19 20
M  V30 20 2 20 21
M  V30 21 1 21 22
M  V30 22 1 22 23
M  V30 23 2 22 24
M  V30 24 1 24 25
M  V30 25 1 25 26
M  V30 26 2 25 27
M  V30 27 1 18 28
M  V30 28 2 28 29
M  V30 29 1 28 30
M  V30 30 1 30 31
M  V30 31 1 30 32
M  V30 32 1 30 33
M  V30 33 1 13 34
M  V30 34 2 34 35
M  V30 35 1 35 36
M  V30 36 1 8 2 CFG=1
M  V30 37 1 35 10
M  V30 38 1 36 8
M  V30 39 1 27 20
M  V30 40 1 1 37
M  V30 41 1 1 38
M  V30 42 1 1 39
M  V30 43 1 5 40
M  V30 44 1 9 41
M  V30 45 1 9 42
M  V30 46 1 11 43
M  V30 47 1 12 44
M  V30 48 1 14 45
M  V30 49 1 17 46
M  V30 50 1 17 47
M  V30 51 1 19 48
M  V30 52 1 19 49
M  V30 53 1 21 50
M  V30 54 1 24 51
M  V30 55 1 27 52
M  V30 56 1 31 53
M  V30 57 1 31 54
M  V30 58 1 31 55
M  V30 59 1 32 56
M  V30 60 1 32 57
M  V30 61 1 32 58
M  V30 62 1 33 59
M  V30 63 1 33 60
M  V30 64 1 33 61
M  V30 65 1 34 62
M  V30 66 1 36 63
M  V30 67 1 36 64
M  V30 END BOND
M  V30 END CTAB
M  END
>  <Dataset>  (93) 
ChEMBL_Kinases

>  <Ligand_Instance>  (93) 
nan

>  <PDB_ID>  (93) 
nan

>  <Standardized_SMILES>  (93) 
CN1C(=O)NC(=O)[C@@]12Cc1ccc(NC(=O)CN(Cc3cc(F)cc(Cl)c3)C(=O)C(C)(C)C)cc1C2

>  <Name>  (93) 
nan

>  <Pocket>  (93) 
nan

>  <ATP_Site>  (93) 
nan

>  <Peripheral>  (93) 
nan

>  <Num_H_Atoms_ProtBoundConf>  (93) 
nan

>  <Num_Resolved_Atoms>  (93) 
nan

>  <Num_Not_Resolved_Atoms>  (93) 
nan

$$$$
CHEMBL5082380
     RDKit          3D

  0  0  0  0  0  0  0  0  0  0999 V3000
M  V30 BEGIN CTAB
M  V30 COUNTS 58 62 0 0 0
M  V30 BEGIN ATOM
M  V30 1 C 0.604727 -0.127823 4.834020 0
M  V30 2 N 0.069226 -1.119266 3.937048 0
M  V30 3 C 0.922919 -1.669745 3.057142 0
M  V30 4 N 2.311933 -1.353940 2.959420 0
M  V30 5 C 2.738596 -0.094794 2.464277 0
M  V30 6 C 2.305591 0.298059 1.099756 0
M  V30 7 N 0.869997 0.372948 0.908737 0
M  V30 8 C 0.335211 0.846543 -0.316865 0
M  V30 9 C 0.016084 0.134929 -1.447259 0
M  V30 10 C -0.500748 0.738682 -2.566027 0
M  V30 11 N -0.702408 2.065343 -2.559259 0
M  V30 12 C -0.423091 2.851372 -1.501121 0
M  V30 13 C -0.647721 4.208491 -1.536511 0
M  V30 14 C -0.358331 5.000208 -0.445043 0
M  V30 15 C 0.163260 4.397558 0.686356 0
M  V30 16 C 0.379883 3.035595 0.697590 0
M  V30 17 C 0.098289 2.210385 -0.387260 0
M  V30 18 C -0.847537 0.000906 -3.789575 0
M  V30 19 C -0.482720 -1.463176 -3.728922 0
M  V30 20 C -0.781968 -1.977920 -2.358760 0
M  V30 21 C 0.244089 -1.330220 -1.415838 0
M  V30 22 N 0.548161 -2.604100 2.168713 0
M  V30 23 C -0.720518 -3.076198 2.076819 0
M  V30 24 C -1.141925 -4.094556 1.122708 0
M  V30 25 C -2.420549 -4.577693 0.993477 0
M  V30 26 C -2.604784 -5.548468 0.029542 0
M  V30 27 N -1.636594 -6.037841 -0.768957 0
M  V30 28 C -0.389859 -5.577225 -0.653440 0
M  V30 29 C -0.134463 -4.599953 0.295798 0
M  V30 30 F 1.157847 -4.143448 0.396758 0
M  V30 31 C -1.578915 -2.498100 2.987401 0
M  V30 32 C -1.231443 -1.540562 3.910728 0
M  V30 33 O -2.013441 -1.018162 4.735969 0
M  V30 34 H 1.658890 -0.369416 5.071191 0
M  V30 35 H -0.006830 -0.173746 5.779074 0
M  V30 36 H 0.477785 0.905050 4.445468 0
M  V30 37 H 2.929105 -2.137211 3.285721 0
M  V30 38 H 3.867678 -0.118711 2.425632 0
M  V30 39 H 2.526024 0.755825 3.145445 0
M  V30 40 H 2.715490 1.339942 0.938110 0
M  V30 41 H 2.766885 -0.325981 0.279671 0
M  V30 42 H -0.020201 0.176586 1.416889 0
M  V30 43 H -1.055063 4.697473 -2.409187 0
M  V30 44 H -0.522014 6.061000 -0.442534 0
M  V30 45 H 0.397587 5.010873 1.558352 0
M  V30 46 H 0.784488 2.635447 1.605922 0
M  V30 47 H -0.358051 0.437359 -4.692043 0
M  V30 48 H -1.970851 0.044359 -3.897046 0
M  V30 49 H -1.100622 -2.028796 -4.449698 0
M  V30 50 H 0.606807 -1.643685 -3.916454 0
M  V30 51 H -0.652002 -3.073630 -2.262806 0
M  V30 52 H -1.774929 -1.676959 -2.003381 0
M  V30 53 H 0.041785 -1.789970 -0.422731 0
M  V30 54 H 1.270928 -1.620961 -1.745261 0
M  V30 55 H -3.170906 -4.179265 1.632539 0
M  V30 56 H -3.624410 -5.947932 -0.090341 0
M  V30 57 H 0.428297 -5.934661 -1.269580 0
M  V30 58 H -2.620061 -2.788667 3.016891 0
M  V30 END ATOM
M  V30 BEGIN BOND
M  V30 1 1 1 2
M  V30 2 1 2 3
M  V30 3 1 3 4
M  V30 4 1 4 5
M  V30 5 1 5 6
M  V30 6 1 6 7
M  V30 7 1 7 8
M  V30 8 2 8 9
M  V30 9 1 9 10
M  V30 10 2 10 11
M  V30 11 1 11 12
M  V30 12 2 12 13
M  V30 13 1 13 14
M  V30 14 2 14 15
M  V30 15 1 15 16
M  V30 16 2 16 17
M  V30 17 1 10 18
M  V30 18 1 18 19
M  V30 19 1 19 20
M  V30 20 1 20 21
M  V30 21 2 3 22
M  V30 22 1 22 23
M  V30 23 1 23 24
M  V30 24 2 24 25
M  V30 25 1 25 26
M  V30 26 2 26 27
M  V30 27 1 27 28
M  V30 28 2 28 29
M  V30 29 1 29 30
M  V30 30 2 23 31
M  V30 31 1 31 32
M  V30 32 2 32 33
M  V30 33 1 32 2
M  V30 34 1 17 8
M  V30 35 1 29 24
M  V30 36 1 21 9
M  V30 37 1 17 12
M  V30 38 1 1 34
M  V30 39 1 1 35
M  V30 40 1 1 36
M  V30 41 1 4 37
M  V30 42 1 5 38
M  V30 43 1 5 39
M  V30 44 1 6 40
M  V30 45 1 6 41
M  V30 46 1 7 42
M  V30 47 1 13 43
M  V30 48 1 14 44
M  V30 49 1 15 45
M  V30 50 1 16 46
M  V30 51 1 18 47
M  V30 52 1 18 48
M  V30 53 1 19 49
M  V30 54 1 19 50
M  V30 55 1 20 51
M  V30 56 1 20 52
M  V30 57 1 21 53
M  V30 58 1 21 54
M  V30 59 1 25 55
M  V30 60 1 26 56
M  V30 61 1 28 57
M  V30 62 1 31 58
M  V30 END BOND
M  V30 END CTAB
M  END
>  <Dataset>  (94) 
ChEMBL_Kinases

>  <Ligand_Instance>  (94) 
nan

>  <PDB_ID>  (94) 
nan

>  <Standardized_SMILES>  (94) 
Cn1c(NCCNc2c3c(nc4ccccc24)CCCC3)nc(-c2ccncc2F)cc1=O

>  <Name>  (94) 
nan

>  <Pocket>  (94) 
nan

>  <ATP_Site>  (94) 
nan

>  <Peripheral>  (94) 
nan

>  <Num_H_Atoms_ProtBoundConf>  (94) 
nan

>  <Num_Resolved_Atoms>  (94) 
nan

>  <Num_Not_Resolved_Atoms>  (94) 
nan

$$$$
CHEMBL5082392
     RDKit          3D

  0  0  0  0  0  0  0  0  0  0999 V3000
M  V30 BEGIN CTAB
M  V30 COUNTS 39 42 0 0 0
M  V30 BEGIN ATOM
M  V30 1 C 1.699487 -6.257317 2.094659 0
M  V30 2 O 1.897252 -5.364703 0.994982 0
M  V30 3 C 1.597006 -4.013426 1.102025 0
M  V30 4 O 1.136802 -3.573457 2.210816 0
M  V30 5 C 1.797568 -3.101977 -0.020910 0
M  V30 6 C 2.292317 -3.510290 -1.240305 0
M  V30 7 C 2.448402 -2.586047 -2.253853 0
M  V30 8 C 2.128592 -1.253859 -2.103648 0
M  V30 9 C 1.626798 -0.837682 -0.868265 0
M  V30 10 C 1.257876 0.575842 -0.641815 0
M  V30 11 C 1.859357 1.664283 -1.224226 0
M  V30 12 N 1.436177 2.912000 -0.942996 0
M  V30 13 C 0.419031 3.158961 -0.091259 0
M  V30 14 N -0.188724 4.265167 0.354265 0
M  V30 15 C -1.175757 3.953476 1.215219 0
M  V30 16 C -1.247298 2.573440 1.366104 0
M  V30 17 C -2.155418 1.828611 2.196465 0
M  V30 18 C -1.548527 0.841496 2.945882 0
M  V30 19 N -2.297361 0.062660 3.773812 0
M  V30 20 C -3.641603 0.252659 3.866172 0
M  V30 21 N -4.235071 1.212703 3.137945 0
M  V30 22 C -3.522518 2.008936 2.301795 0
M  V30 23 C -0.231178 2.115971 0.530060 0
M  V30 24 C 0.203484 0.845292 0.240405 0
M  V30 25 C 1.477048 -1.768089 0.130678 0
M  V30 26 H 1.092029 -7.139267 1.783492 0
M  V30 27 H 2.643099 -6.666998 2.490302 0
M  V30 28 H 1.152168 -5.743392 2.926364 0
M  V30 29 H 2.534448 -4.555937 -1.331755 0
M  V30 30 H 2.837299 -2.934589 -3.194678 0
M  V30 31 H 2.243461 -0.514585 -2.885410 0
M  V30 32 H 2.676980 1.431732 -1.907548 0
M  V30 33 H 0.086874 5.242998 0.056364 0
M  V30 34 H -1.805579 4.705039 1.702109 0
M  V30 35 H -0.519231 0.528263 3.023322 0
M  V30 36 H -4.251968 -0.369117 4.529565 0
M  V30 37 H -3.950154 2.808002 1.683055 0
M  V30 38 H -0.273143 0.017503 0.697860 0
M  V30 39 H 1.086938 -1.455105 1.099061 0
M  V30 END ATOM
M  V30 BEGIN BOND
M  V30 1 1 1 2
M  V30 2 1 2 3
M  V30 3 2 3 4
M  V30 4 1 3 5
M  V30 5 2 5 6
M  V30 6 1 6 7
M  V30 7 2 7 8
M  V30 8 1 8 9
M  V30 9 1 9 10
M  V30 10 2 10 11
M  V30 11 1 11 12
M  V30 12 2 12 13
M  V30 13 1 13 14
M  V30 14 1 14 15
M  V30 15 2 15 16
M  V30 16 1 16 17
M  V30 17 2 17 18
M  V30 18 1 18 19
M  V30 19 2 19 20
M  V30 20 1 20 21
M  V30 21 2 21 22
M  V30 22 1 16 23
M  V30 23 2 23 24
M  V30 24 2 9 25
M  V30 25 1 25 5
M  V30 26 1 24 10
M  V30 27 1 23 13
M  V30 28 1 22 17
M  V30 29 1 1 26
M  V30 30 1 1 27
M  V30 31 1 1 28
M  V30 32 1 6 29
M  V30 33 1 7 30
M  V30 34 1 8 31
M  V30 35 1 11 32
M  V30 36 1 14 33
M  V30 37 1 15 34
M  V30 38 1 18 35
M  V30 39 1 20 36
M  V30 40 1 22 37
M  V30 41 1 24 38
M  V30 42 1 25 39
M  V30 END BOND
M  V30 END CTAB
M  END
>  <Dataset>  (95) 
ChEMBL_Kinases

>  <Ligand_Instance>  (95) 
nan

>  <PDB_ID>  (95) 
nan

>  <Standardized_SMILES>  (95) 
COC(=O)c1cccc(-c2cnc3[nH]cc(-c4cncnc4)c3c2)c1

>  <Name>  (95) 
nan

>  <Pocket>  (95) 
nan

>  <ATP_Site>  (95) 
nan

>  <Peripheral>  (95) 
nan

>  <Num_H_Atoms_ProtBoundConf>  (95) 
nan

>  <Num_Resolved_Atoms>  (95) 
nan

>  <Num_Not_Resolved_Atoms>  (95) 
nan

$$$$
CHEMBL5082423
     RDKit          3D

  0  0  0  0  0  0  0  0  0  0999 V3000
M  V30 BEGIN CTAB
M  V30 COUNTS 57 61 0 0 0
M  V30 BEGIN ATOM
M  V30 1 C 2.144509 -4.558544 3.694177 0
M  V30 2 O 1.597112 -3.562718 2.854337 0
M  V30 3 C 2.305476 -2.391591 2.587953 0
M  V30 4 C 3.543380 -2.225183 3.151147 0
M  V30 5 C 4.259816 -1.082515 2.903530 0
M  V30 6 C 3.712075 -0.122245 2.087507 0
M  V30 7 C 2.485397 -0.250736 1.510191 0
M  V30 8 C 1.789799 0.678987 0.640665 0
M  V30 9 N 2.619223 1.013865 -0.376705 0
M  V30 10 C 1.959607 1.892085 -1.179198 0
M  V30 11 S 1.820347 3.026211 -2.673102 0
M  V30 12 C 0.049118 3.577328 -2.281355 0
M  V30 13 C -0.275746 2.852566 -1.055623 0
M  V30 14 N 0.721107 2.084271 -0.635863 0
M  V30 15 C 0.603639 1.347625 0.478575 0
M  V30 16 C -0.300589 1.016872 1.560119 0
M  V30 17 C -0.101405 1.475567 2.834476 0
M  V30 18 C -0.996413 1.103260 3.813954 0
M  V30 19 N -1.996559 0.319655 3.448789 0
M  V30 20 C -2.219510 -0.145719 2.212883 0
M  V30 21 N -3.385751 -0.991538 2.250590 0
M  V30 22 C -3.063019 -2.241509 1.622993 0
M  V30 23 C -3.090246 -2.091312 0.108553 0
M  V30 24 N -2.667294 -3.346897 -0.514716 0
M  V30 25 S -2.715228 -3.235992 -2.247540 0
M  V30 26 O -4.128772 -2.989015 -2.647066 0
M  V30 27 O -2.285777 -4.592616 -2.784205 0
M  V30 28 C -1.652291 -1.990215 -2.846074 0
M  V30 29 C -2.327147 -0.776899 -3.056820 0
M  V30 30 C -1.715340 0.377765 -3.542294 0
M  V30 31 C -0.381577 0.327069 -3.830693 0
M  V30 32 C 0.269681 -0.850540 -3.624423 0
M  V30 33 F 1.599492 -0.922275 -3.904564 0
M  V30 34 C -0.310499 -2.003450 -3.146613 0
M  V30 35 N -1.342877 0.217601 1.248625 0
M  V30 36 C 1.789950 -1.415717 1.780567 0
M  V30 37 H 2.914732 -5.172807 3.157458 0
M  V30 38 H 1.325145 -5.256244 3.991213 0
M  V30 39 H 2.616673 -4.118978 4.592702 0
M  V30 40 H 4.035198 -2.921270 3.790758 0
M  V30 41 H 5.233935 -0.870965 3.301605 0
M  V30 42 H 4.235634 0.807129 1.851361 0
M  V30 43 H -0.496473 4.321145 -2.968146 0
M  V30 44 H -1.271165 3.151424 -0.820981 0
M  V30 45 H 0.770940 2.112583 2.967901 0
M  V30 46 H -0.790163 1.495169 4.797738 0
M  V30 47 H -4.263176 -0.666175 2.678640 0
M  V30 48 H -2.070056 -2.575437 1.945238 0
M  V30 49 H -3.758724 -3.054818 1.939239 0
M  V30 50 H -4.108475 -1.830826 -0.212413 0
M  V30 51 H -2.340900 -1.345491 -0.196886 0
M  V30 52 H -1.643321 -3.425446 -0.229697 0
M  V30 53 H -3.395948 -0.627631 -2.860714 0
M  V30 54 H -2.263026 1.296615 -3.691997 0
M  V30 55 H 0.074002 1.221702 -4.207667 0
M  V30 56 H 0.132614 -2.956283 -2.956297 0
M  V30 57 H 0.810881 -1.620651 1.379260 0
M  V30 END ATOM
M  V30 BEGIN BOND
M  V30 1 1 1 2
M  V30 2 1 2 3
M  V30 3 2 3 4
M  V30 4 1 4 5
M  V30 5 2 5 6
M  V30 6 1 6 7
M  V30 7 1 7 8
M  V30 8 1 8 9
M  V30 9 2 9 10
M  V30 10 1 10 11
M  V30 11 1 11 12
M  V30 12 2 12 13
M  V30 13 1 13 14
M  V30 14 1 14 15
M  V30 15 1 15 16
M  V30 16 2 16 17
M  V30 17 1 17 18
M  V30 18 2 18 19
M  V30 19 1 19 20
M  V30 20 1 20 21
M  V30 21 1 21 22
M  V30 22 1 22 23
M  V30 23 1 23 24
M  V30 24 1 24 25
M  V30 25 2 25 26
M  V30 26 2 25 27
M  V30 27 1 25 28
M  V30 28 2 28 29
M  V30 29 1 29 30
M  V30 30 2 30 31
M  V30 31 1 31 32
M  V30 32 1 32 33
M  V30 33 2 32 34
M  V30 34 2 20 35
M  V30 35 2 7 36
M  V30 36 1 36 3
M  V30 37 2 15 8
M  V30 38 1 35 16
M  V30 39 1 14 10
M  V30 40 1 34 28
M  V30 41 1 1 37
M  V30 42 1 1 38
M  V30 43 1 1 39
M  V30 44 1 4 40
M  V30 45 1 5 41
M  V30 46 1 6 42
M  V30 47 1 12 43
M  V30 48 1 13 44
M  V30 49 1 17 45
M  V30 50 1 18 46
M  V30 51 1 21 47
M  V30 52 1 22 48
M  V30 53 1 22 49
M  V30 54 1 23 50
M  V30 55 1 23 51
M  V30 56 1 24 52
M  V30 57 1 29 53
M  V30 58 1 30 54
M  V30 59 1 31 55
M  V30 60 1 34 56
M  V30 61 1 36 57
M  V30 END BOND
M  V30 END CTAB
M  END
>  <Dataset>  (96) 
ChEMBL_Kinases

>  <Ligand_Instance>  (96) 
nan

>  <PDB_ID>  (96) 
nan

>  <Standardized_SMILES>  (96) 
COc1cccc(-c2nc3sccn3c2-c2ccnc(NCCNS(=O)(=O)c3cccc(F)c3)n2)c1

>  <Name>  (96) 
nan

>  <Pocket>  (96) 
nan

>  <ATP_Site>  (96) 
nan

>  <Peripheral>  (96) 
nan

>  <Num_H_Atoms_ProtBoundConf>  (96) 
nan

>  <Num_Resolved_Atoms>  (96) 
nan

>  <Num_Not_Resolved_Atoms>  (96) 
nan

$$$$
CHEMBL5082440
     RDKit          3D

  0  0  0  0  0  0  0  0  0  0999 V3000
M  V30 BEGIN CTAB
M  V30 COUNTS 40 43 0 0 0
M  V30 BEGIN ATOM
M  V30 1 C 1.550948 -6.058697 2.724298 0
M  V30 2 O 1.710413 -5.410295 1.469410 0
M  V30 3 C 1.524870 -4.043262 1.312884 0
M  V30 4 O 1.211369 -3.531330 2.418466 0
M  V30 5 C 1.682045 -3.352503 0.036859 0
M  V30 6 C 2.030584 -3.922229 -1.184394 0
M  V30 7 C 2.135419 -3.114644 -2.297330 0
M  V30 8 C 1.908468 -1.756646 -2.253335 0
M  V30 9 C 1.561554 -1.165355 -1.055597 0
M  V30 10 C 1.310171 0.274113 -0.939776 0
M  V30 11 C 1.945449 1.239214 -1.695893 0
M  V30 12 N 1.679468 2.555150 -1.553826 0
M  V30 13 C 0.766553 2.988654 -0.652514 0
M  V30 14 N 0.304875 4.219765 -0.297724 0
M  V30 15 C -0.625539 4.072449 0.681409 0
M  V30 16 C -0.802013 2.754108 0.996818 0
M  V30 17 C -1.697403 2.137180 1.978942 0
M  V30 18 C -2.449266 1.047381 1.596988 0
M  V30 19 C -3.322724 0.385210 2.434023 0
M  V30 20 N -3.466157 0.810096 3.703366 0
M  V30 21 C -2.746298 1.872110 4.109781 0
M  V30 22 C -1.860417 2.557025 3.289503 0
M  V30 23 C 0.070638 2.093250 0.158913 0
M  V30 24 C 0.387423 0.764486 -0.033880 0
M  V30 25 C 1.460138 -1.986331 0.050756 0
M  V30 26 H 0.675606 -6.736315 2.711326 0
M  V30 27 H 2.500470 -6.618571 2.894237 0
M  V30 28 H 1.453114 -5.333276 3.565327 0
M  V30 29 H 2.195975 -4.989962 -1.157043 0
M  V30 30 H 2.410159 -3.635947 -3.209100 0
M  V30 31 H 2.001929 -1.150321 -3.151882 0
M  V30 32 H 2.679521 0.907477 -2.423069 0
M  V30 33 H 0.627992 5.118863 -0.723261 0
M  V30 34 H -1.162419 4.906073 1.154516 0
M  V30 35 H -2.434477 0.600001 0.601789 0
M  V30 36 H -3.922022 -0.476770 2.144772 0
M  V30 37 H -2.875523 2.200691 5.137692 0
M  V30 38 H -1.280707 3.406053 3.603336 0
M  V30 39 H -0.120776 0.010947 0.569330 0
M  V30 40 H 1.184070 -1.486285 0.989711 0
M  V30 END ATOM
M  V30 BEGIN BOND
M  V30 1 1 1 2
M  V30 2 1 2 3
M  V30 3 2 3 4
M  V30 4 1 3 5
M  V30 5 2 5 6
M  V30 6 1 6 7
M  V30 7 2 7 8
M  V30 8 1 8 9
M  V30 9 1 9 10
M  V30 10 2 10 11
M  V30 11 1 11 12
M  V30 12 2 12 13
M  V30 13 1 13 14
M  V30 14 1 14 15
M  V30 15 2 15 16
M  V30 16 1 16 17
M  V30 17 2 17 18
M  V30 18 1 18 19
M  V30 19 2 19 20
M  V30 20 1 20 21
M  V30 21 2 21 22
M  V30 22 1 16 23
M  V30 23 2 23 24
M  V30 24 2 9 25
M  V30 25 1 25 5
M  V30 26 1 24 10
M  V30 27 1 23 13
M  V30 28 1 22 17
M  V30 29 1 1 26
M  V30 30 1 1 27
M  V30 31 1 1 28
M  V30 32 1 6 29
M  V30 33 1 7 30
M  V30 34 1 8 31
M  V30 35 1 11 32
M  V30 36 1 14 33
M  V30 37 1 15 34
M  V30 38 1 18 35
M  V30 39 1 19 36
M  V30 40 1 21 37
M  V30 41 1 22 38
M  V30 42 1 24 39
M  V30 43 1 25 40
M  V30 END BOND
M  V30 END CTAB
M  END
>  <Dataset>  (97) 
ChEMBL_Kinases

>  <Ligand_Instance>  (97) 
nan

>  <PDB_ID>  (97) 
nan

>  <Standardized_SMILES>  (97) 
COC(=O)c1cccc(-c2cnc3[nH]cc(-c4ccncc4)c3c2)c1

>  <Name>  (97) 
nan

>  <Pocket>  (97) 
nan

>  <ATP_Site>  (97) 
nan

>  <Peripheral>  (97) 
nan

>  <Num_H_Atoms_ProtBoundConf>  (97) 
nan

>  <Num_Resolved_Atoms>  (97) 
nan

>  <Num_Not_Resolved_Atoms>  (97) 
nan

$$$$
CHEMBL5082566
     RDKit          3D

  0  0  0  0  0  0  0  0  0  0999 V3000
M  V30 BEGIN CTAB
M  V30 COUNTS 47 50 0 0 0
M  V30 BEGIN ATOM
M  V30 1 C 1.169890 0.036866 3.227158 0
M  V30 2 N 1.190329 -0.672183 1.935926 0
M  V30 3 C 2.165118 -0.552572 0.911103 0
M  V30 4 N 2.929347 -1.666847 0.854683 0
M  V30 5 C 3.959231 -1.781084 -0.026883 0
M  V30 6 N 4.208372 -0.754129 -0.852708 0
M  V30 7 C 3.480192 0.384560 -0.844808 0
M  V30 8 N 3.472289 1.559400 -1.528387 0
M  V30 9 C 2.481532 2.329859 -1.071815 0
M  V30 10 C 2.071902 3.594384 -1.447416 0
M  V30 11 C 0.991772 4.173632 -0.804662 0
M  V30 12 I 0.379219 6.101223 -1.386553 0
M  V30 13 C 0.309602 3.501139 0.216551 0
M  V30 14 C 0.732469 2.242031 0.577134 0
M  V30 15 C 1.800596 1.680221 -0.063985 0
M  V30 16 C 2.444415 0.478017 0.053741 0
M  V30 17 C 0.063284 -1.569469 1.774075 0
M  V30 18 C 0.149099 -2.571760 2.889853 0
M  V30 19 C -1.190484 -3.266035 2.984572 0
M  V30 20 C -1.814967 -3.224808 1.607800 0
M  V30 21 N -2.228222 -1.882015 1.287410 0
M  V30 22 C -2.605724 -1.718308 -0.093205 0
M  V30 23 C -3.856398 -2.436872 -0.471900 0
M  V30 24 C -4.999156 -1.990741 0.297779 0
M  V30 25 N -5.923380 -1.646586 0.908787 0
M  V30 26 C -1.267826 -0.883912 1.696283 0
M  V30 27 H 1.771345 -0.563413 3.940203 0
M  V30 28 H 1.743157 0.997382 3.113992 0
M  V30 29 H 0.159967 0.210597 3.585492 0
M  V30 30 H 4.576834 -2.677580 -0.074600 0
M  V30 31 H 4.187570 1.727175 -2.283156 0
M  V30 32 H 2.604777 4.103453 -2.235106 0
M  V30 33 H -0.526683 4.023874 0.669571 0
M  V30 34 H 0.144892 1.822171 1.349031 0
M  V30 35 H 0.195503 -2.114234 0.817895 0
M  V30 36 H 0.914826 -3.359424 2.669647 0
M  V30 37 H 0.452086 -2.120277 3.845995 0
M  V30 38 H -1.784033 -2.699040 3.729009 0
M  V30 39 H -1.021454 -4.310690 3.308812 0
M  V30 40 H -2.712075 -3.906115 1.690714 0
M  V30 41 H -1.104534 -3.676388 0.903807 0
M  V30 42 H -1.801881 -2.014715 -0.805914 0
M  V30 43 H -2.783027 -0.628829 -0.248060 0
M  V30 44 H -3.728261 -3.553905 -0.455848 0
M  V30 45 H -4.037315 -2.190106 -1.552655 0
M  V30 46 H -1.194792 -0.114728 0.902226 0
M  V30 47 H -1.579317 -0.363489 2.620008 0
M  V30 END ATOM
M  V30 BEGIN BOND
M  V30 1 1 1 2
M  V30 2 1 2 3
M  V30 3 2 3 4
M  V30 4 1 4 5
M  V30 5 2 5 6
M  V30 6 1 6 7
M  V30 7 1 7 8
M  V30 8 1 8 9
M  V30 9 2 9 10
M  V30 10 1 10 11
M  V30 11 1 11 12
M  V30 12 2 11 13
M  V30 13 1 13 14
M  V30 14 2 14 15
M  V30 15 1 15 16
M  V30 16 1 2 17
M  V30 17 1 17 18
M  V30 18 1 18 19
M  V30 19 1 19 20
M  V30 20 1 20 21
M  V30 21 1 21 22
M  V30 22 1 22 23
M  V30 23 1 23 24
M  V30 24 3 24 25
M  V30 25 1 21 26
M  V30 26 1 16 3
M  V30 27 1 26 17
M  V30 28 2 16 7
M  V30 29 1 15 9
M  V30 30 1 1 27
M  V30 31 1 1 28
M  V30 32 1 1 29
M  V30 33 1 5 30
M  V30 34 1 8 31
M  V30 35 1 10 32
M  V30 36 1 13 33
M  V30 37 1 14 34
M  V30 38 1 17 35
M  V30 39 1 18 36
M  V30 40 1 18 37
M  V30 41 1 19 38
M  V30 42 1 19 39
M  V30 43 1 20 40
M  V30 44 1 20 41
M  V30 45 1 22 42
M  V30 46 1 22 43
M  V30 47 1 23 44
M  V30 48 1 23 45
M  V30 49 1 26 46
M  V30 50 1 26 47
M  V30 END BOND
M  V30 END CTAB
M  END
>  <Dataset>  (98) 
ChEMBL_Kinases

>  <Ligand_Instance>  (98) 
nan

>  <PDB_ID>  (98) 
nan

>  <Standardized_SMILES>  (98) 
CN(c1ncnc2[nH]c3cc(I)ccc3c12)C1CCCN(CCC#N)C1

>  <Name>  (98) 
nan

>  <Pocket>  (98) 
nan

>  <ATP_Site>  (98) 
nan

>  <Peripheral>  (98) 
nan

>  <Num_H_Atoms_ProtBoundConf>  (98) 
nan

>  <Num_Resolved_Atoms>  (98) 
nan

>  <Num_Not_Resolved_Atoms>  (98) 
nan

$$$$
CHEMBL5082573
     RDKit          3D

  0  0  0  0  0  0  0  0  0  0999 V3000
M  V30 BEGIN CTAB
M  V30 COUNTS 56 59 0 0 0
M  V30 BEGIN ATOM
M  V30 1 C 2.937681 -1.188179 4.817278 0
M  V30 2 N 4.202519 -0.925055 4.168795 0
M  V30 3 C 5.324093 -1.400017 4.983780 0
M  V30 4 C 4.521181 -0.316886 2.932999 0
M  V30 5 O 5.791012 -0.292959 2.770337 0
M  V30 6 C 3.859269 0.286408 1.796098 0
M  V30 7 C 4.662414 0.786095 0.797685 0
M  V30 8 N 6.084200 0.766917 0.783600 0
M  V30 9 C 4.102989 1.383904 -0.340488 0
M  V30 10 C 2.737469 1.469668 -0.456165 0
M  V30 11 C 1.881634 0.988052 0.508985 0
M  V30 12 C 0.431552 1.083007 0.379214 0
M  V30 13 C -0.253345 2.184503 0.859100 0
M  V30 14 N -1.591885 2.261496 0.733551 0
M  V30 15 C -2.299354 1.257871 0.132226 0
M  V30 16 C -1.686542 0.104360 -0.383244 0
M  V30 17 C -0.315572 0.083884 -0.224768 0
M  V30 18 Cl 0.547387 -1.287897 -0.821165 0
M  V30 19 C -2.750155 -0.721666 -0.937787 0 CFG=1
M  V30 20 C -3.091435 -0.413934 -2.379930 0
M  V30 21 C -4.126376 -1.484467 -2.683634 0
M  V30 22 C -3.659871 -2.675471 -1.910542 0 CFG=2
M  V30 23 C -3.133469 -3.683254 -2.936095 0
M  V30 24 C -4.717977 -3.388184 -1.171995 0
M  V30 25 N -5.682430 -3.188887 -0.161577 0
M  V30 26 O -5.042994 -4.611232 -1.344082 0
M  V30 27 C -2.531502 -2.192774 -0.986484 0
M  V30 28 C -3.941225 -0.308328 -0.118253 0
M  V30 29 N -3.717135 1.147305 -0.099191 0
M  V30 30 C 2.508143 0.417555 1.591592 0
M  V30 31 F 1.652449 -0.047327 2.515645 0
M  V30 32 H 2.335634 -0.270681 5.012783 0
M  V30 33 H 3.158942 -1.595235 5.844533 0
M  V30 34 H 2.301460 -1.890801 4.254845 0
M  V30 35 H 5.410951 -0.781442 5.900884 0
M  V30 36 H 5.101674 -2.444195 5.353321 0
M  V30 37 H 6.268404 -1.365804 4.418584 0
M  V30 38 H 6.752129 1.417013 1.284380 0
M  V30 39 H 6.799289 0.182832 0.334302 0
M  V30 40 H 4.715235 1.777787 -1.126495 0
M  V30 41 H 2.335294 1.933090 -1.339345 0
M  V30 42 H 0.280569 2.995337 1.340248 0
M  V30 43 H -3.605759 0.560742 -2.430935 0
M  V30 44 H -2.256535 -0.540386 -3.070836 0
M  V30 45 H -4.122494 -1.651700 -3.801016 0
M  V30 46 H -5.164444 -1.163810 -2.468137 0
M  V30 47 H -3.994112 -4.253231 -3.310973 0
M  V30 48 H -2.613853 -3.104318 -3.723724 0
M  V30 49 H -2.386927 -4.292942 -2.376308 0
M  V30 50 H -6.681482 -2.910099 -0.296854 0
M  V30 51 H -5.420699 -3.322341 0.859269 0
M  V30 52 H -2.600010 -2.603654 0.021216 0
M  V30 53 H -1.614753 -2.411475 -1.541273 0
M  V30 54 H -4.914621 -0.524099 -0.548923 0
M  V30 55 H -3.798955 -0.622980 0.933397 0
M  V30 56 H -4.364155 1.982017 -0.215586 0
M  V30 END ATOM
M  V30 BEGIN BOND
M  V30 1 1 1 2
M  V30 2 1 2 3
M  V30 3 1 2 4
M  V30 4 2 4 5
M  V30 5 1 4 6
M  V30 6 2 6 7
M  V30 7 1 7 8
M  V30 8 1 7 9
M  V30 9 2 9 10
M  V30 10 1 10 11
M  V30 11 1 11 12
M  V30 12 2 12 13
M  V30 13 1 13 14
M  V30 14 2 14 15
M  V30 15 1 15 16
M  V30 16 2 16 17
M  V30 17 1 17 18
M  V30 18 1 16 19
M  V30 19 1 19 20 CFG=3
M  V30 20 1 20 21
M  V30 21 1 21 22
M  V30 22 1 22 23 CFG=3
M  V30 23 1 22 24
M  V30 24 1 24 25
M  V30 25 2 24 26
M  V30 26 1 22 27
M  V30 27 1 19 28
M  V30 28 1 28 29
M  V30 29 2 11 30
M  V30 30 1 30 31
M  V30 31 1 30 6
M  V30 32 1 17 12
M  V30 33 1 27 19
M  V30 34 1 29 15
M  V30 35 1 1 32
M  V30 36 1 1 33
M  V30 37 1 1 34
M  V30 38 1 3 35
M  V30 39 1 3 36
M  V30 40 1 3 37
M  V30 41 1 8 38
M  V30 42 1 8 39
M  V30 43 1 9 40
M  V30 44 1 10 41
M  V30 45 1 13 42
M  V30 46 1 20 43
M  V30 47 1 20 44
M  V30 48 1 21 45
M  V30 49 1 21 46
M  V30 50 1 23 47
M  V30 51 1 23 48
M  V30 52 1 23 49
M  V30 53 1 25 50
M  V30 54 1 25 51
M  V30 55 1 27 52
M  V30 56 1 27 53
M  V30 57 1 28 54
M  V30 58 1 28 55
M  V30 59 1 29 56
M  V30 END BOND
M  V30 END CTAB
M  END
>  <Dataset>  (99) 
ChEMBL_Kinases

>  <Ligand_Instance>  (99) 
nan

>  <PDB_ID>  (99) 
nan

>  <Standardized_SMILES>  (99) 
CN(C)C(=O)c1c(N)ccc(-c2cnc3c(c2Cl)[C@]2(CC[C@](C)(C(N)=O)C2)CN3)c1F

>  <Name>  (99) 
nan

>  <Pocket>  (99) 
nan

>  <ATP_Site>  (99) 
nan

>  <Peripheral>  (99) 
nan

>  <Num_H_Atoms_ProtBoundConf>  (99) 
nan

>  <Num_Resolved_Atoms>  (99) 
nan

>  <Num_Not_Resolved_Atoms>  (99) 
nan

$$$$
CHEMBL5082604
     RDKit          3D

  0  0  0  0  0  0  0  0  0  0999 V3000
M  V30 BEGIN CTAB
M  V30 COUNTS 63 67 0 0 0
M  V30 BEGIN ATOM
M  V30 1 C 1.462600 -2.259871 6.212511 0
M  V30 2 C 0.181670 -2.313658 5.409265 0
M  V30 3 N -0.250868 -1.009756 4.979697 0
M  V30 4 C -1.461938 -1.106987 4.223323 0
M  V30 5 C -2.117243 0.248930 4.012324 0
M  V30 6 C -1.069979 1.332165 3.847605 0
M  V30 7 C 0.154668 0.662670 3.247391 0
M  V30 8 O 1.074882 1.563406 2.715536 0
M  V30 9 C 1.479393 1.680866 1.414846 0
M  V30 10 N 1.052791 0.930623 0.382458 0
M  V30 11 C 1.495962 1.098326 -0.892428 0
M  V30 12 C 0.960785 0.215974 -1.949944 0
M  V30 13 C 1.432104 0.417219 -3.226420 0
M  V30 14 C 0.896148 -0.432983 -4.163421 0
M  V30 15 C -0.045838 -1.424138 -3.877508 0
M  V30 16 N -0.556782 -2.210382 -4.929360 0
M  V30 17 S -1.984734 -2.728383 -5.714472 0
M  V30 18 O -2.781301 -1.529046 -6.228318 0
M  V30 19 O -1.679308 -3.623498 -6.886953 0
M  V30 20 C -3.001304 -3.614692 -4.612707 0
M  V30 21 C -3.204493 -4.988707 -4.786180 0
M  V30 22 C -3.976057 -5.744294 -3.928688 0
M  V30 23 Cl -4.133938 -7.466568 -4.285421 0
M  V30 24 C -4.593187 -5.163983 -2.840253 0
M  V30 25 C -4.412555 -3.817877 -2.644672 0
M  V30 26 C -3.639304 -3.089750 -3.514778 0
M  V30 27 F -3.523953 -1.762781 -3.284548 0
M  V30 28 C -0.435711 -1.524313 -2.562094 0
M  V30 29 C 0.037982 -0.723645 -1.546161 0
M  V30 30 N 2.415279 2.061045 -1.177787 0
M  V30 31 C 2.843856 2.812287 -0.150355 0
M  V30 32 N 3.733541 3.809011 -0.176329 0
M  V30 33 N 3.873122 4.287516 1.055826 0
M  V30 34 C 3.080500 3.610282 1.887775 0
M  V30 35 C 2.950793 3.839620 3.331850 0
M  V30 36 C 2.403419 2.658108 1.164599 0
M  V30 37 C 0.745664 -0.237920 4.300856 0
M  V30 38 H 1.626288 -1.242202 6.647380 0
M  V30 39 H 1.438423 -2.955368 7.088142 0
M  V30 40 H 2.286002 -2.603209 5.561058 0
M  V30 41 H -0.594671 -2.687963 6.109509 0
M  V30 42 H 0.257143 -3.060681 4.594812 0
M  V30 43 H -1.309287 -1.647579 3.256016 0
M  V30 44 H -2.194862 -1.724892 4.786278 0
M  V30 45 H -2.737913 0.456987 4.885198 0
M  V30 46 H -2.738224 0.179049 3.113137 0
M  V30 47 H -1.449783 2.148063 3.202972 0
M  V30 48 H -0.863069 1.743091 4.845144 0
M  V30 49 H -0.223321 0.029263 2.421220 0
M  V30 50 H 2.160196 1.179255 -3.463453 0
M  V30 51 H 1.213538 -0.344572 -5.200098 0
M  V30 52 H 0.317142 -2.634433 -5.376933 0
M  V30 53 H -2.725410 -5.452278 -5.635704 0
M  V30 54 H -5.174415 -5.838549 -2.229742 0
M  V30 55 H -4.895390 -3.371301 -1.796086 0
M  V30 56 H -1.149303 -2.277125 -2.274708 0
M  V30 57 H -0.288423 -0.829195 -0.531123 0
M  V30 58 H 4.295749 4.242829 -0.946636 0
M  V30 59 H 2.468442 4.815411 3.548773 0
M  V30 60 H 2.482639 3.015947 3.883646 0
M  V30 61 H 4.002864 3.914068 3.729924 0
M  V30 62 H 1.540215 -0.898118 3.922975 0
M  V30 63 H 1.193301 0.456115 5.071528 0
M  V30 END ATOM
M  V30 BEGIN BOND
M  V30 1 1 1 2
M  V30 2 1 2 3
M  V30 3 1 3 4
M  V30 4 1 4 5
M  V30 5 1 5 6
M  V30 6 1 6 7
M  V30 7 1 7 8
M  V30 8 1 8 9
M  V30 9 2 9 10
M  V30 10 1 10 11
M  V30 11 1 11 12
M  V30 12 2 12 13
M  V30 13 1 13 14
M  V30 14 2 14 15
M  V30 15 1 15 16
M  V30 16 1 16 17
M  V30 17 2 17 18
M  V30 18 2 17 19
M  V30 19 1 17 20
M  V30 20 2 20 21
M  V30 21 1 21 22
M  V30 22 1 22 23
M  V30 23 2 22 24
M  V30 24 1 24 25
M  V30 25 2 25 26
M  V30 26 1 26 27
M  V30 27 1 15 28
M  V30 28 2 28 29
M  V30 29 2 11 30
M  V30 30 1 30 31
M  V30 31 1 31 32
M  V30 32 1 32 33
M  V30 33 2 33 34
M  V30 34 1 34 35
M  V30 35 1 34 36
M  V30 36 1 7 37
M  V30 37 1 37 3
M  V30 38 1 36 9
M  V30 39 1 29 12
M  V30 40 2 36 31
M  V30 41 1 26 20
M  V30 42 1 1 38
M  V30 43 1 1 39
M  V30 44 1 1 40
M  V30 45 1 2 41
M  V30 46 1 2 42
M  V30 47 1 4 43
M  V30 48 1 4 44
M  V30 49 1 5 45
M  V30 50 1 5 46
M  V30 51 1 6 47
M  V30 52 1 6 48
M  V30 53 1 7 49
M  V30 54 1 13 50
M  V30 55 1 14 51
M  V30 56 1 16 52
M  V30 57 1 21 53
M  V30 58 1 24 54
M  V30 59 1 25 55
M  V30 60 1 28 56
M  V30 61 1 29 57
M  V30 62 1 32 58
M  V30 63 1 35 59
M  V30 64 1 35 60
M  V30 65 1 35 61
M  V30 66 1 37 62
M  V30 67 1 37 63
M  V30 END BOND
M  V30 END CTAB
M  END
>  <Dataset>  (100) 
ChEMBL_Kinases

>  <Ligand_Instance>  (100) 
nan

>  <PDB_ID>  (100) 
nan

>  <Standardized_SMILES>  (100) 
CCN1CCCC(Oc2nc(-c3ccc(NS(=O)(=O)c4cc(Cl)ccc4F)cc3)nc3[nH]nc(C)c23)C1

>  <Name>  (100) 
nan

>  <Pocket>  (100) 
nan

>  <ATP_Site>  (100) 
nan

>  <Peripheral>  (100) 
nan

>  <Num_H_Atoms_ProtBoundConf>  (100) 
nan

>  <Num_Resolved_Atoms>  (100) 
nan

>  <Num_Not_Resolved_Atoms>  (100) 
nan

$$$$
CHEMBL3780942
     RDKit          3D

  0  0  0  0  0  0  0  0  0  0999 V3000
M  V30 BEGIN CTAB
M  V30 COUNTS 40 42 0 0 0
M  V30 BEGIN ATOM
M  V30 1 C 1.666381 -7.391079 1.064498 0
M  V30 2 C 2.166063 -5.962748 1.065088 0
M  V30 3 O 1.316207 -5.124062 0.307033 0
M  V30 4 C 1.519585 -3.785077 0.131774 0
M  V30 5 C 2.617466 -3.216065 0.728272 0
M  V30 6 C 2.888488 -1.878782 0.598513 0
M  V30 7 C 2.053413 -1.057514 -0.145446 0
M  V30 8 N 2.331027 0.322318 -0.299129 0
M  V30 9 C 1.708661 1.457287 -0.937314 0
M  V30 10 N 0.483085 1.895939 -0.305629 0
M  V30 11 C 0.677558 2.873202 0.747451 0
M  V30 12 O 1.692240 3.427430 1.250094 0
M  V30 13 C -0.606403 3.268097 1.315483 0
M  V30 14 C -1.095318 4.110721 2.292477 0
M  V30 15 C -2.438485 4.241442 2.576549 0
M  V30 16 C -3.371370 3.508835 1.869094 0
M  V30 17 N -4.742857 3.683410 2.204330 0 CHG=1 VAL=4
M  V30 18 O -5.589681 3.017011 1.560655 0
M  V30 19 O -5.242909 4.517521 3.173125 0 CHG=-1 VAL=1
M  V30 20 C -2.947560 2.647374 0.878199 0
M  V30 21 C -1.589500 2.567592 0.648537 0
M  V30 22 C -0.924028 1.731590 -0.339830 0
M  V30 23 O -1.403681 0.939068 -1.163031 0
M  V30 24 C 0.970757 -1.685356 -0.718699 0
M  V30 25 C 0.653377 -3.022784 -0.619431 0
M  V30 26 H 0.566698 -7.422632 0.925294 0
M  V30 27 H 2.167547 -8.000533 0.274325 0
M  V30 28 H 1.909531 -7.845696 2.054987 0
M  V30 29 H 3.222574 -5.878276 0.787396 0
M  V30 30 H 2.083871 -5.598011 2.122094 0
M  V30 31 H 3.308139 -3.796221 1.320672 0
M  V30 32 H 3.775734 -1.460223 1.090155 0
M  V30 33 H 3.238419 0.627626 0.180609 0
M  V30 34 H 2.423330 2.268151 -1.110310 0
M  V30 35 H 1.355315 1.054469 -1.950659 0
M  V30 36 H -0.351111 4.691138 2.852429 0
M  V30 37 H -2.689085 4.938681 3.368882 0
M  V30 38 H -3.663741 2.072602 0.321513 0
M  V30 39 H 0.278442 -1.124944 -1.320196 0
M  V30 40 H -0.214701 -3.459946 -1.094025 0
M  V30 END ATOM
M  V30 BEGIN BOND
M  V30 1 1 1 2
M  V30 2 1 2 3
M  V30 3 1 3 4
M  V30 4 2 4 5
M  V30 5 1 5 6
M  V30 6 2 6 7
M  V30 7 1 7 8
M  V30 8 1 8 9
M  V30 9 1 9 10
M  V30 10 1 10 11
M  V30 11 2 11 12
M  V30 12 1 11 13
M  V30 13 2 13 14
M  V30 14 1 14 15
M  V30 15 2 15 16
M  V30 16 1 16 17
M  V30 17 2 17 18
M  V30 18 1 17 19
M  V30 19 1 16 20
M  V30 20 2 20 21
M  V30 21 1 21 22
M  V30 22 2 22 23
M  V30 23 1 7 24
M  V30 24 2 24 25
M  V30 25 1 25 4
M  V30 26 1 22 10
M  V30 27 1 21 13
M  V30 28 1 1 26
M  V30 29 1 1 27
M  V30 30 1 1 28
M  V30 31 1 2 29
M  V30 32 1 2 30
M  V30 33 1 5 31
M  V30 34 1 6 32
M  V30 35 1 8 33
M  V30 36 1 9 34
M  V30 37 1 9 35
M  V30 38 1 14 36
M  V30 39 1 15 37
M  V30 40 1 20 38
M  V30 41 1 24 39
M  V30 42 1 25 40
M  V30 END BOND
M  V30 END CTAB
M  END
>  <Dataset>  (101) 
ChEMBL_Kinases

>  <Ligand_Instance>  (101) 
nan

>  <PDB_ID>  (101) 
nan

>  <Standardized_SMILES>  (101) 
CCOc1ccc(NCN2C(=O)c3ccc([N+](=O)[O-])cc3C2=O)cc1

>  <Name>  (101) 
nan

>  <Pocket>  (101) 
nan

>  <ATP_Site>  (101) 
nan

>  <Peripheral>  (101) 
nan

>  <Num_H_Atoms_ProtBoundConf>  (101) 
nan

>  <Num_Resolved_Atoms>  (101) 
nan

>  <Num_Not_Resolved_Atoms>  (101) 
nan

$$$$
CHEMBL3780920
     RDKit          3D

  0  0  0  0  0  0  0  0  0  0999 V3000
M  V30 BEGIN CTAB
M  V30 COUNTS 37 39 0 0 0
M  V30 BEGIN ATOM
M  V30 1 C -1.084036 -5.105321 3.943491 0
M  V30 2 O 0.261949 -4.636982 4.005796 0
M  V30 3 C 0.761855 -3.879376 2.956914 0
M  V30 4 C -0.054831 -3.598520 1.881385 0
M  V30 5 C 0.537432 -2.840296 0.894552 0
M  V30 6 C 1.825473 -2.356652 0.889851 0
M  V30 7 N 2.410890 -1.570484 -0.124092 0
M  V30 8 C 1.988303 -0.984140 -1.370115 0
M  V30 9 N 1.086306 0.107121 -1.148289 0
M  V30 10 C 1.734072 1.376189 -0.986814 0
M  V30 11 O 2.938340 1.767335 -0.984150 0
M  V30 12 C 0.740305 2.432267 -0.780556 0
M  V30 13 C 0.700660 3.801023 -0.571539 0
M  V30 14 C -0.480636 4.493151 -0.411506 0
M  V30 15 C -1.688863 3.852414 -0.451941 0
M  V30 16 C -1.710774 2.489381 -0.657214 0
M  V30 17 N -2.956101 1.808658 -0.701970 0
M  V30 18 C -0.504805 1.842197 -0.811604 0
M  V30 19 C -0.289286 0.431704 -1.035294 0
M  V30 20 O -1.128858 -0.477642 -1.135395 0
M  V30 21 C 2.582560 -2.676437 1.995576 0
M  V30 22 C 2.061965 -3.429156 3.020935 0
M  V30 23 H -1.284276 -5.807091 4.775804 0
M  V30 24 H -1.757798 -4.244183 4.008108 0
M  V30 25 H -1.276083 -5.607038 2.959809 0
M  V30 26 H -1.076618 -3.937817 1.804411 0
M  V30 27 H -0.090107 -2.628605 0.050780 0
M  V30 28 H 3.432949 -1.307333 0.015723 0
M  V30 29 H 1.332293 -1.788733 -1.861522 0
M  V30 30 H 2.800573 -0.768944 -2.066569 0
M  V30 31 H 1.665683 4.314976 -0.538914 0
M  V30 32 H -0.403405 5.567790 -0.252470 0
M  V30 33 H -2.571043 4.460859 -0.318566 0
M  V30 34 H -3.709131 1.801624 -1.431134 0
M  V30 35 H -3.500881 1.153259 -0.100981 0
M  V30 36 H 3.627530 -2.347615 2.107689 0
M  V30 37 H 2.676041 -3.664006 3.872783 0
M  V30 END ATOM
M  V30 BEGIN BOND
M  V30 1 1 1 2
M  V30 2 1 2 3
M  V30 3 2 3 4
M  V30 4 1 4 5
M  V30 5 2 5 6
M  V30 6 1 6 7
M  V30 7 1 7 8
M  V30 8 1 8 9
M  V30 9 1 9 10
M  V30 10 2 10 11
M  V30 11 1 10 12
M  V30 12 2 12 13
M  V30 13 1 13 14
M  V30 14 2 14 15
M  V30 15 1 15 16
M  V30 16 1 16 17
M  V30 17 2 16 18
M  V30 18 1 18 19
M  V30 19 2 19 20
M  V30 20 1 6 21
M  V30 21 2 21 22
M  V30 22 1 22 3
M  V30 23 1 19 9
M  V30 24 1 18 12
M  V30 25 1 1 23
M  V30 26 1 1 24
M  V30 27 1 1 25
M  V30 28 1 4 26
M  V30 29 1 5 27
M  V30 30 1 7 28
M  V30 31 1 8 29
M  V30 32 1 8 30
M  V30 33 1 13 31
M  V30 34 1 14 32
M  V30 35 1 15 33
M  V30 36 1 17 34
M  V30 37 1 17 35
M  V30 38 1 21 36
M  V30 39 1 22 37
M  V30 END BOND
M  V30 END CTAB
M  END
>  <Dataset>  (102) 
ChEMBL_Kinases

>  <Ligand_Instance>  (102) 
nan

>  <PDB_ID>  (102) 
nan

>  <Standardized_SMILES>  (102) 
COc1ccc(NCN2C(=O)c3cccc(N)c3C2=O)cc1

>  <Name>  (102) 
nan

>  <Pocket>  (102) 
nan

>  <ATP_Site>  (102) 
nan

>  <Peripheral>  (102) 
nan

>  <Num_H_Atoms_ProtBoundConf>  (102) 
nan

>  <Num_Resolved_Atoms>  (102) 
nan

>  <Num_Not_Resolved_Atoms>  (102) 
nan

$$$$
CHEMBL5082692
     RDKit          3D

  0  0  0  0  0  0  0  0  0  0999 V3000
M  V30 BEGIN CTAB
M  V30 COUNTS 68 72 0 0 0
M  V30 BEGIN ATOM
M  V30 1 C -0.585063 -3.211732 3.074630 0
M  V30 2 C 0.811348 -3.045652 2.595969 0
M  V30 3 C 1.845181 -3.429701 3.423306 0
M  V30 4 C 3.158620 -3.295792 3.023501 0
M  V30 5 C 3.386783 -2.763047 1.765369 0
M  V30 6 N 4.767619 -2.636965 1.379826 0
M  V30 7 C 5.218402 -1.352050 1.799279 0
M  V30 8 O 4.288068 -0.697689 2.383243 0
M  V30 9 C 6.579021 -0.830941 1.593326 0
M  V30 10 C 7.599335 -1.529501 0.961115 0
M  V30 11 C 8.839516 -0.929722 0.828121 0
M  V30 12 N 9.057908 0.315823 1.304691 0
M  V30 13 C 8.064950 0.999493 1.921612 0
M  V30 14 C 8.294406 2.361224 2.445582 0
M  V30 15 F 7.181804 3.174861 2.333819 0
M  V30 16 F 8.627445 2.270790 3.787338 0
M  V30 17 F 9.323736 3.004976 1.766928 0
M  V30 18 C 6.806868 0.432281 2.074609 0
M  V30 19 C 2.331403 -2.386715 0.957497 0
M  V30 20 C 1.019906 -2.519694 1.354959 0
M  V30 21 C -0.034543 -2.096623 0.439829 0
M  V30 22 C -0.026070 -2.427717 -0.920615 0
M  V30 23 C -1.018476 -2.032214 -1.796567 0
M  V30 24 C -2.072200 -1.277817 -1.330427 0
M  V30 25 C -2.114264 -0.931621 0.007620 0
M  V30 26 C -1.109720 -1.339459 0.862994 0
M  V30 27 O -3.122242 -0.176132 0.594413 0
M  V30 28 C -4.411427 0.161765 0.113321 0
M  V30 29 C -5.320405 -1.025346 -0.026049 0
M  V30 30 C -6.520187 -0.831421 0.889835 0
M  V30 31 O -7.144387 0.350276 0.497000 0
M  V30 32 C -6.416760 1.472212 0.883761 0
M  V30 33 C -4.967624 1.147399 1.147016 0
M  V30 34 C -4.376552 0.923721 -1.193133 0
M  V30 35 N -3.970801 0.106173 -2.322432 0
M  V30 36 C -4.627873 0.396199 -3.607891 0
M  V30 37 C -3.729277 1.450317 -4.264345 0
M  V30 38 O -3.631333 2.584282 -3.493368 0
M  V30 39 C -3.020867 -0.954636 -2.396278 0
M  V30 40 O -2.969455 -1.681528 -3.436537 0
M  V30 41 H -0.581584 -4.179933 3.657338 0
M  V30 42 H -0.898362 -2.454680 3.804979 0
M  V30 43 H -1.304685 -3.403888 2.254573 0
M  V30 44 H 1.650654 -3.847919 4.412188 0
M  V30 45 H 3.937103 -3.612012 3.709240 0
M  V30 46 H 5.472092 -3.255133 0.883832 0
M  V30 47 H 7.358030 -2.533017 0.597846 0
M  V30 48 H 9.584869 -1.542198 0.321624 0
M  V30 49 H 6.026676 1.009327 2.576817 0
M  V30 50 H 2.653347 -1.981496 -0.009449 0
M  V30 51 H 0.797068 -3.023799 -1.313507 0
M  V30 52 H -0.983231 -2.306027 -2.849533 0
M  V30 53 H -1.204662 -1.033740 1.896560 0
M  V30 54 H -4.831502 -1.969444 0.337293 0
M  V30 55 H -5.726287 -1.153592 -1.044467 0
M  V30 56 H -7.235552 -1.653902 0.635592 0
M  V30 57 H -6.250233 -0.849148 1.965578 0
M  V30 58 H -6.835449 1.819339 1.851002 0
M  V30 59 H -6.455217 2.280161 0.141330 0
M  V30 60 H -4.794396 0.698645 2.145293 0
M  V30 61 H -4.363810 2.071667 0.996992 0
M  V30 62 H -3.627232 1.743139 -1.027314 0
M  V30 63 H -5.364111 1.381579 -1.349133 0
M  V30 64 H -4.674915 -0.482752 -4.261283 0
M  V30 65 H -5.604626 0.876704 -3.439590 0
M  V30 66 H -4.126004 1.763739 -5.250702 0
M  V30 67 H -2.709993 1.071105 -4.462425 0
M  V30 68 H -2.738003 2.638335 -3.068773 0
M  V30 END ATOM
M  V30 BEGIN BOND
M  V30 1 1 1 2
M  V30 2 2 2 3
M  V30 3 1 3 4
M  V30 4 2 4 5
M  V30 5 1 5 6
M  V30 6 1 6 7
M  V30 7 2 7 8
M  V30 8 1 7 9
M  V30 9 2 9 10
M  V30 10 1 10 11
M  V30 11 2 11 12
M  V30 12 1 12 13
M  V30 13 1 13 14
M  V30 14 1 14 15
M  V30 15 1 14 16
M  V30 16 1 14 17
M  V30 17 2 13 18
M  V30 18 1 5 19
M  V30 19 2 19 20
M  V30 20 1 20 21
M  V30 21 2 21 22
M  V30 22 1 22 23
M  V30 23 2 23 24
M  V30 24 1 24 25
M  V30 25 2 25 26
M  V30 26 1 25 27
M  V30 27 1 27 28
M  V30 28 1 28 29
M  V30 29 1 29 30
M  V30 30 1 30 31
M  V30 31 1 31 32
M  V30 32 1 32 33
M  V30 33 1 28 34
M  V30 34 1 34 35
M  V30 35 1 35 36
M  V30 36 1 36 37
M  V30 37 1 37 38
M  V30 38 1 35 39
M  V30 39 2 39 40
M  V30 40 1 20 2
M  V30 41 1 26 21
M  V30 42 1 33 28
M  V30 43 1 18 9
M  V30 44 1 39 24
M  V30 45 1 1 41
M  V30 46 1 1 42
M  V30 47 1 1 43
M  V30 48 1 3 44
M  V30 49 1 4 45
M  V30 50 1 6 46
M  V30 51 1 10 47
M  V30 52 1 11 48
M  V30 53 1 18 49
M  V30 54 1 19 50
M  V30 55 1 22 51
M  V30 56 1 23 52
M  V30 57 1 26 53
M  V30 58 1 29 54
M  V30 59 1 29 55
M  V30 60 1 30 56
M  V30 61 1 30 57
M  V30 62 1 32 58
M  V30 63 1 32 59
M  V30 64 1 33 60
M  V30 65 1 33 61
M  V30 66 1 34 62
M  V30 67 1 34 63
M  V30 68 1 36 64
M  V30 69 1 36 65
M  V30 70 1 37 66
M  V30 71 1 37 67
M  V30 72 1 38 68
M  V30 END BOND
M  V30 END CTAB
M  END
>  <Dataset>  (103) 
ChEMBL_Kinases

>  <Ligand_Instance>  (103) 
nan

>  <PDB_ID>  (103) 
nan

>  <Standardized_SMILES>  (103) 
Cc1ccc(NC(=O)c2ccnc(C(F)(F)F)c2)cc1-c1ccc2c(c1)OC1(CCOCC1)CN(CCO)C2=O

>  <Name>  (103) 
nan

>  <Pocket>  (103) 
nan

>  <ATP_Site>  (103) 
nan

>  <Peripheral>  (103) 
nan

>  <Num_H_Atoms_ProtBoundConf>  (103) 
nan

>  <Num_Resolved_Atoms>  (103) 
nan

>  <Num_Not_Resolved_Atoms>  (103) 
nan

$$$$
CHEMBL512791
     RDKit          3D

  0  0  0  0  0  0  0  0  0  0999 V3000
M  V30 BEGIN CTAB
M  V30 COUNTS 38 40 0 0 0
M  V30 BEGIN ATOM
M  V30 1 C -0.044293 -2.983194 3.403167 0
M  V30 2 C 0.313970 -1.624725 2.780876 0
M  V30 3 N 1.729449 -1.546055 2.646415 0
M  V30 4 C 2.456275 -0.441746 2.126495 0
M  V30 5 C 2.092757 0.788526 1.629317 0
M  V30 6 N 0.979996 1.601850 1.354429 0
M  V30 7 C 0.386016 1.551345 0.040513 0
M  V30 8 C 0.961392 0.688424 -0.883824 0
M  V30 9 C 0.412896 0.617242 -2.156266 0
M  V30 10 N -0.653452 1.371145 -2.480083 0
M  V30 11 C -1.202779 2.208907 -1.564077 0
M  V30 12 C -0.708025 2.332328 -0.273629 0
M  V30 13 C 3.408036 1.130873 1.396942 0
M  V30 14 O 4.135887 2.068913 0.951242 0
M  V30 15 C 3.765859 -0.084358 1.887964 0
M  V30 16 O 4.856792 -0.721892 2.085471 0
M  V30 17 C -0.444442 -1.608046 1.502829 0
M  V30 18 C 0.005917 -2.372090 0.443852 0
M  V30 19 C -0.734820 -2.334444 -0.735575 0
M  V30 20 C -1.883973 -1.546679 -0.817501 0
M  V30 21 O -2.625205 -1.502634 -1.982440 0
M  V30 22 C -2.329809 -0.782679 0.249116 0
M  V30 23 C -1.598711 -0.817953 1.417706 0
M  V30 24 H 0.505181 -3.158524 4.350351 0
M  V30 25 H -1.144625 -3.091746 3.512281 0
M  V30 26 H 0.332388 -3.720375 2.648399 0
M  V30 27 H -0.096797 -0.855628 3.476371 0
M  V30 28 H 2.341041 -2.365977 2.950136 0
M  V30 29 H 0.542625 2.261007 2.063949 0
M  V30 30 H 1.817756 0.078692 -0.634094 0
M  V30 31 H 0.872733 -0.066723 -2.881317 0
M  V30 32 H -2.046264 2.769802 -1.905564 0
M  V30 33 H -1.148800 2.994309 0.436692 0
M  V30 34 H 0.890836 -2.986266 0.488840 0
M  V30 35 H -0.462481 -2.900071 -1.624202 0
M  V30 36 H -3.065556 -2.368742 -2.275381 0
M  V30 37 H -3.214902 -0.177311 0.182709 0
M  V30 38 H -1.928149 -0.226637 2.270071 0
M  V30 END ATOM
M  V30 BEGIN BOND
M  V30 1 1 1 2
M  V30 2 1 2 3
M  V30 3 1 3 4
M  V30 4 2 4 5
M  V30 5 1 5 6
M  V30 6 1 6 7
M  V30 7 2 7 8
M  V30 8 1 8 9
M  V30 9 2 9 10
M  V30 10 1 10 11
M  V30 11 2 11 12
M  V30 12 1 5 13
M  V30 13 2 13 14
M  V30 14 1 13 15
M  V30 15 2 15 16
M  V30 16 1 2 17
M  V30 17 2 17 18
M  V30 18 1 18 19
M  V30 19 2 19 20
M  V30 20 1 20 21
M  V30 21 1 20 22
M  V30 22 2 22 23
M  V30 23 1 15 4
M  V30 24 1 23 17
M  V30 25 1 12 7
M  V30 26 1 1 24
M  V30 27 1 1 25
M  V30 28 1 1 26
M  V30 29 1 2 27
M  V30 30 1 3 28
M  V30 31 1 6 29
M  V30 32 1 8 30
M  V30 33 1 9 31
M  V30 34 1 11 32
M  V30 35 1 12 33
M  V30 36 1 18 34
M  V30 37 1 19 35
M  V30 38 1 21 36
M  V30 39 1 22 37
M  V30 40 1 23 38
M  V30 END BOND
M  V30 END CTAB
M  END
>  <Dataset>  (104) 
ChEMBL_Kinases

>  <Ligand_Instance>  (104) 
nan

>  <PDB_ID>  (104) 
nan

>  <Standardized_SMILES>  (104) 
CC(Nc1c(Nc2ccncc2)c(=O)c1=O)c1ccc(O)cc1

>  <Name>  (104) 
nan

>  <Pocket>  (104) 
nan

>  <ATP_Site>  (104) 
nan

>  <Peripheral>  (104) 
nan

>  <Num_H_Atoms_ProtBoundConf>  (104) 
nan

>  <Num_Resolved_Atoms>  (104) 
nan

>  <Num_Not_Resolved_Atoms>  (104) 
nan

$$$$
CHEMBL5082734
     RDKit          3D

  0  0  0  0  0  0  0  0  0  0999 V3000
M  V30 BEGIN CTAB
M  V30 COUNTS 68 72 0 0 0
M  V30 BEGIN ATOM
M  V30 1 C 4.016968 -1.922912 6.429923 0
M  V30 2 C 2.997293 -2.549359 5.511067 0
M  V30 3 N 2.161025 -1.605915 4.836561 0
M  V30 4 C 1.221638 -2.234057 3.960068 0
M  V30 5 C 0.842218 -1.319256 2.821554 0
M  V30 6 N 2.046162 -0.942716 2.118653 0
M  V30 7 C 2.024977 -0.847011 0.687297 0
M  V30 8 C 3.066822 -0.236804 0.001518 0
M  V30 9 C 3.093316 -0.116181 -1.380050 0
M  V30 10 N 4.183824 0.554157 -2.048119 0
M  V30 11 C 3.574717 1.814120 -2.327607 0
M  V30 12 C 3.020942 2.881020 -1.613025 0
M  V30 13 C 2.584789 3.862677 -2.513586 0
M  V30 14 C 1.943534 5.122186 -2.092335 0
M  V30 15 N 2.880894 3.371049 -3.708744 0
M  V30 16 N 3.459021 2.179213 -3.639928 0
M  V30 17 N 2.044048 -0.627242 -2.036472 0
M  V30 18 C 1.011477 -1.226631 -1.419438 0
M  V30 19 N -0.071038 -1.717807 -2.179778 0
M  V30 20 C -1.196190 -2.395528 -1.537281 0 CFG=1
M  V30 21 C -1.808263 -1.586915 -0.465801 0
M  V30 22 C -3.154225 -1.193928 -1.013888 0
M  V30 23 N -3.505053 -2.289754 -1.918843 0
M  V30 24 C -4.830900 -2.825098 -2.152582 0
M  V30 25 O -5.039533 -3.783010 -2.969250 0
M  V30 26 C -5.894561 -2.160964 -1.364664 0
M  V30 27 C -6.135854 -2.781981 -0.145445 0
M  V30 28 C -7.099479 -2.240652 0.662913 0
M  V30 29 F -7.367276 -2.815269 1.857191 0
M  V30 30 C -7.795337 -1.127291 0.275080 0
M  V30 31 Cl -9.033560 -0.389641 1.262994 0
M  V30 32 C -7.509094 -0.555207 -0.951220 0
M  V30 33 C -6.552504 -1.044274 -1.817998 0
M  V30 34 F -6.242214 -0.520043 -3.015246 0
M  V30 35 C -2.274259 -2.712686 -2.517182 0
M  V30 36 N 1.033598 -1.319947 -0.064371 0
M  V30 37 C 3.262971 -0.669793 2.857476 0
M  V30 38 C 2.826397 -0.455602 4.310457 0
M  V30 39 H 3.591714 -0.997975 6.853767 0
M  V30 40 H 4.938300 -1.700010 5.825022 0
M  V30 41 H 4.294437 -2.664652 7.226892 0
M  V30 42 H 3.444435 -3.210347 4.763400 0
M  V30 43 H 2.313321 -3.175674 6.143806 0
M  V30 44 H 0.288309 -2.555967 4.474944 0
M  V30 45 H 1.681135 -3.142794 3.504069 0
M  V30 46 H 0.293948 -0.423276 3.195234 0
M  V30 47 H 0.113924 -1.847910 2.158894 0
M  V30 48 H 3.904961 0.167791 0.536472 0
M  V30 49 H 5.157370 0.280021 -2.294061 0
M  V30 50 H 3.010699 2.797587 -0.552101 0
M  V30 51 H 2.619659 5.954453 -2.385853 0
M  V30 52 H 0.962281 5.181969 -2.635054 0
M  V30 53 H 1.711204 5.121242 -1.009056 0
M  V30 54 H 2.661397 3.904443 -4.590617 0
M  V30 55 H -0.077810 -1.597930 -3.213935 0
M  V30 56 H -0.831074 -3.393772 -1.145263 0
M  V30 57 H -1.219433 -0.647647 -0.340566 0
M  V30 58 H -1.910522 -2.116374 0.506118 0
M  V30 59 H -3.848409 -1.190134 -0.138004 0
M  V30 60 H -3.186298 -0.215790 -1.506324 0
M  V30 61 H -5.605681 -3.663348 0.193557 0
M  V30 62 H -8.058645 0.326149 -1.252810 0
M  V30 63 H -2.297345 -3.800229 -2.790874 0
M  V30 64 H -2.062130 -2.102406 -3.436495 0
M  V30 65 H 3.735239 0.292244 2.560759 0
M  V30 66 H 3.961860 -1.532220 2.859383 0
M  V30 67 H 3.691001 -0.214605 4.961454 0
M  V30 68 H 2.117640 0.415347 4.362114 0
M  V30 END ATOM
M  V30 BEGIN BOND
M  V30 1 1 1 2
M  V30 2 1 2 3
M  V30 3 1 3 4
M  V30 4 1 4 5
M  V30 5 1 5 6
M  V30 6 1 6 7
M  V30 7 2 7 8
M  V30 8 1 8 9
M  V30 9 1 9 10
M  V30 10 1 10 11
M  V30 11 1 11 12
M  V30 12 2 12 13
M  V30 13 1 13 14
M  V30 14 1 13 15
M  V30 15 1 15 16
M  V30 16 2 9 17
M  V30 17 1 17 18
M  V30 18 1 18 19
M  V30 19 1 19 20
M  V30 20 1 20 21
M  V30 21 1 21 22
M  V30 22 1 22 23
M  V30 23 1 23 24
M  V30 24 2 24 25
M  V30 25 1 24 26
M  V30 26 2 26 27
M  V30 27 1 27 28
M  V30 28 1 28 29
M  V30 29 2 28 30
M  V30 30 1 30 31
M  V30 31 1 30 32
M  V30 32 2 32 33
M  V30 33 1 33 34
M  V30 34 1 23 35
M  V30 35 2 18 36
M  V30 36 1 6 37
M  V30 37 1 37 38
M  V30 38 1 38 3
M  V30 39 1 36 7
M  V30 40 2 16 11
M  V30 41 1 35 20
M  V30 42 1 33 26
M  V30 43 1 1 39
M  V30 44 1 1 40
M  V30 45 1 1 41
M  V30 46 1 2 42
M  V30 47 1 2 43
M  V30 48 1 4 44
M  V30 49 1 4 45
M  V30 50 1 5 46
M  V30 51 1 5 47
M  V30 52 1 8 48
M  V30 53 1 10 49
M  V30 54 1 12 50
M  V30 55 1 14 51
M  V30 56 1 14 52
M  V30 57 1 14 53
M  V30 58 1 15 54
M  V30 59 1 19 55
M  V30 60 1 20 56 CFG=1
M  V30 61 1 21 57
M  V30 62 1 21 58
M  V30 63 1 22 59
M  V30 64 1 22 60
M  V30 65 1 27 61
M  V30 66 1 32 62
M  V30 67 1 35 63
M  V30 68 1 35 64
M  V30 69 1 37 65
M  V30 70 1 37 66
M  V30 71 1 38 67
M  V30 72 1 38 68
M  V30 END BOND
M  V30 END CTAB
M  END
>  <Dataset>  (105) 
ChEMBL_Kinases

>  <Ligand_Instance>  (105) 
nan

>  <PDB_ID>  (105) 
nan

>  <Standardized_SMILES>  (105) 
CCN1CCN(c2cc(Nc3cc(C)[nH]n3)nc(N[C@H]3CCN(C(=O)c4cc(F)c(Cl)cc4F)C3)n2)CC1

>  <Name>  (105) 
nan

>  <Pocket>  (105) 
nan

>  <ATP_Site>  (105) 
nan

>  <Peripheral>  (105) 
nan

>  <Num_H_Atoms_ProtBoundConf>  (105) 
nan

>  <Num_Resolved_Atoms>  (105) 
nan

>  <Num_Not_Resolved_Atoms>  (105) 
nan

$$$$
CHEMBL3702300
     RDKit          3D

  0  0  0  0  0  0  0  0  0  0999 V3000
M  V30 BEGIN CTAB
M  V30 COUNTS 51 53 0 0 0
M  V30 BEGIN ATOM
M  V30 1 C -2.396937 1.186288 -0.504660 0
M  V30 2 C -2.644226 0.697770 0.888985 0
M  V30 3 C -2.897774 1.585405 1.944815 0
M  V30 4 C -2.834228 2.996620 2.065279 0
M  V30 5 O -2.521338 3.849665 1.194780 0
M  V30 6 O -3.114734 3.725618 3.189770 0
M  V30 7 S -3.313411 0.576069 3.368322 0
M  V30 8 C -3.121818 -1.016797 2.483751 0
M  V30 9 N -3.265098 -2.250041 2.910585 0
M  V30 10 C -3.061268 -3.299274 2.129462 0
M  V30 11 N -2.701556 -2.993873 0.884885 0
M  V30 12 C -2.535588 -1.774126 0.365317 0
M  V30 13 N -2.055687 -1.628588 -0.962204 0
M  V30 14 C -1.596031 -1.488051 -2.259530 0
M  V30 15 C -2.588159 -1.712995 -3.214023 0
M  V30 16 C -2.245965 -1.453926 -4.524696 0
M  V30 17 C -1.003143 -1.009024 -4.797507 0
M  V30 18 N -0.000812 -0.777523 -3.893292 0
M  V30 19 C -0.301718 -1.027119 -2.564163 0
M  V30 20 O 0.668589 -0.795713 -1.730254 0
M  V30 21 C 1.384685 -0.738764 -0.632724 0
M  V30 22 C 0.949201 0.331633 0.389171 0
M  V30 23 C 2.854547 -0.403406 -0.947990 0
M  V30 24 C 3.673091 -0.268919 0.288339 0
M  V30 25 N 3.710761 -1.438158 1.127567 0
M  V30 26 S 4.677796 -1.153146 2.545157 0
M  V30 27 C 3.512238 -1.076378 3.913042 0
M  V30 28 O 5.338622 0.211509 2.495877 0
M  V30 29 O 5.666948 -2.228498 2.797385 0
M  V30 30 C -2.751766 -0.625960 1.169941 0
M  V30 31 H -3.241043 0.831655 -1.169866 0
M  V30 32 H -2.568074 2.289257 -0.499300 0
M  V30 33 H -1.433925 0.989088 -0.929122 0
M  V30 34 H -2.564697 4.513151 3.538053 0
M  V30 35 H -3.203175 -4.262532 2.560899 0
M  V30 36 H -1.071344 -1.644279 -0.476804 0
M  V30 37 H -3.583988 -2.068789 -2.986745 0
M  V30 38 H -2.918468 -1.591591 -5.337410 0
M  V30 39 H -0.726130 -0.813273 -5.820217 0
M  V30 40 H 1.369454 -1.734688 -0.037462 0
M  V30 41 H 0.610440 1.249682 -0.016300 0
M  V30 42 H 0.084576 -0.175072 0.930005 0
M  V30 43 H 1.734409 0.549443 1.138515 0
M  V30 44 H 2.826224 0.603595 -1.445465 0
M  V30 45 H 3.274542 -1.108568 -1.666599 0
M  V30 46 H 4.755279 -0.193300 -0.110711 0
M  V30 47 H 3.590609 0.672351 0.838750 0
M  V30 48 H 4.067441 -2.262515 0.666114 0
M  V30 49 H 3.995304 -0.879149 4.873045 0
M  V30 50 H 2.945122 -1.996336 3.905176 0
M  V30 51 H 2.801398 -0.239957 3.731442 0
M  V30 END ATOM
M  V30 BEGIN BOND
M  V30 1 1 1 2
M  V30 2 2 2 3
M  V30 3 1 3 4
M  V30 4 2 4 5
M  V30 5 1 4 6
M  V30 6 1 3 7
M  V30 7 1 7 8
M  V30 8 2 8 9
M  V30 9 1 9 10
M  V30 10 2 10 11
M  V30 11 1 11 12
M  V30 12 1 12 13
M  V30 13 1 13 14
M  V30 14 2 14 15
M  V30 15 1 15 16
M  V30 16 2 16 17
M  V30 17 1 17 18
M  V30 18 2 18 19
M  V30 19 1 19 20
M  V30 20 1 20 21
M  V30 21 1 21 22
M  V30 22 1 21 23
M  V30 23 1 23 24
M  V30 24 1 24 25
M  V30 25 1 25 26
M  V30 26 1 26 27
M  V30 27 2 26 28
M  V30 28 2 26 29
M  V30 29 2 12 30
M  V30 30 1 30 2
M  V30 31 1 30 8
M  V30 32 1 19 14
M  V30 33 1 1 31
M  V30 34 1 1 32
M  V30 35 1 1 33
M  V30 36 1 6 34
M  V30 37 1 10 35
M  V30 38 1 13 36
M  V30 39 1 15 37
M  V30 40 1 16 38
M  V30 41 1 17 39
M  V30 42 1 21 40
M  V30 43 1 22 41
M  V30 44 1 22 42
M  V30 45 1 22 43
M  V30 46 1 23 44
M  V30 47 1 23 45
M  V30 48 1 24 46
M  V30 49 1 24 47
M  V30 50 1 25 48
M  V30 51 1 27 49
M  V30 52 1 27 50
M  V30 53 1 27 51
M  V30 END BOND
M  V30 END CTAB
M  END
>  <Dataset>  (106) 
ChEMBL_Kinases

>  <Ligand_Instance>  (106) 
nan

>  <PDB_ID>  (106) 
nan

>  <Standardized_SMILES>  (106) 
Cc1c(C(=O)O)sc2ncnc(Nc3cccnc3OC(C)CCNS(C)(=O)=O)c12

>  <Name>  (106) 
nan

>  <Pocket>  (106) 
nan

>  <ATP_Site>  (106) 
nan

>  <Peripheral>  (106) 
nan

>  <Num_H_Atoms_ProtBoundConf>  (106) 
nan

>  <Num_Resolved_Atoms>  (106) 
nan

>  <Num_Not_Resolved_Atoms>  (106) 
nan

$$$$
CHEMBL5082738
     RDKit          3D

  0  0  0  0  0  0  0  0  0  0999 V3000
M  V30 BEGIN CTAB
M  V30 COUNTS 70 74 0 0 0
M  V30 BEGIN ATOM
M  V30 1 C 0.754514 -5.607973 3.263620 0
M  V30 2 C 0.249924 -4.895185 2.088300 0
M  V30 3 C -0.612989 -5.541957 1.228724 0
M  V30 4 C -1.104472 -4.897791 0.115988 0
M  V30 5 C -0.771634 -3.601105 -0.196986 0
M  V30 6 N -1.332779 -3.032403 -1.364935 0
M  V30 7 C -1.168276 -1.738992 -1.912846 0
M  V30 8 O -0.418440 -0.934759 -1.305806 0
M  V30 9 C -1.782358 -1.225865 -3.124176 0
M  V30 10 C -1.528673 0.068924 -3.521762 0
M  V30 11 C -2.128132 0.533009 -4.682709 0
M  V30 12 O -1.834087 1.843751 -5.029984 0
M  V30 13 C -2.326787 2.506672 -6.151240 0
M  V30 14 C -3.832804 2.580553 -6.131765 0
M  V30 15 O -4.306023 3.247768 -7.261628 0
M  V30 16 N -2.941356 -0.271362 -5.402931 0
M  V30 17 C -3.203184 -1.554412 -5.024390 0
M  V30 18 O -4.056091 -2.133154 -5.937420 0
M  V30 19 C -4.516008 -3.450085 -5.832822 0
M  V30 20 F -5.892952 -3.393545 -5.711334 0
M  V30 21 F -4.221947 -4.204789 -6.956651 0
M  V30 22 C -2.612586 -2.022810 -3.874008 0
M  V30 23 C 0.077066 -3.016146 0.679793 0
M  V30 24 C 0.610868 -3.592432 1.812395 0
M  V30 25 C 1.523507 -2.868353 2.694689 0
M  V30 26 C 2.692298 -3.300848 3.247068 0
M  V30 27 C 3.430595 -2.456806 4.069520 0
M  V30 28 C 2.979216 -1.158689 4.335658 0
M  V30 29 C 1.793250 -0.733218 3.769681 0
M  V30 30 C 1.064981 -1.567977 2.957320 0
M  V30 31 O 1.315425 0.523025 4.001772 0
M  V30 32 C 1.785441 1.802214 4.261354 0
M  V30 33 C 0.586619 2.574572 4.845305 0
M  V30 34 C -0.227754 3.190091 3.729140 0
M  V30 35 O 0.450880 4.293800 3.270641 0
M  V30 36 C 1.742585 3.955057 2.976212 0
M  V30 37 C 2.024788 2.476534 2.900883 0
M  V30 38 C 2.933476 2.009688 5.138090 0
M  V30 39 C 3.805450 0.892395 5.483747 0
M  V30 40 O 4.730330 1.284572 6.265088 0
M  V30 41 N 3.935455 -0.519090 5.207905 0
M  V30 42 H 1.592681 -6.275642 2.969696 0
M  V30 43 H -0.029251 -6.328007 3.639771 0
M  V30 44 H 0.969651 -4.974100 4.146164 0
M  V30 45 H -0.919592 -6.560755 1.409533 0
M  V30 46 H -1.790101 -5.462668 -0.535922 0
M  V30 47 H -1.975085 -3.605877 -1.954406 0
M  V30 48 H -0.866853 0.731022 -2.940309 0
M  V30 49 H -1.936100 3.552623 -6.152466 0
M  V30 50 H -1.977055 2.070293 -7.111228 0
M  V30 51 H -4.262525 1.555968 -6.160209 0
M  V30 52 H -4.192944 3.099216 -5.241501 0
M  V30 53 H -3.846286 4.127484 -7.294111 0
M  V30 54 H -4.103558 -3.942587 -4.939368 0
M  V30 55 H -2.870502 -3.028182 -3.655262 0
M  V30 56 H 0.394966 -1.998813 0.516935 0
M  V30 57 H 2.964083 -4.307037 2.991475 0
M  V30 58 H 4.339981 -2.826277 4.485074 0
M  V30 59 H 0.139548 -1.138168 2.557163 0
M  V30 60 H -0.094793 1.909913 5.414105 0
M  V30 61 H 0.939249 3.350683 5.552686 0
M  V30 62 H -0.455780 2.419683 2.982977 0
M  V30 63 H -1.197755 3.486163 4.211968 0
M  V30 64 H 2.451894 4.486020 3.646971 0
M  V30 65 H 1.961855 4.353665 1.959250 0
M  V30 66 H 1.366870 2.011545 2.170051 0
M  V30 67 H 3.064318 2.359247 2.583540 0
M  V30 68 H 2.638327 2.486025 6.120450 0
M  V30 69 H 3.611314 2.800880 4.696908 0
M  V30 70 H 4.697876 -1.049518 5.629072 0
M  V30 END ATOM
M  V30 BEGIN BOND
M  V30 1 1 1 2
M  V30 2 2 2 3
M  V30 3 1 3 4
M  V30 4 2 4 5
M  V30 5 1 5 6
M  V30 6 1 6 7
M  V30 7 2 7 8
M  V30 8 1 7 9
M  V30 9 2 9 10
M  V30 10 1 10 11
M  V30 11 1 11 12
M  V30 12 1 12 13
M  V30 13 1 13 14
M  V30 14 1 14 15
M  V30 15 2 11 16
M  V30 16 1 16 17
M  V30 17 1 17 18
M  V30 18 1 18 19
M  V30 19 1 19 20
M  V30 20 1 19 21
M  V30 21 2 17 22
M  V30 22 1 5 23
M  V30 23 2 23 24
M  V30 24 1 24 25
M  V30 25 2 25 26
M  V30 26 1 26 27
M  V30 27 2 27 28
M  V30 28 1 28 29
M  V30 29 2 29 30
M  V30 30 1 29 31
M  V30 31 1 31 32
M  V30 32 1 32 33
M  V30 33 1 33 34
M  V30 34 1 34 35
M  V30 35 1 35 36
M  V30 36 1 36 37
M  V30 37 1 32 38
M  V30 38 1 38 39
M  V30 39 2 39 40
M  V30 40 1 39 41
M  V30 41 1 24 2
M  V30 42 1 30 25
M  V30 43 1 37 32
M  V30 44 1 22 9
M  V30 45 1 41 28
M  V30 46 1 1 42
M  V30 47 1 1 43
M  V30 48 1 1 44
M  V30 49 1 3 45
M  V30 50 1 4 46
M  V30 51 1 6 47
M  V30 52 1 10 48
M  V30 53 1 13 49
M  V30 54 1 13 50
M  V30 55 1 14 51
M  V30 56 1 14 52
M  V30 57 1 15 53
M  V30 58 1 19 54
M  V30 59 1 22 55
M  V30 60 1 23 56
M  V30 61 1 26 57
M  V30 62 1 27 58
M  V30 63 1 30 59
M  V30 64 1 33 60
M  V30 65 1 33 61
M  V30 66 1 34 62
M  V30 67 1 34 63
M  V30 68 1 36 64
M  V30 69 1 36 65
M  V30 70 1 37 66
M  V30 71 1 37 67
M  V30 72 1 38 68
M  V30 73 1 38 69
M  V30 74 1 41 70
M  V30 END BOND
M  V30 END CTAB
M  END
>  <Dataset>  (107) 
ChEMBL_Kinases

>  <Ligand_Instance>  (107) 
nan

>  <PDB_ID>  (107) 
nan

>  <Standardized_SMILES>  (107) 
Cc1ccc(NC(=O)c2cc(OCCO)nc(OC(F)F)c2)cc1-c1ccc2c(c1)OC1(CCOCC1)CC(=O)N2

>  <Name>  (107) 
nan

>  <Pocket>  (107) 
nan

>  <ATP_Site>  (107) 
nan

>  <Peripheral>  (107) 
nan

>  <Num_H_Atoms_ProtBoundConf>  (107) 
nan

>  <Num_Resolved_Atoms>  (107) 
nan

>  <Num_Not_Resolved_Atoms>  (107) 
nan

$$$$
CHEMBL5082830
     RDKit          3D

  0  0  0  0  0  0  0  0  0  0999 V3000
M  V30 BEGIN CTAB
M  V30 COUNTS 56 60 0 0 0
M  V30 BEGIN ATOM
M  V30 1 O 1.586178 -0.487897 4.246075 0
M  V30 2 C 1.449760 0.276902 3.259830 0
M  V30 3 N 2.326018 1.347916 2.926059 0
M  V30 4 C 3.528522 1.808799 3.592559 0 CFG=2
M  V30 5 C 3.372595 3.255709 4.055753 0
M  V30 6 O 2.291219 3.288730 4.942456 0
M  V30 7 C 4.658476 1.669199 2.646320 0
M  V30 8 C 5.655862 2.570849 2.370093 0
M  V30 9 C 6.645671 2.287640 1.453539 0
M  V30 10 C 6.676585 1.086849 0.774880 0
M  V30 11 C 5.687233 0.157460 1.029790 0
M  V30 12 Cl 5.741966 -1.353888 0.163421 0
M  V30 13 C 4.698236 0.460197 1.956373 0
M  V30 14 C 1.867607 2.024385 1.722133 0
M  V30 15 C 0.646624 1.274732 1.359593 0
M  V30 16 C -0.394472 1.180175 0.443422 0
M  V30 17 C -1.234473 0.140653 0.777748 0
M  V30 18 C -2.435785 -0.259821 0.045305 0
M  V30 19 N -2.524887 -1.592030 -0.127012 0
M  V30 20 C -3.551405 -2.182096 -0.775382 0
M  V30 21 N -3.658619 -3.593573 -0.965329 0
M  V30 22 C -4.761174 -4.181974 -1.657773 0
M  V30 23 C -4.923532 -3.728552 -3.083075 0
M  V30 24 C -3.828455 -4.265069 -3.980240 0
M  V30 25 O -2.864621 -4.945970 -3.207938 0
M  V30 26 C -3.503396 -6.091144 -2.725527 0
M  V30 27 C -4.524236 -5.693604 -1.696032 0
M  V30 28 N -4.507340 -1.365895 -1.255450 0
M  V30 29 C -4.471241 -0.038775 -1.114305 0
M  V30 30 C -3.422504 0.566702 -0.451669 0
M  V30 31 Cl -3.196517 2.276802 -0.165762 0
M  V30 32 C -0.688349 -0.408566 1.925732 0
M  V30 33 N 0.422002 0.281087 2.246614 0
M  V30 34 H 3.762765 1.204209 4.496221 0
M  V30 35 H 3.153040 3.871853 3.179296 0
M  V30 36 H 4.309220 3.593000 4.509870 0
M  V30 37 H 2.301068 2.510136 5.569303 0
M  V30 38 H 5.590065 3.495871 2.925191 0
M  V30 39 H 7.404309 3.042137 1.280865 0
M  V30 40 H 7.473209 0.896139 0.057503 0
M  V30 41 H 3.969813 -0.320903 2.091263 0
M  V30 42 H 2.660733 1.950998 0.961183 0
M  V30 43 H 1.578682 3.076525 1.904587 0
M  V30 44 H -0.562101 1.812189 -0.425464 0
M  V30 45 H -2.860595 -4.164437 -0.554380 0
M  V30 46 H -5.735740 -4.012035 -1.141573 0
M  V30 47 H -4.964491 -2.644836 -3.209718 0
M  V30 48 H -5.885774 -4.171104 -3.442707 0
M  V30 49 H -3.353769 -3.458066 -4.570467 0
M  V30 50 H -4.211997 -5.012666 -4.703889 0
M  V30 51 H -2.765197 -6.788208 -2.307429 0
M  V30 52 H -4.001731 -6.623472 -3.560825 0
M  V30 53 H -4.158734 -6.034953 -0.705911 0
M  V30 54 H -5.491027 -6.187658 -1.918635 0
M  V30 55 H -5.224135 0.654021 -1.487863 0
M  V30 56 H -1.127658 -1.260539 2.444224 0
M  V30 END ATOM
M  V30 BEGIN BOND
M  V30 1 2 1 2
M  V30 2 1 2 3
M  V30 3 1 3 4
M  V30 4 1 4 5
M  V30 5 1 5 6
M  V30 6 1 4 7
M  V30 7 2 7 8
M  V30 8 1 8 9
M  V30 9 2 9 10
M  V30 10 1 10 11
M  V30 11 1 11 12
M  V30 12 2 11 13
M  V30 13 1 3 14
M  V30 14 1 14 15
M  V30 15 2 15 16
M  V30 16 1 16 17
M  V30 17 1 17 18
M  V30 18 2 18 19
M  V30 19 1 19 20
M  V30 20 1 20 21
M  V30 21 1 21 22
M  V30 22 1 22 23
M  V30 23 1 23 24
M  V30 24 1 24 25
M  V30 25 1 25 26
M  V30 26 1 26 27
M  V30 27 2 20 28
M  V30 28 1 28 29
M  V30 29 2 29 30
M  V30 30 1 30 31
M  V30 31 2 17 32
M  V30 32 1 32 33
M  V30 33 1 33 2
M  V30 34 1 13 7
M  V30 35 1 33 15
M  V30 36 1 30 18
M  V30 37 1 27 22
M  V30 38 1 4 34 CFG=1
M  V30 39 1 5 35
M  V30 40 1 5 36
M  V30 41 1 6 37
M  V30 42 1 8 38
M  V30 43 1 9 39
M  V30 44 1 10 40
M  V30 45 1 13 41
M  V30 46 1 14 42
M  V30 47 1 14 43
M  V30 48 1 16 44
M  V30 49 1 21 45
M  V30 50 1 22 46
M  V30 51 1 23 47
M  V30 52 1 23 48
M  V30 53 1 24 49
M  V30 54 1 24 50
M  V30 55 1 26 51
M  V30 56 1 26 52
M  V30 57 1 27 53
M  V30 58 1 27 54
M  V30 59 1 29 55
M  V30 60 1 32 56
M  V30 END BOND
M  V30 END CTAB
M  END
>  <Dataset>  (108) 
ChEMBL_Kinases

>  <Ligand_Instance>  (108) 
nan

>  <PDB_ID>  (108) 
nan

>  <Standardized_SMILES>  (108) 
O=C1N([C@H](CO)c2cccc(Cl)c2)Cc2cc(-c3nc(NC4CCOCC4)ncc3Cl)cn21

>  <Name>  (108) 
nan

>  <Pocket>  (108) 
nan

>  <ATP_Site>  (108) 
nan

>  <Peripheral>  (108) 
nan

>  <Num_H_Atoms_ProtBoundConf>  (108) 
nan

>  <Num_Resolved_Atoms>  (108) 
nan

>  <Num_Not_Resolved_Atoms>  (108) 
nan

$$$$
CHEMBL5082893
     RDKit          3D

  0  0  0  0  0  0  0  0  0  0999 V3000
M  V30 BEGIN CTAB
M  V30 COUNTS 50 51 0 0 0
M  V30 BEGIN ATOM
M  V30 1 C -2.641406 -7.241323 0.862349 0
M  V30 2 C -1.430885 -6.594486 0.264033 0
M  V30 3 C -1.368565 -5.218082 0.156503 0
M  V30 4 C -0.270450 -4.603689 -0.388566 0
M  V30 5 C -0.217291 -3.170718 -0.494526 0
M  V30 6 C 0.930788 -2.413404 -0.428676 0
M  V30 7 N 1.010187 -1.080619 -0.523297 0
M  V30 8 C -0.078595 -0.355248 -0.697553 0
M  V30 9 O -0.274320 0.971044 -0.822089 0
M  V30 10 C 0.509144 2.079906 -0.820917 0
M  V30 11 C 1.315120 2.373666 0.428238 0 CFG=1
M  V30 12 C 2.411266 1.396837 0.699004 0
M  V30 13 N 2.012319 3.632868 0.095394 0
M  V30 14 C 0.441707 2.644558 1.605258 0
M  V30 15 C 1.130794 2.956907 2.885833 0
M  V30 16 C 1.998361 4.191429 2.807270 0
M  V30 17 C 0.138377 3.209457 4.000068 0
M  V30 18 C -1.313717 -1.025477 -0.779638 0
M  V30 19 C -2.647308 -0.351708 -0.976248 0
M  V30 20 F -2.614220 0.430991 -2.129612 0
M  V30 21 F -2.859031 0.502597 0.074657 0
M  V30 22 C -1.359910 -2.423927 -0.676343 0
M  V30 23 C 0.770974 -5.407451 -0.826391 0
M  V30 24 C 0.695351 -6.767269 -0.713585 0
M  V30 25 N -0.403791 -7.358667 -0.169400 0
M  V30 26 H -3.334780 -7.572209 0.068920 0
M  V30 27 H -2.318726 -8.085296 1.472845 0
M  V30 28 H -3.182534 -6.537125 1.527401 0
M  V30 29 H -2.181077 -4.587586 0.498139 0
M  V30 30 H 1.885942 -2.934672 -0.284727 0
M  V30 31 H -0.167472 2.984226 -0.926354 0
M  V30 32 H 1.164129 2.163674 -1.738655 0
M  V30 33 H 2.809489 1.008161 -0.271190 0
M  V30 34 H 3.236426 1.956696 1.228624 0
M  V30 35 H 2.172580 0.566203 1.367426 0
M  V30 36 H 2.790412 3.433884 -0.574510 0
M  V30 37 H 1.327295 4.323172 -0.283967 0
M  V30 38 H -0.261466 1.780527 1.753774 0
M  V30 39 H -0.253863 3.504407 1.406424 0
M  V30 40 H 1.785567 2.143560 3.256238 0
M  V30 41 H 2.274626 4.513675 3.854189 0
M  V30 42 H 1.445112 5.051865 2.360678 0
M  V30 43 H 2.926167 4.072311 2.249833 0
M  V30 44 H -0.608414 3.956972 3.656949 0
M  V30 45 H 0.629554 3.447576 4.943337 0
M  V30 46 H -0.483896 2.291561 4.212616 0
M  V30 47 H -3.455157 -1.077185 -1.007543 0
M  V30 48 H -2.310999 -2.971121 -0.737240 0
M  V30 49 H 1.674641 -4.977364 -1.270650 0
M  V30 50 H 1.453062 -7.475539 -1.025061 0
M  V30 END ATOM
M  V30 BEGIN BOND
M  V30 1 1 1 2
M  V30 2 2 2 3
M  V30 3 1 3 4
M  V30 4 1 4 5
M  V30 5 2 5 6
M  V30 6 1 6 7
M  V30 7 2 7 8
M  V30 8 1 8 9
M  V30 9 1 9 10
M  V30 10 1 10 11
M  V30 11 1 11 12
M  V30 12 1 11 13 CFG=3
M  V30 13 1 11 14
M  V30 14 1 14 15
M  V30 15 1 15 16
M  V30 16 1 15 17
M  V30 17 1 8 18
M  V30 18 1 18 19
M  V30 19 1 19 20
M  V30 20 1 19 21
M  V30 21 2 18 22
M  V30 22 2 4 23
M  V30 23 1 23 24
M  V30 24 2 24 25
M  V30 25 1 25 2
M  V30 26 1 22 5
M  V30 27 1 1 26
M  V30 28 1 1 27
M  V30 29 1 1 28
M  V30 30 1 3 29
M  V30 31 1 6 30
M  V30 32 1 10 31
M  V30 33 1 10 32
M  V30 34 1 12 33
M  V30 35 1 12 34
M  V30 36 1 12 35
M  V30 37 1 13 36
M  V30 38 1 13 37
M  V30 39 1 14 38
M  V30 40 1 14 39
M  V30 41 1 15 40
M  V30 42 1 16 41
M  V30 43 1 16 42
M  V30 44 1 16 43
M  V30 45 1 17 44
M  V30 46 1 17 45
M  V30 47 1 17 46
M  V30 48 1 19 47
M  V30 49 1 22 48
M  V30 50 1 23 49
M  V30 51 1 24 50
M  V30 END BOND
M  V30 END CTAB
M  END
>  <Dataset>  (109) 
ChEMBL_Kinases

>  <Ligand_Instance>  (109) 
nan

>  <PDB_ID>  (109) 
nan

>  <Standardized_SMILES>  (109) 
Cc1cc(-c2cnc(OC[C@@](C)(N)CC(C)C)c(C(F)F)c2)ccn1

>  <Name>  (109) 
nan

>  <Pocket>  (109) 
nan

>  <ATP_Site>  (109) 
nan

>  <Peripheral>  (109) 
nan

>  <Num_H_Atoms_ProtBoundConf>  (109) 
nan

>  <Num_Resolved_Atoms>  (109) 
nan

>  <Num_Not_Resolved_Atoms>  (109) 
nan

$$$$
CHEMBL5082928
     RDKit          3D

  0  0  0  0  0  0  0  0  0  0999 V3000
M  V30 BEGIN CTAB
M  V30 COUNTS 44 46 0 0 0
M  V30 BEGIN ATOM
M  V30 1 C 1.006337 -3.609043 -0.533562 0
M  V30 2 C -0.081152 -3.043575 -1.468053 0
M  V30 3 C 0.452455 -1.873211 -2.147607 0
M  V30 4 C 0.852258 -1.927429 -3.481224 0
M  V30 5 C 1.391043 -0.845002 -4.188811 0
M  V30 6 O 1.745304 -1.046999 -5.515281 0
M  V30 7 C 1.551911 0.385842 -3.541306 0
M  V30 8 F 2.070780 1.421617 -4.209032 0
M  V30 9 C 1.178766 0.524383 -2.216045 0
M  V30 10 C 0.667139 -0.615913 -1.652433 0
M  V30 11 C 0.273276 -0.411683 -0.236885 0
M  V30 12 C 1.069483 -0.070759 0.919005 0
M  V30 13 C 0.656413 0.171963 2.367931 0
M  V30 14 N 1.952952 0.403855 2.669238 0
M  V30 15 C 2.186968 0.731370 4.037704 0
M  V30 16 C 1.926156 2.146333 4.434607 0
M  V30 17 O 0.656796 2.617255 4.254284 0
M  V30 18 C -0.622732 -0.056851 2.070511 0
M  V30 19 N -0.954316 0.159275 3.421479 0
M  V30 20 C -2.250141 0.047875 3.777757 0
M  V30 21 N -2.836730 0.207849 5.037384 0
M  V30 22 N -3.229080 -0.263826 2.878245 0
M  V30 23 C -2.885018 -0.468503 1.582174 0
M  V30 24 C -1.585604 -0.359965 1.207570 0
M  V30 25 C -1.090680 -0.552130 -0.049447 0
M  V30 26 H 1.373430 -2.822684 0.136173 0
M  V30 27 H 1.775188 -4.074304 -1.153553 0
M  V30 28 H 0.478067 -4.438107 0.012828 0
M  V30 29 H -0.955769 -2.931366 -0.848865 0
M  V30 30 H -0.182338 -3.863521 -2.236404 0
M  V30 31 H 0.742029 -2.879336 -4.030289 0
M  V30 32 H 2.437645 -1.714935 -5.821357 0
M  V30 33 H 1.286840 1.460970 -1.697458 0
M  V30 34 H 2.046364 -0.068385 0.313202 0
M  V30 35 H 2.896389 0.457140 2.337547 0
M  V30 36 H 1.488323 0.074426 4.667566 0
M  V30 37 H 3.217785 0.458355 4.387878 0
M  V30 38 H 2.648327 2.850100 3.967191 0
M  V30 39 H 2.128306 2.253980 5.545644 0
M  V30 40 H 0.567927 3.572095 4.114611 0
M  V30 41 H -2.096738 0.475552 5.757165 0
M  V30 42 H -3.147588 0.350342 5.984999 0
M  V30 43 H -3.562619 -0.722737 0.777641 0
M  V30 44 H -1.846266 -0.781130 -0.755136 0
M  V30 END ATOM
M  V30 BEGIN BOND
M  V30 1 1 1 2
M  V30 2 1 2 3
M  V30 3 2 3 4
M  V30 4 1 4 5
M  V30 5 1 5 6
M  V30 6 2 5 7
M  V30 7 1 7 8
M  V30 8 1 7 9
M  V30 9 2 9 10
M  V30 10 1 10 11
M  V30 11 2 11 12
M  V30 12 1 12 13
M  V30 13 1 13 14
M  V30 14 1 14 15
M  V30 15 1 15 16
M  V30 16 1 16 17
M  V30 17 2 13 18
M  V30 18 1 18 19
M  V30 19 2 19 20
M  V30 20 1 20 21
M  V30 21 1 20 22
M  V30 22 2 22 23
M  V30 23 1 23 24
M  V30 24 2 24 25
M  V30 25 1 10 3
M  V30 26 1 25 11
M  V30 27 1 24 18
M  V30 28 1 1 26
M  V30 29 1 1 27
M  V30 30 1 1 28
M  V30 31 1 2 29
M  V30 32 1 2 30
M  V30 33 1 4 31
M  V30 34 1 6 32
M  V30 35 1 9 33
M  V30 36 1 12 34
M  V30 37 1 14 35
M  V30 38 1 15 36
M  V30 39 1 15 37
M  V30 40 1 16 38
M  V30 41 1 16 39
M  V30 42 1 17 40
M  V30 43 1 21 41
M  V30 44 1 21 42
M  V30 45 1 23 43
M  V30 46 1 25 44
M  V30 END BOND
M  V30 END CTAB
M  END
>  <Dataset>  (110) 
ChEMBL_Kinases

>  <Ligand_Instance>  (110) 
nan

>  <PDB_ID>  (110) 
nan

>  <Standardized_SMILES>  (110) 
CCc1cc(O)c(F)cc1-c1cc(NCCO)c2nc(N)ncc2c1

>  <Name>  (110) 
nan

>  <Pocket>  (110) 
nan

>  <ATP_Site>  (110) 
nan

>  <Peripheral>  (110) 
nan

>  <Num_H_Atoms_ProtBoundConf>  (110) 
nan

>  <Num_Resolved_Atoms>  (110) 
nan

>  <Num_Not_Resolved_Atoms>  (110) 
nan

$$$$
CHEMBL5082939
     RDKit          3D

  0  0  0  0  0  0  0  0  0  0999 V3000
M  V30 BEGIN CTAB
M  V30 COUNTS 60 64 0 0 0
M  V30 BEGIN ATOM
M  V30 1 C -0.728690 -3.633493 4.542781 0
M  V30 2 C -0.378530 -2.226276 4.189375 0
M  V30 3 C 0.125728 -1.352028 5.130041 0
M  V30 4 C 0.445903 -0.050740 4.785568 0
M  V30 5 C 0.263747 0.390072 3.490872 0
M  V30 6 N 0.564989 1.714190 3.041120 0
M  V30 7 C 1.833903 2.093467 2.523087 0
M  V30 8 O 2.797253 1.292659 2.418096 0
M  V30 9 C 2.093484 3.458301 2.076261 0
M  V30 10 C 3.341488 3.775353 1.581417 0
M  V30 11 N 3.638974 5.036082 1.149634 0
M  V30 12 N 2.748707 6.008062 1.185357 0
M  V30 13 C 1.523657 5.761847 1.653885 0
M  V30 14 C 0.511542 6.856185 1.697330 0
M  V30 15 F -0.769066 6.329715 1.827877 0
M  V30 16 F 0.852534 7.657023 2.770019 0
M  V30 17 F 0.561302 7.520681 0.490151 0
M  V30 18 C 1.181241 4.492973 2.102620 0
M  V30 19 C -0.243037 -0.533677 2.602477 0
M  V30 20 C -0.582755 -1.844449 2.879755 0
M  V30 21 C -1.109407 -2.686991 1.811896 0
M  V30 22 C -2.188153 -3.542725 1.830855 0
M  V30 23 C -2.519919 -4.255995 0.697876 0
M  V30 24 C -1.802410 -4.145039 -0.474192 0
M  V30 25 C -0.721485 -3.288329 -0.495145 0
M  V30 26 C -0.374134 -2.566472 0.628040 0
M  V30 27 O 0.088955 -3.078080 -1.604113 0
M  V30 28 C -0.247241 -3.173257 -2.983283 0
M  V30 29 C 0.919868 -2.599376 -3.769258 0
M  V30 30 C 1.177658 -1.222777 -3.187463 0
M  V30 31 O 0.059704 -0.414474 -3.238445 0
M  V30 32 C -1.011278 -0.985835 -3.923654 0
M  V30 33 C -1.442104 -2.318008 -3.320092 0
M  V30 34 C -0.495882 -4.617456 -3.329501 0
M  V30 35 C -1.872188 -4.993931 -2.873520 0
M  V30 36 O -2.757781 -5.368892 -3.691162 0
M  V30 37 N -2.326302 -4.973088 -1.508608 0
M  V30 38 H -1.746961 -3.619466 4.986745 0
M  V30 39 H -0.004948 -3.956387 5.346866 0
M  V30 40 H -0.618127 -4.338717 3.705252 0
M  V30 41 H 0.261650 -1.714998 6.139073 0
M  V30 42 H 0.840961 0.644484 5.509488 0
M  V30 43 H -0.225464 2.390976 3.122066 0
M  V30 44 H 4.142820 3.045421 1.510871 0
M  V30 45 H 0.197874 4.279472 2.482903 0
M  V30 46 H -0.391134 -0.188931 1.567132 0
M  V30 47 H -2.695743 -3.571548 2.784354 0
M  V30 48 H -3.381104 -4.915232 0.773571 0
M  V30 49 H 0.490715 -1.923440 0.504005 0
M  V30 50 H 0.707323 -2.563856 -4.848791 0
M  V30 51 H 1.841974 -3.200107 -3.593368 0
M  V30 52 H 1.364885 -1.406732 -2.089031 0
M  V30 53 H 2.102558 -0.759557 -3.586830 0
M  V30 54 H -1.868293 -0.294533 -3.779739 0
M  V30 55 H -0.804029 -1.143836 -4.992495 0
M  V30 56 H -2.062990 -2.825939 -4.086425 0
M  V30 57 H -2.097168 -2.134526 -2.441098 0
M  V30 58 H 0.253437 -5.243562 -2.793736 0
M  V30 59 H -0.404792 -4.800983 -4.416938 0
M  V30 60 H -3.107043 -5.618189 -1.246961 0
M  V30 END ATOM
M  V30 BEGIN BOND
M  V30 1 1 1 2
M  V30 2 2 2 3
M  V30 3 1 3 4
M  V30 4 2 4 5
M  V30 5 1 5 6
M  V30 6 1 6 7
M  V30 7 2 7 8
M  V30 8 1 7 9
M  V30 9 2 9 10
M  V30 10 1 10 11
M  V30 11 2 11 12
M  V30 12 1 12 13
M  V30 13 1 13 14
M  V30 14 1 14 15
M  V30 15 1 14 16
M  V30 16 1 14 17
M  V30 17 2 13 18
M  V30 18 1 5 19
M  V30 19 2 19 20
M  V30 20 1 20 21
M  V30 21 2 21 22
M  V30 22 1 22 23
M  V30 23 2 23 24
M  V30 24 1 24 25
M  V30 25 2 25 26
M  V30 26 1 25 27
M  V30 27 1 27 28
M  V30 28 1 28 29
M  V30 29 1 29 30
M  V30 30 1 30 31
M  V30 31 1 31 32
M  V30 32 1 32 33
M  V30 33 1 28 34
M  V30 34 1 34 35
M  V30 35 2 35 36
M  V30 36 1 35 37
M  V30 37 1 20 2
M  V30 38 1 26 21
M  V30 39 1 33 28
M  V30 40 1 18 9
M  V30 41 1 37 24
M  V30 42 1 1 38
M  V30 43 1 1 39
M  V30 44 1 1 40
M  V30 45 1 3 41
M  V30 46 1 4 42
M  V30 47 1 6 43
M  V30 48 1 10 44
M  V30 49 1 18 45
M  V30 50 1 19 46
M  V30 51 1 22 47
M  V30 52 1 23 48
M  V30 53 1 26 49
M  V30 54 1 29 50
M  V30 55 1 29 51
M  V30 56 1 30 52
M  V30 57 1 30 53
M  V30 58 1 32 54
M  V30 59 1 32 55
M  V30 60 1 33 56
M  V30 61 1 33 57
M  V30 62 1 34 58
M  V30 63 1 34 59
M  V30 64 1 37 60
M  V30 END BOND
M  V30 END CTAB
M  END
>  <Dataset>  (111) 
ChEMBL_Kinases

>  <Ligand_Instance>  (111) 
nan

>  <PDB_ID>  (111) 
nan

>  <Standardized_SMILES>  (111) 
Cc1ccc(NC(=O)c2cnnc(C(F)(F)F)c2)cc1-c1ccc2c(c1)OC1(CCOCC1)CC(=O)N2

>  <Name>  (111) 
nan

>  <Pocket>  (111) 
nan

>  <ATP_Site>  (111) 
nan

>  <Peripheral>  (111) 
nan

>  <Num_H_Atoms_ProtBoundConf>  (111) 
nan

>  <Num_Resolved_Atoms>  (111) 
nan

>  <Num_Not_Resolved_Atoms>  (111) 
nan

$$$$
CHEMBL508294
     RDKit          3D

  0  0  0  0  0  0  0  0  0  0999 V3000
M  V30 BEGIN CTAB
M  V30 COUNTS 50 55 0 0 0
M  V30 BEGIN ATOM
M  V30 1 O 4.314287 1.584795 2.254981 0
M  V30 2 C 3.774918 0.487190 2.025320 0
M  V30 3 N 4.368670 -0.827670 2.012513 0
M  V30 4 C 3.367154 -1.781151 1.700249 0
M  V30 5 O 3.724625 -2.947841 1.653048 0
M  V30 6 C 2.109092 -1.124380 1.503231 0
M  V30 7 C 2.380067 0.207257 1.700748 0
M  V30 8 C 1.361402 1.152573 1.584731 0
M  V30 9 C 1.597598 2.579150 1.784882 0
M  V30 10 C 1.950456 3.289019 0.654424 0
M  V30 11 Cl 2.105537 2.527642 -0.922037 0
M  V30 12 C 2.191951 4.659682 0.770727 0
M  V30 13 C 2.061138 5.224870 2.022995 0
M  V30 14 C 1.706058 4.480797 3.130662 0
M  V30 15 C 1.464282 3.132235 3.038058 0
M  V30 16 Cl 1.011636 2.124143 4.390185 0
M  V30 17 C 0.081803 0.746426 1.271234 0
M  V30 18 C -0.163705 -0.594382 1.078140 0
M  V30 19 C 0.854393 -1.514379 1.196706 0
M  V30 20 C 0.345028 -2.736726 0.960320 0
M  V30 21 C 0.753607 -4.028155 0.911890 0
M  V30 22 C -0.060262 -5.101472 0.627773 0
M  V30 23 O 0.364285 -6.426965 0.579161 0
M  V30 24 C -1.418466 -4.883661 0.363357 0
M  V30 25 C -1.862256 -3.579110 0.405686 0
M  V30 26 C -0.990477 -2.551345 0.697259 0
M  V30 27 N -1.331389 -1.230209 0.764103 0
M  V30 28 C -2.585185 -0.573477 0.565403 0
M  V30 29 C -2.833462 -0.141484 -0.846189 0
M  V30 30 N -2.827530 -1.256993 -1.768556 0
M  V30 31 C -3.791209 -2.080754 -2.215290 0
M  V30 32 C -3.260490 -2.979611 -3.090247 0
M  V30 33 N -1.939418 -2.680818 -3.166139 0
M  V30 34 C -1.662880 -1.624546 -2.358416 0
M  V30 35 H 5.407213 -0.919255 2.222592 0
M  V30 36 H 2.466621 5.191814 -0.129803 0
M  V30 37 H 2.243766 6.277435 2.127062 0
M  V30 38 H 1.611543 4.962182 4.108921 0
M  V30 39 H -0.696306 1.467276 1.182484 0
M  V30 40 H 1.744371 -4.321083 1.090796 0
M  V30 41 H 1.305504 -6.713926 0.802779 0
M  V30 42 H -2.110588 -5.680730 0.133841 0
M  V30 43 H -2.909886 -3.418312 0.201129 0
M  V30 44 H -2.731244 0.279764 1.254802 0
M  V30 45 H -3.425277 -1.286294 0.814747 0
M  V30 46 H -3.834342 0.325822 -0.949283 0
M  V30 47 H -2.119631 0.656702 -1.173697 0
M  V30 48 H -4.819439 -1.984482 -1.883686 0
M  V30 49 H -3.747698 -3.764655 -3.621584 0
M  V30 50 H -0.644340 -1.244344 -2.292744 0
M  V30 END ATOM
M  V30 BEGIN BOND
M  V30 1 2 1 2
M  V30 2 1 2 3
M  V30 3 1 3 4
M  V30 4 2 4 5
M  V30 5 1 4 6
M  V30 6 2 6 7
M  V30 7 1 7 8
M  V30 8 1 8 9
M  V30 9 2 9 10
M  V30 10 1 10 11
M  V30 11 1 10 12
M  V30 12 2 12 13
M  V30 13 1 13 14
M  V30 14 2 14 15
M  V30 15 1 15 16
M  V30 16 2 8 17
M  V30 17 1 17 18
M  V30 18 2 18 19
M  V30 19 1 19 20
M  V30 20 2 20 21
M  V30 21 1 21 22
M  V30 22 1 22 23
M  V30 23 2 22 24
M  V30 24 1 24 25
M  V30 25 2 25 26
M  V30 26 1 26 27
M  V30 27 1 27 28
M  V30 28 1 28 29
M  V30 29 1 29 30
M  V30 30 1 30 31
M  V30 31 2 31 32
M  V30 32 1 32 33
M  V30 33 2 33 34
M  V30 34 1 7 2
M  V30 35 1 15 9
M  V30 36 1 27 18
M  V30 37 1 34 30
M  V30 38 1 19 6
M  V30 39 1 26 20
M  V30 40 1 3 35
M  V30 41 1 12 36
M  V30 42 1 13 37
M  V30 43 1 14 38
M  V30 44 1 17 39
M  V30 45 1 21 40
M  V30 46 1 23 41
M  V30 47 1 24 42
M  V30 48 1 25 43
M  V30 49 1 28 44
M  V30 50 1 28 45
M  V30 51 1 29 46
M  V30 52 1 29 47
M  V30 53 1 31 48
M  V30 54 1 32 49
M  V30 55 1 34 50
M  V30 END BOND
M  V30 END CTAB
M  END
>  <Dataset>  (112) 
ChEMBL_Kinases

>  <Ligand_Instance>  (112) 
nan

>  <PDB_ID>  (112) 
nan

>  <Standardized_SMILES>  (112) 
O=C1NC(=O)c2c1c(-c1c(Cl)cccc1Cl)cc1c2c2cc(O)ccc2n1CCn1ccnc1

>  <Name>  (112) 
nan

>  <Pocket>  (112) 
nan

>  <ATP_Site>  (112) 
nan

>  <Peripheral>  (112) 
nan

>  <Num_H_Atoms_ProtBoundConf>  (112) 
nan

>  <Num_Resolved_Atoms>  (112) 
nan

>  <Num_Not_Resolved_Atoms>  (112) 
nan

$$$$
CHEMBL5082952
     RDKit          3D

  0  0  0  0  0  0  0  0  0  0999 V3000
M  V30 BEGIN CTAB
M  V30 COUNTS 129 131 0 0 0
M  V30 BEGIN ATOM
M  V30 1 C 7.629243 -0.947190 2.068760 0
M  V30 2 O 6.275463 -1.258365 1.894106 0
M  V30 3 C 5.711260 -2.117846 0.977501 0
M  V30 4 O 6.947283 -2.131607 0.793113 0
M  V30 5 C 4.245644 -2.297354 0.970030 0 CFG=2
M  V30 6 C 3.672072 -2.071850 -0.379154 0
M  V30 7 C 4.135858 -2.960480 -1.466797 0
M  V30 8 C 5.586149 -2.955113 -1.789902 0
M  V30 9 C 3.760652 -4.430545 -1.198388 0
M  V30 10 N 3.669747 -1.448323 1.980126 0
M  V30 11 C 3.076670 -2.214828 3.006762 0
M  V30 12 O 2.661761 -3.134833 3.730623 0
M  V30 13 C 2.405858 -1.461296 4.125180 0 CFG=2
M  V30 14 C 3.548674 -0.824591 4.860422 0
M  V30 15 C 3.347918 -1.272806 6.258917 0
M  V30 16 C 1.955699 -1.744067 6.358027 0 CFG=1
M  V30 17 O 1.112887 -0.812536 6.598832 0
M  V30 18 C 0.327224 0.082334 6.916919 0
M  V30 19 C -0.501927 0.709101 5.736459 0
M  V30 20 N 0.387866 1.365996 4.805460 0
M  V30 21 C 0.049914 2.011681 3.565825 0
M  V30 22 O -1.065240 1.585934 3.931715 0
M  V30 23 C 1.123224 2.685185 2.762414 0
M  V30 24 C 0.649414 3.388874 1.588399 0
M  V30 25 C 0.423474 2.571308 0.283902 0 CFG=2
M  V30 26 N -0.297560 3.518143 -0.618461 0
M  V30 27 C -0.786602 4.642125 -1.268954 0
M  V30 28 O -0.189107 5.530309 -0.570977 0
M  V30 29 C -1.703514 4.611263 -2.388256 0
M  V30 30 C -1.231665 3.761276 -3.403371 0
M  V30 31 C -1.895803 3.503893 -4.578081 0
M  V30 32 O -1.381609 2.654593 -5.552779 0
M  V30 33 C -0.135605 2.003232 -5.389382 0
M  V30 34 C 0.231377 1.149208 -6.572675 0
M  V30 35 C 0.331280 1.987497 -7.838751 0
M  V30 36 C 1.651110 0.640824 -6.299862 0
M  V30 37 C -3.101161 4.157619 -4.700041 0
M  V30 38 C -3.595398 4.997123 -3.726071 0
M  V30 39 O -4.817477 5.606450 -3.942724 0
M  V30 40 C -5.483169 6.475766 -3.064177 0
M  V30 41 C -6.779247 6.861443 -3.788339 0
M  V30 42 C -7.544058 7.786758 -2.897201 0
M  V30 43 C -7.620000 5.627790 -4.051134 0
M  V30 44 C -2.908108 5.234003 -2.565980 0
M  V30 45 C -0.371692 1.428491 0.485691 0
M  V30 46 O -1.581513 1.675387 0.160896 0
M  V30 47 N -0.864359 0.183399 0.774647 0
M  V30 48 C -1.790948 -0.901946 0.981047 0 CFG=1
M  V30 49 C -2.194889 -1.524286 -0.368558 0
M  V30 50 O -2.808662 -0.569310 -1.170312 0
M  V30 51 C -1.264075 -1.921064 1.872290 0
M  V30 52 O -2.220181 -2.654818 2.210836 0
M  V30 53 N -0.169710 -2.514901 2.555983 0
M  V30 54 C -0.147370 -3.620846 3.549252 0 CFG=1
M  V30 55 C 0.042388 -4.958070 2.948232 0 CFG=1
M  V30 56 C 1.074060 -5.131995 1.904564 0
M  V30 57 O 0.066773 -5.957836 3.950171 0
M  V30 58 P -1.331393 -6.934752 3.790786 0
M  V30 59 O -2.474124 -6.416795 4.625865 0
M  V30 60 O -0.915330 -8.484585 4.307785 0
M  V30 61 O -1.725835 -6.955252 2.150238 0
M  V30 62 C 0.633468 -3.223868 4.687465 0
M  V30 63 O 0.553639 -3.759622 5.779048 0
M  V30 64 N 1.627010 -2.268583 4.974074 0
M  V30 65 H 7.733571 -0.212933 2.933082 0
M  V30 66 H 8.246944 -1.818882 2.430064 0
M  V30 67 H 8.084339 -0.424813 1.209580 0
M  V30 68 H 4.077476 -3.386434 1.199739 0
M  V30 69 H 2.551593 -2.176573 -0.330870 0
M  V30 70 H 3.870775 -1.003476 -0.681865 0
M  V30 71 H 3.587936 -2.731875 -2.430066 0
M  V30 72 H 6.059825 -1.968878 -1.769459 0
M  V30 73 H 5.696290 -3.296033 -2.866109 0
M  V30 74 H 6.154803 -3.753884 -1.233260 0
M  V30 75 H 2.699020 -4.465408 -0.887178 0
M  V30 76 H 3.974065 -5.067744 -2.067770 0
M  V30 77 H 4.337146 -4.818370 -0.339383 0
M  V30 78 H 3.635898 -0.416494 2.044561 0
M  V30 79 H 1.734531 -0.683980 3.682140 0
M  V30 80 H 4.509788 -1.236490 4.460838 0
M  V30 81 H 3.516913 0.284850 4.738036 0
M  V30 82 H 4.067836 -2.072019 6.493743 0
M  V30 83 H 3.564357 -0.387554 6.913116 0
M  V30 84 H 1.967268 -2.640179 7.046772 0
M  V30 85 H -0.464518 -0.250171 7.677609 0
M  V30 86 H 0.741605 1.004151 7.475870 0
M  V30 87 H -1.057849 -0.134388 5.291480 0
M  V30 88 H -1.231400 1.397372 6.187943 0
M  V30 89 H 1.394783 1.371525 5.060303 0
M  V30 90 H 1.591320 3.430870 3.465444 0
M  V30 91 H 1.959924 1.958123 2.579851 0
M  V30 92 H -0.364808 3.836553 1.800657 0
M  V30 93 H 1.307651 4.232587 1.244049 0
M  V30 94 H 1.473615 2.451319 -0.130088 0
M  V30 95 H -0.758862 2.723007 -1.206558 0
M  V30 96 H -0.268496 3.220506 -3.336319 0
M  V30 97 H 0.638977 2.818458 -5.310344 0
M  V30 98 H -0.085078 1.447279 -4.437454 0
M  V30 99 H -0.411727 0.287781 -6.742677 0
M  V30 100 H 0.495050 1.313548 -8.697658 0
M  V30 101 H 1.197107 2.681927 -7.824874 0
M  V30 102 H -0.584753 2.617487 -7.984856 0
M  V30 103 H 2.296802 1.532583 -6.488118 0
M  V30 104 H 1.702275 0.436175 -5.201067 0
M  V30 105 H 1.937424 -0.187225 -6.942705 0
M  V30 106 H -3.691858 4.012025 -5.597960 0
M  V30 107 H -4.863720 7.343523 -2.858322 0
M  V30 108 H -5.819354 5.897015 -2.180480 0
M  V30 109 H -6.570332 7.298823 -4.795159 0
M  V30 110 H -6.859492 8.279251 -2.179746 0
M  V30 111 H -8.324363 7.243588 -2.296224 0
M  V30 112 H -8.015624 8.577040 -3.517686 0
M  V30 113 H -7.177890 4.990652 -4.851862 0
M  V30 114 H -8.625759 5.929162 -4.403876 0
M  V30 115 H -7.774320 5.042663 -3.114984 0
M  V30 116 H -3.196044 5.859371 -1.749579 0
M  V30 117 H 0.141588 -0.055462 0.934226 0
M  V30 118 H -2.732328 -0.475860 1.348875 0
M  V30 119 H -2.896602 -2.342815 -0.213053 0
M  V30 120 H -1.299784 -1.875533 -0.921903 0
M  V30 121 H -3.716049 -0.321288 -0.836077 0
M  V30 122 H 0.410980 -1.843270 2.039081 0
M  V30 123 H -1.222313 -3.680401 3.948277 0
M  V30 124 H -0.945876 -5.195756 2.416534 0
M  V30 125 H 0.758530 -5.882961 1.152847 0
M  V30 126 H 2.010940 -5.491321 2.374794 0
M  V30 127 H 1.198716 -4.170873 1.362776 0
M  V30 128 H -0.685794 -9.051004 3.523968 0
M  V30 129 H -2.646766 -6.649881 1.958303 0
M  V30 END ATOM
M  V30 BEGIN BOND
M  V30 1 1 1 2
M  V30 2 1 2 3
M  V30 3 2 3 4
M  V30 4 1 3 5
M  V30 5 1 5 6
M  V30 6 1 6 7
M  V30 7 1 7 8
M  V30 8 1 7 9
M  V30 9 1 5 10
M  V30 10 1 10 11
M  V30 11 2 11 12
M  V30 12 1 11 13
M  V30 13 1 13 14
M  V30 14 1 14 15
M  V30 15 1 15 16
M  V30 16 1 16 17
M  V30 17 1 17 18
M  V30 18 1 18 19
M  V30 19 1 19 20
M  V30 20 1 20 21
M  V30 21 2 21 22
M  V30 22 1 21 23
M  V30 23 1 23 24
M  V30 24 1 24 25
M  V30 25 1 25 26
M  V30 26 1 26 27
M  V30 27 2 27 28
M  V30 28 1 27 29
M  V30 29 2 29 30
M  V30 30 1 30 31
M  V30 31 1 31 32
M  V30 32 1 32 33
M  V30 33 1 33 34
M  V30 34 1 34 35
M  V30 35 1 34 36
M  V30 36 2 31 37
M  V30 37 1 37 38
M  V30 38 1 38 39
M  V30 39 1 39 40
M  V30 40 1 40 41
M  V30 41 1 41 42
M  V30 42 1 41 43
M  V30 43 2 38 44
M  V30 44 1 25 45
M  V30 45 2 45 46
M  V30 46 1 45 47
M  V30 47 1 47 48
M  V30 48 1 48 49
M  V30 49 1 49 50
M  V30 50 1 48 51
M  V30 51 2 51 52
M  V30 52 1 51 53
M  V30 53 1 53 54
M  V30 54 1 54 55
M  V30 55 1 55 56
M  V30 56 1 55 57
M  V30 57 1 57 58
M  V30 58 2 58 59
M  V30 59 1 58 60
M  V30 60 1 58 61
M  V30 61 1 54 62
M  V30 62 2 62 63
M  V30 63 1 62 64
M  V30 64 1 64 13
M  V30 65 1 64 16
M  V30 66 1 44 29
M  V30 67 1 1 65
M  V30 68 1 1 66
M  V30 69 1 1 67
M  V30 70 1 5 68 CFG=1
M  V30 71 1 6 69
M  V30 72 1 6 70
M  V30 73 1 7 71
M  V30 74 1 8 72
M  V30 75 1 8 73
M  V30 76 1 8 74
M  V30 77 1 9 75
M  V30 78 1 9 76
M  V30 79 1 9 77
M  V30 80 1 10 78
M  V30 81 1 13 79 CFG=3
M  V30 82 1 14 80
M  V30 83 1 14 81
M  V30 84 1 15 82
M  V30 85 1 15 83
M  V30 86 1 16 84 CFG=1
M  V30 87 1 18 85
M  V30 88 1 18 86
M  V30 89 1 19 87
M  V30 90 1 19 88
M  V30 91 1 20 89
M  V30 92 1 23 90
M  V30 93 1 23 91
M  V30 94 1 24 92
M  V30 95 1 24 93
M  V30 96 1 25 94 CFG=3
M  V30 97 1 26 95
M  V30 98 1 30 96
M  V30 99 1 33 97
M  V30 100 1 33 98
M  V30 101 1 34 99
M  V30 102 1 35 100
M  V30 103 1 35 101
M  V30 104 1 35 102
M  V30 105 1 36 103
M  V30 106 1 36 104
M  V30 107 1 36 105
M  V30 108 1 37 106
M  V30 109 1 40 107
M  V30 110 1 40 108
M  V30 111 1 41 109
M  V30 112 1 42 110
M  V30 113 1 42 111
M  V30 114 1 42 112
M  V30 115 1 43 113
M  V30 116 1 43 114
M  V30 117 1 43 115
M  V30 118 1 44 116
M  V30 119 1 47 117
M  V30 120 1 48 118 CFG=1
M  V30 121 1 49 119
M  V30 122 1 49 120
M  V30 123 1 50 121
M  V30 124 1 53 122
M  V30 125 1 54 123 CFG=1
M  V30 126 1 55 124 CFG=3
M  V30 127 1 56 125
M  V30 128 1 56 126
M  V30 129 1 56 127
M  V30 130 1 60 128
M  V30 131 1 61 129
M  V30 END BOND
M  V30 END CTAB
M  END
>  <Dataset>  (113) 
ChEMBL_Kinases

>  <Ligand_Instance>  (113) 
nan

>  <PDB_ID>  (113) 
nan

>  <Standardized_SMILES>  (113) 
COC(=O)[C@H](CC(C)C)NC(=O)[C@@H]1CC[C@H]2OCCNC(=O)CC[C@H](NC(=O)c3cc(OCC(C)C)cc(OCC(C)C)c3)C(=O)N[C@@H](CO)C(=O)N[C@@H]([C@@H](C)OP(=O)(O)O)C(=O)N21

>  <Name>  (113) 
nan

>  <Pocket>  (113) 
nan

>  <ATP_Site>  (113) 
nan

>  <Peripheral>  (113) 
nan

>  <Num_H_Atoms_ProtBoundConf>  (113) 
nan

>  <Num_Resolved_Atoms>  (113) 
nan

>  <Num_Not_Resolved_Atoms>  (113) 
nan

$$$$
CHEMBL5082978
     RDKit          3D

  0  0  0  0  0  0  0  0  0  0999 V3000
M  V30 BEGIN CTAB
M  V30 COUNTS 67 70 0 0 0
M  V30 BEGIN ATOM
M  V30 1 C -2.055302 8.586335 -3.174920 0
M  V30 2 O -1.091039 8.187616 -2.207507 0
M  V30 3 C -1.352041 7.213533 -1.276893 0
M  V30 4 O -2.415267 6.542673 -1.118507 0
M  V30 5 C -0.435657 6.708803 -0.220927 0 CFG=1
M  V30 6 N -1.065190 5.670584 0.569348 0
M  V30 7 C 0.731584 6.050884 -0.959652 0
M  V30 8 C 0.088583 4.944577 -1.788560 0
M  V30 9 C 1.224172 4.256828 -2.545430 0
M  V30 10 C 0.730645 3.150011 -3.407161 0
M  V30 11 N 0.052180 2.076305 -2.781288 0
M  V30 12 C 0.711761 1.274695 -1.778899 0
M  V30 13 O 1.896104 1.691530 -1.599241 0
M  V30 14 C 0.080296 0.148874 -1.086166 0
M  V30 15 C -1.216013 -0.263768 -1.313590 0
M  V30 16 C -1.726268 -1.336917 -0.614391 0
M  V30 17 C -0.906668 -1.963108 0.297899 0
M  V30 18 C 0.390003 -1.552229 0.526799 0
M  V30 19 C 0.909331 -0.478507 -0.168801 0
M  V30 20 C 1.343496 -2.152832 1.476579 0
M  V30 21 O 2.333794 -1.421504 1.758851 0
M  V30 22 C 1.216892 -3.487384 2.085053 0
M  V30 23 C 2.227658 -3.670138 3.009699 0
M  V30 24 C 2.265822 -4.869649 3.679966 0
M  V30 25 C 1.314093 -5.831768 3.413617 0
M  V30 26 N 1.399900 -7.054658 4.134723 0
M  V30 27 C 0.571295 -8.202856 4.051890 0
M  V30 28 C -0.113187 -8.623970 5.180995 0
M  V30 29 C -0.926614 -9.735344 5.134579 0
M  V30 30 C -1.056368 -10.437766 3.934024 0
M  V30 31 F -1.843597 -11.539827 3.828438 0
M  V30 32 C -0.369835 -10.015050 2.801774 0
M  V30 33 C 0.448451 -8.896475 2.849674 0
M  V30 34 F 1.101266 -8.516672 1.729486 0
M  V30 35 C 0.316517 -5.655794 2.503604 0
M  V30 36 C 0.262244 -4.458063 1.820849 0
M  V30 37 C -0.861916 -4.368170 0.851551 0
M  V30 38 C -1.630450 -3.079398 0.937588 0
M  V30 39 H -3.068467 8.216081 -2.885715 0
M  V30 40 H -2.068064 9.679766 -3.306093 0
M  V30 41 H -1.805878 8.133814 -4.169493 0
M  V30 42 H -0.083944 7.564826 0.392301 0
M  V30 43 H -0.342640 5.320774 1.245269 0
M  V30 44 H -1.905894 6.057015 1.066870 0
M  V30 45 H 1.263624 6.767633 -1.617886 0
M  V30 46 H 1.483041 5.645220 -0.259240 0
M  V30 47 H -0.394712 4.190332 -1.173394 0
M  V30 48 H -0.559406 5.385375 -2.568731 0
M  V30 49 H 1.607546 5.038592 -3.244413 0
M  V30 50 H 2.065048 4.009564 -1.888516 0
M  V30 51 H 1.578019 2.846569 -4.059226 0
M  V30 52 H 0.014849 3.639282 -4.132814 0
M  V30 53 H -0.954062 1.822166 -3.021595 0
M  V30 54 H -1.814412 0.263756 -2.039990 0
M  V30 55 H -2.752942 -1.610638 -0.840673 0
M  V30 56 H 1.921273 -0.228625 0.071422 0
M  V30 57 H 2.977843 -2.891748 3.208302 0
M  V30 58 H 3.041334 -5.061793 4.417111 0
M  V30 59 H 2.126160 -7.245222 4.843222 0
M  V30 60 H -0.038662 -8.110372 6.123159 0
M  V30 61 H -1.508732 -10.150679 5.961007 0
M  V30 62 H -0.480294 -10.574279 1.865337 0
M  V30 63 H -0.443326 -6.372267 2.265822 0
M  V30 64 H -0.479321 -4.427821 -0.202352 0
M  V30 65 H -1.518292 -5.238467 1.022078 0
M  V30 66 H -1.771444 -2.830653 2.002769 0
M  V30 67 H -2.628156 -3.229819 0.495185 0
M  V30 END ATOM
M  V30 BEGIN BOND
M  V30 1 1 1 2
M  V30 2 1 2 3
M  V30 3 2 3 4
M  V30 4 1 3 5
M  V30 5 1 5 6
M  V30 6 1 5 7
M  V30 7 1 7 8
M  V30 8 1 8 9
M  V30 9 1 9 10
M  V30 10 1 10 11
M  V30 11 1 11 12
M  V30 12 2 12 13
M  V30 13 1 12 14
M  V30 14 2 14 15
M  V30 15 1 15 16
M  V30 16 2 16 17
M  V30 17 1 17 18
M  V30 18 2 18 19
M  V30 19 1 18 20
M  V30 20 2 20 21
M  V30 21 1 20 22
M  V30 22 2 22 23
M  V30 23 1 23 24
M  V30 24 2 24 25
M  V30 25 1 25 26
M  V30 26 1 26 27
M  V30 27 2 27 28
M  V30 28 1 28 29
M  V30 29 2 29 30
M  V30 30 1 30 31
M  V30 31 1 30 32
M  V30 32 2 32 33
M  V30 33 1 33 34
M  V30 34 1 25 35
M  V30 35 2 35 36
M  V30 36 1 36 37
M  V30 37 1 37 38
M  V30 38 1 19 14
M  V30 39 1 36 22
M  V30 40 1 38 17
M  V30 41 1 33 27
M  V30 42 1 1 39
M  V30 43 1 1 40
M  V30 44 1 1 41
M  V30 45 1 5 42 CFG=1
M  V30 46 1 6 43
M  V30 47 1 6 44
M  V30 48 1 7 45
M  V30 49 1 7 46
M  V30 50 1 8 47
M  V30 51 1 8 48
M  V30 52 1 9 49
M  V30 53 1 9 50
M  V30 54 1 10 51
M  V30 55 1 10 52
M  V30 56 1 11 53
M  V30 57 1 15 54
M  V30 58 1 16 55
M  V30 59 1 19 56
M  V30 60 1 23 57
M  V30 61 1 24 58
M  V30 62 1 26 59
M  V30 63 1 28 60
M  V30 64 1 29 61
M  V30 65 1 32 62
M  V30 66 1 35 63
M  V30 67 1 37 64
M  V30 68 1 37 65
M  V30 69 1 38 66
M  V30 70 1 38 67
M  V30 END BOND
M  V30 END CTAB
M  END
>  <Dataset>  (114) 
ChEMBL_Kinases

>  <Ligand_Instance>  (114) 
nan

>  <PDB_ID>  (114) 
nan

>  <Standardized_SMILES>  (114) 
COC(=O)[C@@H](N)CCCCNC(=O)c1ccc2c(c1)C(=O)c1ccc(Nc3ccc(F)cc3F)cc1CC2

>  <Name>  (114) 
nan

>  <Pocket>  (114) 
nan

>  <ATP_Site>  (114) 
nan

>  <Peripheral>  (114) 
nan

>  <Num_H_Atoms_ProtBoundConf>  (114) 
nan

>  <Num_Resolved_Atoms>  (114) 
nan

>  <Num_Not_Resolved_Atoms>  (114) 
nan

$$$$
CHEMBL5083012
     RDKit          3D

  0  0  0  0  0  0  0  0  0  0999 V3000
M  V30 BEGIN CTAB
M  V30 COUNTS 61 64 0 0 0
M  V30 BEGIN ATOM
M  V30 1 N 4.764016 1.188421 4.123496 0
M  V30 2 C 5.386140 2.413965 3.709500 0
M  V30 3 C 6.771147 2.362358 3.886729 0
M  V30 4 C 7.559657 3.446828 3.550153 0
M  V30 5 C 6.958633 4.592596 3.032023 0
M  V30 6 C 5.584778 4.623511 2.864132 0
M  V30 7 C 4.803015 3.549398 3.197318 0
M  V30 8 N 3.392848 3.475782 3.069797 0
M  V30 9 C 2.630750 2.564638 2.289431 0
M  V30 10 C 3.290208 1.656970 1.488368 0
M  V30 11 C 2.556908 0.769210 0.731229 0
M  V30 12 C 1.165686 0.843688 0.822509 0
M  V30 13 C 0.529066 1.765463 1.635376 0
M  V30 14 C 1.263762 2.663625 2.401565 0
M  V30 15 C -0.940245 1.918361 1.796160 0
M  V30 16 C -1.510613 0.569562 2.242449 0
M  V30 17 C -1.770104 -0.325418 1.068295 0
M  V30 18 C -3.033024 -0.873265 0.991417 0
M  V30 19 C -3.375497 -1.710476 -0.048656 0
M  V30 20 C -2.443284 -2.002243 -1.022195 0
M  V30 21 C -2.715931 -2.878322 -2.160222 0
M  V30 22 O -1.863790 -3.154347 -3.060376 0
M  V30 23 N -3.971366 -3.513494 -2.374456 0
M  V30 24 C -4.286201 -4.381018 -3.475130 0 CFG=1
M  V30 25 C -4.577440 -5.755133 -2.895458 0
M  V30 26 C -3.384002 -6.299729 -2.142619 0
M  V30 27 C -3.653966 -7.653843 -1.564417 0
M  V30 28 O -4.707482 -8.337366 -1.639384 0
M  V30 29 O -2.553731 -8.177979 -0.858807 0
M  V30 30 C -5.438954 -3.956843 -4.285049 0
M  V30 31 O -5.847465 -4.617347 -5.297216 0
M  V30 32 O -6.200979 -2.821560 -4.055756 0
M  V30 33 C -1.159524 -1.463630 -0.971225 0
M  V30 34 C -0.850910 -0.633090 0.078628 0
M  V30 35 C 0.547403 -0.167341 -0.044352 0
M  V30 36 O 1.282736 -0.656993 -0.949495 0
M  V30 37 H 4.657861 0.228771 3.733161 0
M  V30 38 H 4.232609 0.942154 4.968865 0
M  V30 39 H 7.327502 1.508110 4.285401 0
M  V30 40 H 8.650327 3.417586 3.685207 0
M  V30 41 H 7.591041 5.435480 2.772425 0
M  V30 42 H 5.092057 5.495475 2.465891 0
M  V30 43 H 2.990753 4.223270 3.660907 0
M  V30 44 H 4.350863 1.571577 1.391348 0
M  V30 45 H 3.020737 0.043013 0.091386 0
M  V30 46 H 0.755152 3.363679 3.019541 0
M  V30 47 H -1.340434 2.147954 0.793354 0
M  V30 48 H -1.157135 2.657660 2.569835 0
M  V30 49 H -2.433567 0.678535 2.821585 0
M  V30 50 H -0.746805 0.144685 2.927791 0
M  V30 51 H -3.733725 -0.618158 1.775796 0
M  V30 52 H -4.356187 -2.136296 -0.109072 0
M  V30 53 H -4.748781 -3.357176 -1.694796 0
M  V30 54 H -3.440646 -4.525361 -4.177606 0
M  V30 55 H -5.432960 -5.742948 -2.189478 0
M  V30 56 H -4.845976 -6.473079 -3.691141 0
M  V30 57 H -2.510417 -6.349422 -2.856732 0
M  V30 58 H -3.062285 -5.605699 -1.345631 0
M  V30 59 H -2.476739 -9.190474 -0.711019 0
M  V30 60 H -7.205162 -2.879131 -4.178137 0
M  V30 61 H -0.408144 -1.665758 -1.707212 0
M  V30 END ATOM
M  V30 BEGIN BOND
M  V30 1 1 1 2
M  V30 2 2 2 3
M  V30 3 1 3 4
M  V30 4 2 4 5
M  V30 5 1 5 6
M  V30 6 2 6 7
M  V30 7 1 7 8
M  V30 8 1 8 9
M  V30 9 2 9 10
M  V30 10 1 10 11
M  V30 11 2 11 12
M  V30 12 1 12 13
M  V30 13 2 13 14
M  V30 14 1 13 15
M  V30 15 1 15 16
M  V30 16 1 16 17
M  V30 17 2 17 18
M  V30 18 1 18 19
M  V30 19 2 19 20
M  V30 20 1 20 21
M  V30 21 2 21 22
M  V30 22 1 21 23
M  V30 23 1 23 24
M  V30 24 1 24 25
M  V30 25 1 25 26
M  V30 26 1 26 27
M  V30 27 2 27 28
M  V30 28 1 27 29
M  V30 29 1 24 30
M  V30 30 2 30 31
M  V30 31 1 30 32
M  V30 32 1 20 33
M  V30 33 2 33 34
M  V30 34 1 34 35
M  V30 35 2 35 36
M  V30 36 1 7 2
M  V30 37 1 14 9
M  V30 38 1 34 17
M  V30 39 1 35 12
M  V30 40 1 1 37
M  V30 41 1 1 38
M  V30 42 1 3 39
M  V30 43 1 4 40
M  V30 44 1 5 41
M  V30 45 1 6 42
M  V30 46 1 8 43
M  V30 47 1 10 44
M  V30 48 1 11 45
M  V30 49 1 14 46
M  V30 50 1 15 47
M  V30 51 1 15 48
M  V30 52 1 16 49
M  V30 53 1 16 50
M  V30 54 1 18 51
M  V30 55 1 19 52
M  V30 56 1 23 53
M  V30 57 1 24 54 CFG=3
M  V30 58 1 25 55
M  V30 59 1 25 56
M  V30 60 1 26 57
M  V30 61 1 26 58
M  V30 62 1 29 59
M  V30 63 1 32 60
M  V30 64 1 33 61
M  V30 END BOND
M  V30 END CTAB
M  END
>  <Dataset>  (115) 
ChEMBL_Kinases

>  <Ligand_Instance>  (115) 
nan

>  <PDB_ID>  (115) 
nan

>  <Standardized_SMILES>  (115) 
Nc1ccccc1Nc1ccc2c(c1)CCc1ccc(C(=O)N[C@@H](CCC(=O)O)C(=O)O)cc1C2=O

>  <Name>  (115) 
nan

>  <Pocket>  (115) 
nan

>  <ATP_Site>  (115) 
nan

>  <Peripheral>  (115) 
nan

>  <Num_H_Atoms_ProtBoundConf>  (115) 
nan

>  <Num_Resolved_Atoms>  (115) 
nan

>  <Num_Not_Resolved_Atoms>  (115) 
nan

$$$$
CHEMBL5082732
     RDKit          3D

  0  0  0  0  0  0  0  0  0  0999 V3000
M  V30 BEGIN CTAB
M  V30 COUNTS 79 83 0 0 0
M  V30 BEGIN ATOM
M  V30 1 C 0.179961 -3.023881 3.352620 0
M  V30 2 C 1.512359 -2.387489 3.226978 0
M  V30 3 C 2.584216 -3.082765 3.756397 0
M  V30 4 C 3.859531 -2.523507 3.663121 0
M  V30 5 C 4.012778 -1.302960 3.050413 0
M  V30 6 C 5.423770 -0.839338 3.028482 0
M  V30 7 C 5.962409 -0.693007 4.444953 0
M  V30 8 C 6.323850 -1.838054 2.327790 0
M  V30 9 C 2.934945 -0.619436 2.526202 0
M  V30 10 C 1.655016 -1.162236 2.610116 0
M  V30 11 O 0.573385 -0.470668 2.081281 0
M  V30 12 C -0.223029 -0.999795 1.073098 0
M  V30 13 N -0.074677 -2.218830 0.473106 0
M  V30 14 C -0.918806 -2.616751 -0.498177 0
M  V30 15 C -1.936947 -1.747886 -0.863142 0
M  V30 16 C -2.106971 -0.494146 -0.261096 0
M  V30 17 C -3.215267 0.278368 -0.760324 0
M  V30 18 C -4.493949 -0.202047 -0.624296 0
M  V30 19 C -5.108041 -1.382446 -0.066433 0
M  V30 20 C -5.846506 -2.261467 -0.811078 0
M  V30 21 C -6.425752 -3.393562 -0.235398 0
M  V30 22 C -6.265891 -3.653602 1.105807 0
M  V30 23 C -6.866999 -4.846477 1.751212 0
M  V30 24 F -6.101471 -5.157659 2.847219 0
M  V30 25 F -8.140918 -4.480486 2.148013 0
M  V30 26 F -6.920021 -5.872851 0.844614 0
M  V30 27 C -5.516156 -2.746387 1.823105 0
M  V30 28 C -4.921227 -1.606737 1.292176 0
M  V30 29 N -5.307478 0.742519 -1.186113 0
M  V30 30 C -4.515486 1.725061 -1.625595 0
M  V30 31 N -3.194537 1.472864 -1.377933 0
M  V30 32 C -2.076325 2.282004 -1.697508 0 CFG=1
M  V30 33 C -1.503916 3.096530 -0.564786 0
M  V30 34 C -0.139013 3.445178 -1.148220 0
M  V30 35 N 0.230771 2.251060 -1.820022 0
M  V30 36 C 1.320248 2.385036 -2.745307 0
M  V30 37 C 1.568563 1.020408 -3.353888 0
M  V30 38 N 2.645834 1.030833 -4.304382 0
M  V30 39 C 2.797216 -0.316635 -4.823056 0
M  V30 40 C 3.899884 1.395442 -3.671541 0
M  V30 41 C -0.931474 1.617451 -2.385306 0
M  V30 42 N -1.218572 -0.155387 0.713149 0
M  V30 43 H 0.131257 -3.454451 4.396353 0
M  V30 44 H 0.158865 -3.906008 2.694465 0
M  V30 45 H -0.646823 -2.308280 3.212359 0
M  V30 46 H 2.438777 -4.035519 4.230776 0
M  V30 47 H 4.661038 -3.113694 4.095509 0
M  V30 48 H 5.560659 0.133191 2.542172 0
M  V30 49 H 6.431683 -1.628336 4.813693 0
M  V30 50 H 5.131474 -0.435579 5.122570 0
M  V30 51 H 6.715417 0.118022 4.503957 0
M  V30 52 H 5.901920 -2.083616 1.315011 0
M  V30 53 H 7.318235 -1.394653 2.122222 0
M  V30 54 H 6.474702 -2.734714 2.942976 0
M  V30 55 H 3.137415 0.335536 2.059632 0
M  V30 56 H -0.785262 -3.576293 -0.955645 0
M  V30 57 H -2.589609 -2.103233 -1.642540 0
M  V30 58 H -5.992909 -2.090615 -1.863212 0
M  V30 59 H -7.000860 -4.063855 -0.852983 0
M  V30 60 H -5.406610 -2.982405 2.893658 0
M  V30 61 H -4.344487 -0.951688 1.955626 0
M  V30 62 H -4.857098 2.638835 -2.129925 0
M  V30 63 H -2.431737 3.074854 -2.423617 0
M  V30 64 H -2.061530 4.063188 -0.428074 0
M  V30 65 H -1.472168 2.612892 0.402129 0
M  V30 66 H -0.270592 4.273597 -1.844764 0
M  V30 67 H 0.565801 3.653337 -0.317489 0
M  V30 68 H 1.090733 3.077512 -3.589114 0
M  V30 69 H 2.219665 2.694441 -2.180124 0
M  V30 70 H 0.692141 0.594504 -3.838781 0
M  V30 71 H 1.884965 0.293406 -2.552430 0
M  V30 72 H 2.015121 -0.619128 -5.529575 0
M  V30 73 H 2.794557 -0.997894 -3.922608 0
M  V30 74 H 3.817262 -0.460325 -5.264822 0
M  V30 75 H 3.940730 0.933946 -2.672261 0
M  V30 76 H 4.020940 2.499200 -3.622368 0
M  V30 77 H 4.744782 0.948081 -4.255882 0
M  V30 78 H -0.874595 1.849037 -3.490502 0
M  V30 79 H -0.908717 0.524164 -2.338841 0
M  V30 END ATOM
M  V30 BEGIN BOND
M  V30 1 1 1 2
M  V30 2 2 2 3
M  V30 3 1 3 4
M  V30 4 2 4 5
M  V30 5 1 5 6
M  V30 6 1 6 7
M  V30 7 1 6 8
M  V30 8 1 5 9
M  V30 9 2 9 10
M  V30 10 1 10 11
M  V30 11 1 11 12
M  V30 12 2 12 13
M  V30 13 1 13 14
M  V30 14 2 14 15
M  V30 15 1 15 16
M  V30 16 1 16 17
M  V30 17 2 17 18
M  V30 18 1 18 19
M  V30 19 2 19 20
M  V30 20 1 20 21
M  V30 21 2 21 22
M  V30 22 1 22 23
M  V30 23 1 23 24
M  V30 24 1 23 25
M  V30 25 1 23 26
M  V30 26 1 22 27
M  V30 27 2 27 28
M  V30 28 1 18 29
M  V30 29 2 29 30
M  V30 30 1 30 31
M  V30 31 1 31 32
M  V30 32 1 32 33
M  V30 33 1 33 34
M  V30 34 1 34 35
M  V30 35 1 35 36
M  V30 36 1 36 37
M  V30 37 1 37 38
M  V30 38 1 38 39
M  V30 39 1 38 40
M  V30 40 1 35 41
M  V30 41 2 16 42
M  V30 42 1 10 2
M  V30 43 1 42 12
M  V30 44 1 31 17
M  V30 45 1 41 32
M  V30 46 1 28 19
M  V30 47 1 1 43
M  V30 48 1 1 44
M  V30 49 1 1 45
M  V30 50 1 3 46
M  V30 51 1 4 47
M  V30 52 1 6 48
M  V30 53 1 7 49
M  V30 54 1 7 50
M  V30 55 1 7 51
M  V30 56 1 8 52
M  V30 57 1 8 53
M  V30 58 1 8 54
M  V30 59 1 9 55
M  V30 60 1 14 56
M  V30 61 1 15 57
M  V30 62 1 20 58
M  V30 63 1 21 59
M  V30 64 1 27 60
M  V30 65 1 28 61
M  V30 66 1 30 62
M  V30 67 1 32 63 CFG=3
M  V30 68 1 33 64
M  V30 69 1 33 65
M  V30 70 1 34 66
M  V30 71 1 34 67
M  V30 72 1 36 68
M  V30 73 1 36 69
M  V30 74 1 37 70
M  V30 75 1 37 71
M  V30 76 1 39 72
M  V30 77 1 39 73
M  V30 78 1 39 74
M  V30 79 1 40 75
M  V30 80 1 40 76
M  V30 81 1 40 77
M  V30 82 1 41 78
M  V30 83 1 41 79
M  V30 END BOND
M  V30 END CTAB
M  END
>  <Dataset>  (116) 
ChEMBL_Kinases

>  <Ligand_Instance>  (116) 
nan

>  <PDB_ID>  (116) 
nan

>  <Standardized_SMILES>  (116) 
Cc1ccc(C(C)C)cc1Oc1nccc(-c2c(-c3ccc(C(F)(F)F)cc3)ncn2[C@H]2CCN(CCN(C)C)C2)n1

>  <Name>  (116) 
nan

>  <Pocket>  (116) 
nan

>  <ATP_Site>  (116) 
nan

>  <Peripheral>  (116) 
nan

>  <Num_H_Atoms_ProtBoundConf>  (116) 
nan

>  <Num_Resolved_Atoms>  (116) 
nan

>  <Num_Not_Resolved_Atoms>  (116) 
nan

$$$$
CHEMBL5081453
     RDKit          3D

  0  0  0  0  0  0  0  0  0  0999 V3000
M  V30 BEGIN CTAB
M  V30 COUNTS 63 67 0 0 0
M  V30 BEGIN ATOM
M  V30 1 C 3.998615 0.392407 3.937322 0
M  V30 2 N 4.885848 1.030166 2.986825 0
M  V30 3 C 6.257246 0.843582 3.455399 0
M  V30 4 C 4.685752 1.736541 1.785553 0
M  V30 5 O 5.817074 2.116670 1.315121 0
M  V30 6 C 3.590423 2.154703 0.936321 0
M  V30 7 C 3.917257 2.912417 -0.164637 0
M  V30 8 N 5.234345 3.313522 -0.514909 0
M  V30 9 C 2.930898 3.362249 -1.053629 0
M  V30 10 C 1.618401 3.034387 -0.810711 0
M  V30 11 C 1.222868 2.279532 0.271984 0
M  V30 12 C -0.172624 1.928324 0.532693 0
M  V30 13 C -0.972219 2.748104 1.302585 0
M  V30 14 N -2.260246 2.386435 1.520942 0
M  V30 15 C -2.772626 1.252515 1.006477 0
M  V30 16 C -2.042105 0.358822 0.215258 0
M  V30 17 C -0.739633 0.775860 0.025481 0
M  V30 18 Cl 0.311737 -0.226021 -0.943112 0
M  V30 19 C -2.904093 -0.755617 -0.168028 0 CFG=1
M  V30 20 C -3.498501 -0.643377 -1.553373 0
M  V30 21 C -4.171910 -2.006136 -1.690600 0
M  V30 22 C -3.314606 -2.962133 -0.889927 0 CFG=2
M  V30 23 C -2.740538 -3.955277 -1.853550 0
M  V30 24 C -1.419658 -4.526468 -1.476500 0
M  V30 25 C -1.295987 -5.132077 -0.135966 0
M  V30 26 C -2.518550 -5.802063 0.411321 0
M  V30 27 N -3.583869 -4.897172 0.777421 0
M  V30 28 C -4.129641 -3.761096 0.070592 0
M  V30 29 O -5.352821 -3.588309 0.403775 0
M  V30 30 C -2.272069 -2.107077 -0.206750 0
M  V30 31 C -4.057573 -0.664300 0.801856 0
M  V30 32 N -4.093893 0.744158 1.145780 0
M  V30 33 C 2.253136 1.880789 1.090898 0
M  V30 34 F 1.862850 1.143115 2.135687 0
M  V30 35 H 4.528350 0.064710 4.876289 0
M  V30 36 H 3.422984 -0.456839 3.519127 0
M  V30 37 H 3.227459 1.110633 4.350479 0
M  V30 38 H 6.412906 1.191430 4.477468 0
M  V30 39 H 6.996684 1.330696 2.822090 0
M  V30 40 H 6.432501 -0.257946 3.462033 0
M  V30 41 H 5.916791 2.828812 -1.142694 0
M  V30 42 H 5.656224 2.611691 -1.162154 0
M  V30 43 H 3.181862 3.956656 -1.918318 0
M  V30 44 H 0.882109 3.395616 -1.513329 0
M  V30 45 H -0.611470 3.668865 1.739143 0
M  V30 46 H -4.229365 0.190082 -1.634668 0
M  V30 47 H -2.660374 -0.565395 -2.271343 0
M  V30 48 H -4.145230 -2.227464 -2.796349 0
M  V30 49 H -5.223669 -1.996642 -1.359913 0
M  V30 50 H -3.452583 -4.786111 -2.005404 0
M  V30 51 H -2.620514 -3.484147 -2.848692 0
M  V30 52 H -1.194167 -5.301804 -2.266964 0
M  V30 53 H -0.584736 -3.794458 -1.604665 0
M  V30 54 H -0.527648 -5.958022 -0.216340 0
M  V30 55 H -0.857160 -4.470198 0.655924 0
M  V30 56 H -2.863092 -6.608701 -0.269790 0
M  V30 57 H -2.199777 -6.325352 1.336891 0
M  V30 58 H -4.058341 -5.076139 1.713578 0
M  V30 59 H -2.067354 -2.407022 0.835156 0
M  V30 60 H -1.414853 -2.078653 -0.879654 0
M  V30 61 H -5.037512 -0.860610 0.319942 0
M  V30 62 H -3.901833 -1.308031 1.686258 0
M  V30 63 H -4.936948 1.314601 1.448596 0
M  V30 END ATOM
M  V30 BEGIN BOND
M  V30 1 1 1 2
M  V30 2 1 2 3
M  V30 3 1 2 4
M  V30 4 2 4 5
M  V30 5 1 4 6
M  V30 6 2 6 7
M  V30 7 1 7 8
M  V30 8 1 7 9
M  V30 9 2 9 10
M  V30 10 1 10 11
M  V30 11 1 11 12
M  V30 12 2 12 13
M  V30 13 1 13 14
M  V30 14 2 14 15
M  V30 15 1 15 16
M  V30 16 2 16 17
M  V30 17 1 17 18
M  V30 18 1 16 19
M  V30 19 1 19 20 CFG=3
M  V30 20 1 20 21
M  V30 21 1 22 21 CFG=3
M  V30 22 1 22 23
M  V30 23 1 23 24
M  V30 24 1 24 25
M  V30 25 1 25 26
M  V30 26 1 26 27
M  V30 27 1 27 28
M  V30 28 2 28 29
M  V30 29 1 22 30
M  V30 30 1 19 31
M  V30 31 1 31 32
M  V30 32 2 11 33
M  V30 33 1 33 34
M  V30 34 1 33 6
M  V30 35 1 17 12
M  V30 36 1 30 19
M  V30 37 1 32 15
M  V30 38 1 28 22
M  V30 39 1 1 35
M  V30 40 1 1 36
M  V30 41 1 1 37
M  V30 42 1 3 38
M  V30 43 1 3 39
M  V30 44 1 3 40
M  V30 45 1 8 41
M  V30 46 1 8 42
M  V30 47 1 9 43
M  V30 48 1 10 44
M  V30 49 1 13 45
M  V30 50 1 20 46
M  V30 51 1 20 47
M  V30 52 1 21 48
M  V30 53 1 21 49
M  V30 54 1 23 50
M  V30 55 1 23 51
M  V30 56 1 24 52
M  V30 57 1 24 53
M  V30 58 1 25 54
M  V30 59 1 25 55
M  V30 60 1 26 56
M  V30 61 1 26 57
M  V30 62 1 27 58
M  V30 63 1 30 59
M  V30 64 1 30 60
M  V30 65 1 31 61
M  V30 66 1 31 62
M  V30 67 1 32 63
M  V30 END BOND
M  V30 END CTAB
M  END
>  <Dataset>  (117) 
ChEMBL_Kinases

>  <Ligand_Instance>  (117) 
nan

>  <PDB_ID>  (117) 
nan

>  <Standardized_SMILES>  (117) 
CN(C)C(=O)c1c(N)ccc(-c2cnc3c(c2Cl)[C@]2(CC[C@@]4(CCCCNC4=O)C2)CN3)c1F

>  <Name>  (117) 
nan

>  <Pocket>  (117) 
nan

>  <ATP_Site>  (117) 
nan

>  <Peripheral>  (117) 
nan

>  <Num_H_Atoms_ProtBoundConf>  (117) 
nan

>  <Num_Resolved_Atoms>  (117) 
nan

>  <Num_Not_Resolved_Atoms>  (117) 
nan

$$$$
CHEMBL59004
     RDKit          3D

  0  0  0  0  0  0  0  0  0  0999 V3000
M  V30 BEGIN CTAB
M  V30 COUNTS 40 45 0 0 0
M  V30 BEGIN ATOM
M  V30 1 C 1.864609 -3.349604 0.130745 0
M  V30 2 N 1.398706 -2.379240 1.111999 0
M  V30 3 C 1.553683 -2.434115 2.465404 0
M  V30 4 C 2.168204 -3.380928 3.259268 0
M  V30 5 C 2.217980 -3.246670 4.646169 0
M  V30 6 C 1.608360 -2.102943 5.140574 0
M  V30 7 C 0.983861 -1.134247 4.374633 0
M  V30 8 C 0.961778 -1.313804 3.007014 0
M  V30 9 C 0.428309 -0.543252 1.995573 0
M  V30 10 C -0.257902 0.653210 1.981644 0
M  V30 11 C -0.669818 1.181595 0.782919 0
M  V30 12 C -0.399268 0.524928 -0.371366 0
M  V30 13 C -0.701913 0.848367 -1.658569 0
M  V30 14 C -1.323058 1.817638 -2.384565 0
M  V30 15 C -1.468162 1.852963 -3.752751 0
M  V30 16 C -0.925562 0.788575 -4.483882 0
M  V30 17 C -0.284343 -0.221999 -3.796981 0
M  V30 18 C -0.183545 -0.178165 -2.417724 0
M  V30 19 N 0.408940 -1.085487 -1.617174 0
M  V30 20 C 0.285499 -0.667966 -0.350872 0
M  V30 21 C 0.715320 -1.229848 0.833966 0
M  V30 22 C -1.337175 2.399609 1.110460 0
M  V30 23 O -1.906057 3.290912 0.468044 0
M  V30 24 N -1.332286 2.614250 2.509885 0
M  V30 25 C -0.633814 1.496269 3.151045 0
M  V30 26 H 0.999988 -3.808584 -0.378595 0
M  V30 27 H 2.616562 -2.905853 -0.540334 0
M  V30 28 H 2.340935 -4.186543 0.706591 0
M  V30 29 H 2.632228 -4.260892 2.824049 0
M  V30 30 H 2.686325 -3.958430 5.312864 0
M  V30 31 H 1.631898 -1.970828 6.226625 0
M  V30 32 H 0.532773 -0.273648 4.830137 0
M  V30 33 H -1.756354 2.652857 -1.893311 0
M  V30 34 H -1.969251 2.643498 -4.284509 0
M  V30 35 H -1.020963 0.783473 -5.561093 0
M  V30 36 H 0.132560 -1.040535 -4.363168 0
M  V30 37 H 0.881374 -1.954915 -1.894313 0
M  V30 38 H -1.693073 3.347099 3.152880 0
M  V30 39 H 0.294151 1.918553 3.573875 0
M  V30 40 H -1.278019 0.966255 3.858672 0
M  V30 END ATOM
M  V30 BEGIN BOND
M  V30 1 1 1 2
M  V30 2 1 2 3
M  V30 3 2 3 4
M  V30 4 1 4 5
M  V30 5 2 5 6
M  V30 6 1 6 7
M  V30 7 2 7 8
M  V30 8 1 8 9
M  V30 9 2 9 10
M  V30 10 1 10 11
M  V30 11 2 11 12
M  V30 12 1 12 13
M  V30 13 2 13 14
M  V30 14 1 14 15
M  V30 15 2 15 16
M  V30 16 1 16 17
M  V30 17 2 17 18
M  V30 18 1 18 19
M  V30 19 1 19 20
M  V30 20 2 20 21
M  V30 21 1 11 22
M  V30 22 2 22 23
M  V30 23 1 22 24
M  V30 24 1 24 25
M  V30 25 1 21 2
M  V30 26 1 8 3
M  V30 27 1 21 9
M  V30 28 1 25 10
M  V30 29 1 20 12
M  V30 30 1 18 13
M  V30 31 1 1 26
M  V30 32 1 1 27
M  V30 33 1 1 28
M  V30 34 1 4 29
M  V30 35 1 5 30
M  V30 36 1 6 31
M  V30 37 1 7 32
M  V30 38 1 14 33
M  V30 39 1 15 34
M  V30 40 1 16 35
M  V30 41 1 17 36
M  V30 42 1 19 37
M  V30 43 1 24 38
M  V30 44 1 25 39
M  V30 45 1 25 40
M  V30 END BOND
M  V30 END CTAB
M  END
>  <Dataset>  (118) 
ChEMBL_Kinases

>  <Ligand_Instance>  (118) 
nan

>  <PDB_ID>  (118) 
nan

>  <Standardized_SMILES>  (118) 
Cn1c2ccccc2c2c3c(c4c5ccccc5[nH]c4c21)C(=O)NC3

>  <Name>  (118) 
nan

>  <Pocket>  (118) 
nan

>  <ATP_Site>  (118) 
nan

>  <Peripheral>  (118) 
nan

>  <Num_H_Atoms_ProtBoundConf>  (118) 
nan

>  <Num_Resolved_Atoms>  (118) 
nan

>  <Num_Not_Resolved_Atoms>  (118) 
nan

$$$$
CHEMBL5081523
     RDKit          3D

  0  0  0  0  0  0  0  0  0  0999 V3000
M  V30 BEGIN CTAB
M  V30 COUNTS 78 81 0 0 0
M  V30 BEGIN ATOM
M  V30 1 C 3.303091 -2.334621 0.193990 0
M  V30 2 C 3.602957 -2.442718 -1.278070 0
M  V30 3 C 3.968433 -1.070121 -1.844543 0
M  V30 4 N 2.840576 -0.159220 -1.637189 0
M  V30 5 C 2.942037 1.203568 -2.095505 0
M  V30 6 O 4.060704 1.349598 -2.622792 0
M  V30 7 C 1.828920 2.119088 -1.894023 0 CFG=2
M  V30 8 C 2.224096 3.466038 -1.258679 0
M  V30 9 C 3.175239 4.214578 -2.103636 0
M  V30 10 C 3.630561 5.567998 -1.629889 0
M  V30 11 C 4.326539 5.524370 -0.312014 0
M  V30 12 C 3.580364 6.047664 0.838901 0
M  V30 13 C 2.134561 6.345643 0.661199 0
M  V30 14 C 1.812998 7.041299 -0.618861 0
M  V30 15 C 2.652695 6.654674 -1.779836 0
M  V30 16 N 0.657251 1.574325 -1.302205 0
M  V30 17 C -0.619814 1.154586 -0.993074 0
M  V30 18 O -1.244913 1.590119 -2.050477 0
M  V30 19 C -1.187010 0.446757 0.132329 0
M  V30 20 C -0.486140 -0.053840 1.208363 0
M  V30 21 C -1.207701 -0.717550 2.191205 0
M  V30 22 C -2.581508 -0.898021 2.140664 0
M  V30 23 C -3.315989 -1.636266 3.205259 0
M  V30 24 N -3.434117 -3.046102 2.809482 0
M  V30 25 C -2.416790 -4.034481 2.848959 0
M  V30 26 O -1.265508 -3.740045 3.254511 0
M  V30 27 C -2.691763 -5.419140 2.411483 0
M  V30 28 C -3.874098 -5.933669 1.958332 0
M  V30 29 C -3.686322 -7.284573 1.637634 0
M  V30 30 C -4.649316 -8.253195 1.104000 0
M  V30 31 C -5.955239 -7.855747 0.870064 0
M  V30 32 C -6.865355 -8.792003 0.351966 0
M  V30 33 C -6.380255 -10.076172 0.104757 0
M  V30 34 C -5.090562 -10.454359 0.338004 0
M  V30 35 C -4.169975 -9.538692 0.853865 0
M  V30 36 N -2.366402 -7.506750 1.925613 0
M  V30 37 N -1.792040 -6.411630 2.378802 0
M  V30 38 C -3.216255 -0.368679 1.030406 0
M  V30 39 C -2.548595 0.313640 0.002623 0
M  V30 40 H 2.202648 -2.351309 0.306289 0
M  V30 41 H 3.753252 -1.388964 0.568132 0
M  V30 42 H 3.730179 -3.235037 0.682428 0
M  V30 43 H 4.407292 -3.154860 -1.533566 0
M  V30 44 H 2.704755 -2.747830 -1.883908 0
M  V30 45 H 4.040841 -1.222441 -2.935656 0
M  V30 46 H 4.860367 -0.648798 -1.376928 0
M  V30 47 H 1.966059 -0.522153 -1.148231 0
M  V30 48 H 1.570924 2.484536 -2.969803 0
M  V30 49 H 2.696314 3.196243 -0.269894 0
M  V30 50 H 1.287782 3.954358 -1.017822 0
M  V30 51 H 4.086231 3.621851 -2.302809 0
M  V30 52 H 2.673701 4.321032 -3.110855 0
M  V30 53 H 4.477299 5.818324 -2.371276 0
M  V30 54 H 4.505394 4.411991 -0.108920 0
M  V30 55 H 5.385912 5.904184 -0.368024 0
M  V30 56 H 3.645373 5.299596 1.691736 0
M  V30 57 H 4.146578 6.937135 1.261098 0
M  V30 58 H 1.860487 7.043605 1.505958 0
M  V30 59 H 1.465012 5.470756 0.846694 0
M  V30 60 H 1.789530 8.160945 -0.424734 0
M  V30 61 H 0.745040 6.808288 -0.881895 0
M  V30 62 H 2.013109 6.472580 -2.710697 0
M  V30 63 H 3.188566 7.601351 -2.099023 0
M  V30 64 H 1.226374 1.268154 -0.422238 0
M  V30 65 H 0.579768 0.113376 1.199410 0
M  V30 66 H -0.617201 -1.087929 3.021396 0
M  V30 67 H -4.346947 -1.233670 3.224692 0
M  V30 68 H -2.780254 -1.552215 4.177422 0
M  V30 69 H -4.361364 -3.413410 2.453261 0
M  V30 70 H -4.798109 -5.421966 1.852497 0
M  V30 71 H -6.311115 -6.839733 1.064279 0
M  V30 72 H -7.870750 -8.501573 0.166362 0
M  V30 73 H -7.046859 -10.841534 -0.297587 0
M  V30 74 H -4.688600 -11.436273 0.155255 0
M  V30 75 H -3.143176 -9.816933 1.052082 0
M  V30 76 H -0.781609 -6.392235 2.650817 0
M  V30 77 H -4.281946 -0.512644 0.979077 0
M  V30 78 H -3.141362 0.696382 -0.834721 0
M  V30 END ATOM
M  V30 BEGIN BOND
M  V30 1 1 1 2
M  V30 2 1 2 3
M  V30 3 1 3 4
M  V30 4 1 4 5
M  V30 5 2 5 6
M  V30 6 1 5 7
M  V30 7 1 7 8
M  V30 8 1 8 9
M  V30 9 1 9 10
M  V30 10 1 10 11
M  V30 11 1 11 12
M  V30 12 1 12 13
M  V30 13 1 13 14
M  V30 14 1 14 15
M  V30 15 1 7 16
M  V30 16 1 16 17
M  V30 17 2 17 18
M  V30 18 1 17 19
M  V30 19 2 19 20
M  V30 20 1 20 21
M  V30 21 2 21 22
M  V30 22 1 22 23
M  V30 23 1 23 24
M  V30 24 1 24 25
M  V30 25 2 25 26
M  V30 26 1 25 27
M  V30 27 2 27 28
M  V30 28 1 28 29
M  V30 29 1 29 30
M  V30 30 2 30 31
M  V30 31 1 31 32
M  V30 32 2 32 33
M  V30 33 1 33 34
M  V30 34 2 34 35
M  V30 35 2 29 36
M  V30 36 1 36 37
M  V30 37 1 22 38
M  V30 38 2 38 39
M  V30 39 1 15 10
M  V30 40 1 39 19
M  V30 41 1 37 27
M  V30 42 1 35 30
M  V30 43 1 1 40
M  V30 44 1 1 41
M  V30 45 1 1 42
M  V30 46 1 2 43
M  V30 47 1 2 44
M  V30 48 1 3 45
M  V30 49 1 3 46
M  V30 50 1 4 47
M  V30 51 1 7 48 CFG=3
M  V30 52 1 8 49
M  V30 53 1 8 50
M  V30 54 1 9 51
M  V30 55 1 9 52
M  V30 56 1 10 53
M  V30 57 1 11 54
M  V30 58 1 11 55
M  V30 59 1 12 56
M  V30 60 1 12 57
M  V30 61 1 13 58
M  V30 62 1 13 59
M  V30 63 1 14 60
M  V30 64 1 14 61
M  V30 65 1 15 62
M  V30 66 1 15 63
M  V30 67 1 16 64
M  V30 68 1 20 65
M  V30 69 1 21 66
M  V30 70 1 23 67
M  V30 71 1 23 68
M  V30 72 1 24 69
M  V30 73 1 28 70
M  V30 74 1 31 71
M  V30 75 1 32 72
M  V30 76 1 33 73
M  V30 77 1 34 74
M  V30 78 1 35 75
M  V30 79 1 37 76
M  V30 80 1 38 77
M  V30 81 1 39 78
M  V30 END BOND
M  V30 END CTAB
M  END
>  <Dataset>  (119) 
ChEMBL_Kinases

>  <Ligand_Instance>  (119) 
nan

>  <PDB_ID>  (119) 
nan

>  <Standardized_SMILES>  (119) 
CCCNC(=O)[C@H](CCC1CCCCC1)NC(=O)c1ccc(CNC(=O)c2cc(-c3ccccc3)n[nH]2)cc1

>  <Name>  (119) 
nan

>  <Pocket>  (119) 
nan

>  <ATP_Site>  (119) 
nan

>  <Peripheral>  (119) 
nan

>  <Num_H_Atoms_ProtBoundConf>  (119) 
nan

>  <Num_Resolved_Atoms>  (119) 
nan

>  <Num_Not_Resolved_Atoms>  (119) 
nan

$$$$
CHEMBL5081583
     RDKit          3D

  0  0  0  0  0  0  0  0  0  0999 V3000
M  V30 BEGIN CTAB
M  V30 COUNTS 27 29 0 0 0
M  V30 BEGIN ATOM
M  V30 1 N -2.761353 -2.875627 3.140504 0
M  V30 2 C -2.013446 -2.477153 2.023965 0
M  V30 3 C -1.111288 -1.421981 2.109851 0
M  V30 4 C -0.412645 -1.086284 0.975804 0
M  V30 5 C 0.567168 -0.005884 0.905463 0
M  V30 6 C 0.897469 0.797225 1.976141 0
M  V30 7 C 1.821025 1.819701 1.920105 0
M  V30 8 N 2.454321 2.070943 0.759896 0
M  V30 9 N 3.366237 2.943868 0.363758 0
M  V30 10 C 3.683798 2.784266 -0.930114 0
M  V30 11 C 2.894961 1.715251 -1.370158 0
M  V30 12 C 2.141129 1.294636 -0.292218 0
M  V30 13 N 1.240184 0.298869 -0.233366 0
M  V30 14 C -0.636839 -1.803991 -0.181395 0
M  V30 15 C -1.533712 -2.851392 -0.262824 0
M  V30 16 N -1.733998 -3.565847 -1.479399 0
M  V30 17 N -2.212531 -3.166459 0.866748 0
M  V30 18 H -2.216141 -3.655850 3.555129 0
M  V30 19 H -3.611463 -2.722973 3.714732 0
M  V30 20 H -0.947832 -0.878391 3.004221 0
M  V30 21 H 0.415262 0.633955 2.929441 0
M  V30 22 H 2.037028 2.409452 2.781251 0
M  V30 23 H 4.388007 3.335149 -1.543218 0
M  V30 24 H 2.916631 1.331935 -2.387036 0
M  V30 25 H -0.116432 -1.581015 -1.093665 0
M  V30 26 H -2.356682 -2.968324 -2.098285 0
M  V30 27 H -1.313197 -4.518443 -1.677098 0
M  V30 END ATOM
M  V30 BEGIN BOND
M  V30 1 1 1 2
M  V30 2 2 2 3
M  V30 3 1 3 4
M  V30 4 1 4 5
M  V30 5 1 5 6
M  V30 6 2 6 7
M  V30 7 1 7 8
M  V30 8 1 8 9
M  V30 9 2 9 10
M  V30 10 1 10 11
M  V30 11 2 11 12
M  V30 12 1 12 13
M  V30 13 2 4 14
M  V30 14 1 14 15
M  V30 15 1 15 16
M  V30 16 2 15 17
M  V30 17 1 17 2
M  V30 18 2 13 5
M  V30 19 1 12 8
M  V30 20 1 1 18
M  V30 21 1 1 19
M  V30 22 1 3 20
M  V30 23 1 6 21
M  V30 24 1 7 22
M  V30 25 1 10 23
M  V30 26 1 11 24
M  V30 27 1 14 25
M  V30 28 1 16 26
M  V30 29 1 16 27
M  V30 END BOND
M  V30 END CTAB
M  END
>  <Dataset>  (120) 
ChEMBL_Kinases

>  <Ligand_Instance>  (120) 
nan

>  <PDB_ID>  (120) 
nan

>  <Standardized_SMILES>  (120) 
Nc1cc(-c2ccn3nccc3n2)cc(N)n1

>  <Name>  (120) 
nan

>  <Pocket>  (120) 
nan

>  <ATP_Site>  (120) 
nan

>  <Peripheral>  (120) 
nan

>  <Num_H_Atoms_ProtBoundConf>  (120) 
nan

>  <Num_Resolved_Atoms>  (120) 
nan

>  <Num_Not_Resolved_Atoms>  (120) 
nan

$$$$
CHEMBL590
     RDKit          3D

  0  0  0  0  0  0  0  0  0  0999 V3000
M  V30 BEGIN CTAB
M  V30 COUNTS 21 22 0 0 0
M  V30 BEGIN ATOM
M  V30 1 C 1.123057 2.105856 3.396235 0
M  V30 2 C 0.962833 1.058912 2.351797 0
M  V30 3 C 1.386149 -0.171504 2.629557 0
M  V30 4 C 1.276893 -1.276410 1.674561 0
M  V30 5 O 1.677484 -2.446218 1.934026 0
M  V30 6 C 0.673215 -1.006128 0.356711 0
M  V30 7 C 0.553817 -2.021686 -0.567765 0
M  V30 8 C -0.013248 -1.768339 -1.806032 0
M  V30 9 C -0.438403 -0.462198 -2.041289 0
M  V30 10 C -0.310888 0.535846 -1.107711 0
M  V30 11 C 0.256729 0.282370 0.131827 0
M  V30 12 C 0.357163 1.385954 1.064287 0
M  V30 13 O -0.047042 2.547510 0.790804 0
M  V30 14 H 1.263441 1.628733 4.392213 0
M  V30 15 H 2.030101 2.714794 3.152277 0
M  V30 16 H 0.235934 2.755943 3.426522 0
M  V30 17 H 1.830968 -0.360769 3.606751 0
M  V30 18 H 0.903999 -3.030252 -0.332233 0
M  V30 19 H -0.129446 -2.517406 -2.557147 0
M  V30 20 H -0.888257 -0.210094 -2.991870 0
M  V30 21 H -0.656659 1.540249 -1.334965 0
M  V30 END ATOM
M  V30 BEGIN BOND
M  V30 1 1 1 2
M  V30 2 2 2 3
M  V30 3 1 3 4
M  V30 4 2 4 5
M  V30 5 1 4 6
M  V30 6 2 6 7
M  V30 7 1 7 8
M  V30 8 2 8 9
M  V30 9 1 9 10
M  V30 10 2 10 11
M  V30 11 1 11 12
M  V30 12 2 12 13
M  V30 13 1 12 2
M  V30 14 1 11 6
M  V30 15 1 1 14
M  V30 16 1 1 15
M  V30 17 1 1 16
M  V30 18 1 3 17
M  V30 19 1 7 18
M  V30 20 1 8 19
M  V30 21 1 9 20
M  V30 22 1 10 21
M  V30 END BOND
M  V30 END CTAB
M  END
>  <Dataset>  (121) 
ChEMBL_Kinases

>  <Ligand_Instance>  (121) 
nan

>  <PDB_ID>  (121) 
nan

>  <Standardized_SMILES>  (121) 
CC1=CC(=O)c2ccccc2C1=O

>  <Name>  (121) 
MENADIONE

>  <Pocket>  (121) 
nan

>  <ATP_Site>  (121) 
nan

>  <Peripheral>  (121) 
nan

>  <Num_H_Atoms_ProtBoundConf>  (121) 
nan

>  <Num_Resolved_Atoms>  (121) 
nan

>  <Num_Not_Resolved_Atoms>  (121) 
nan

$$$$
CHEMBL5081608
     RDKit          3D

  0  0  0  0  0  0  0  0  0  0999 V3000
M  V30 BEGIN CTAB
M  V30 COUNTS 64 67 0 0 0
M  V30 BEGIN ATOM
M  V30 1 C 5.020216 -3.230481 3.970546 0
M  V30 2 N 5.253921 -2.788546 2.621462 0
M  V30 3 C 5.865201 -3.791440 1.792022 0
M  V30 4 C 4.147101 -2.111645 2.018436 0
M  V30 5 C 3.927966 -0.789089 2.702184 0
M  V30 6 C 2.762287 -0.039804 2.092368 0
M  V30 7 O 2.972169 0.231768 0.701180 0
M  V30 8 C 1.983623 0.915203 -0.006888 0
M  V30 9 C 0.818708 1.329171 0.602239 0
M  V30 10 C -0.135704 2.002601 -0.132793 0
M  V30 11 C -0.003241 2.298085 -1.467097 0
M  V30 12 C -1.016433 2.976413 -2.111113 0
M  V30 13 N -2.218679 3.405777 -1.486192 0
M  V30 14 C -3.255086 4.113653 -2.208532 0
M  V30 15 C -3.757521 3.195051 -3.307712 0
M  V30 16 C -4.296686 1.933491 -2.728348 0
M  V30 17 C -5.490515 1.384278 -2.250090 0
M  V30 18 N -5.411152 0.128313 -1.821080 0
M  V30 19 C -4.483547 -0.555722 -1.796670 0
M  V30 20 N -4.091922 -1.899489 -1.411609 0
M  V30 21 C -3.633710 -2.136123 -0.087852 0
M  V30 22 O -3.598058 -1.150648 0.680445 0
M  V30 23 N -3.228277 -3.408406 0.377636 0
M  V30 24 C -2.755298 -3.780903 1.657046 0
M  V30 25 C -2.411017 -5.078781 1.887814 0
M  V30 26 C -1.944104 -5.524318 3.099727 0
M  V30 27 C -1.792842 -4.667299 4.177239 0
M  V30 28 C -2.134668 -3.346358 3.970085 0
M  V30 29 C -2.597108 -2.949655 2.739112 0
M  V30 30 S -3.077417 0.523309 -2.513914 0
M  V30 31 N -0.765291 3.204460 -3.410990 0
M  V30 32 C 0.356731 2.816291 -4.035540 0
M  V30 33 N 1.342140 2.146592 -3.372828 0
M  V30 34 C 1.168255 1.875028 -2.054242 0
M  V30 35 C 2.140232 1.200117 -1.346087 0
M  V30 36 H 4.001370 -3.642676 4.123902 0
M  V30 37 H 5.780028 -4.000673 4.230202 0
M  V30 38 H 5.221353 -2.373981 4.644776 0
M  V30 39 H 5.734763 -4.780082 2.259000 0
M  V30 40 H 5.457961 -3.825785 0.751656 0
M  V30 41 H 6.954178 -3.559937 1.686680 0
M  V30 42 H 4.416294 -1.906870 0.967351 0
M  V30 43 H 3.222982 -2.715454 2.066810 0
M  V30 44 H 3.618949 -1.014138 3.749708 0
M  V30 45 H 4.827746 -0.173641 2.710542 0
M  V30 46 H 1.885711 -0.725779 2.135445 0
M  V30 47 H 2.480961 0.847012 2.659020 0
M  V30 48 H 0.724224 1.092096 1.651102 0
M  V30 49 H -0.994295 2.268997 0.458211 0
M  V30 50 H -2.410712 3.234006 -0.489397 0
M  V30 51 H -2.857113 5.063769 -2.660333 0
M  V30 52 H -4.085674 4.366397 -1.527642 0
M  V30 53 H -4.615976 3.670558 -3.837674 0
M  V30 54 H -3.008045 2.987882 -4.070398 0
M  V30 55 H -6.317096 2.079476 -2.302023 0
M  V30 56 H -4.138582 -2.694017 -2.087328 0
M  V30 57 H -3.308850 -4.135386 -0.363165 0
M  V30 58 H -2.508865 -5.804388 1.074931 0
M  V30 59 H -1.694935 -6.569775 3.194916 0
M  V30 60 H -1.424476 -5.085729 5.088265 0
M  V30 61 H -2.020031 -2.679750 4.798574 0
M  V30 62 H -2.836401 -1.919088 2.668872 0
M  V30 63 H 0.412756 3.076112 -5.096509 0
M  V30 64 H 3.031969 0.904563 -1.891741 0
M  V30 END ATOM
M  V30 BEGIN BOND
M  V30 1 1 1 2
M  V30 2 1 2 3
M  V30 3 1 2 4
M  V30 4 1 4 5
M  V30 5 1 5 6
M  V30 6 1 6 7
M  V30 7 1 7 8
M  V30 8 2 8 9
M  V30 9 1 9 10
M  V30 10 2 10 11
M  V30 11 1 11 12
M  V30 12 1 12 13
M  V30 13 1 13 14
M  V30 14 1 14 15
M  V30 15 1 15 16
M  V30 16 2 16 17
M  V30 17 1 17 18
M  V30 18 2 18 19
M  V30 19 1 19 20
M  V30 20 1 20 21
M  V30 21 2 21 22
M  V30 22 1 21 23
M  V30 23 1 23 24
M  V30 24 2 24 25
M  V30 25 1 25 26
M  V30 26 2 26 27
M  V30 27 1 27 28
M  V30 28 2 28 29
M  V30 29 1 19 30
M  V30 30 2 12 31
M  V30 31 1 31 32
M  V30 32 2 32 33
M  V30 33 1 33 34
M  V30 34 2 34 35
M  V30 35 1 35 8
M  V30 36 1 34 11
M  V30 37 1 30 16
M  V30 38 1 29 24
M  V30 39 1 1 36
M  V30 40 1 1 37
M  V30 41 1 1 38
M  V30 42 1 3 39
M  V30 43 1 3 40
M  V30 44 1 3 41
M  V30 45 1 4 42
M  V30 46 1 4 43
M  V30 47 1 5 44
M  V30 48 1 5 45
M  V30 49 1 6 46
M  V30 50 1 6 47
M  V30 51 1 9 48
M  V30 52 1 10 49
M  V30 53 1 13 50
M  V30 54 1 14 51
M  V30 55 1 14 52
M  V30 56 1 15 53
M  V30 57 1 15 54
M  V30 58 1 17 55
M  V30 59 1 20 56
M  V30 60 1 23 57
M  V30 61 1 25 58
M  V30 62 1 26 59
M  V30 63 1 27 60
M  V30 64 1 28 61
M  V30 65 1 29 62
M  V30 66 1 32 63
M  V30 67 1 35 64
M  V30 END BOND
M  V30 END CTAB
M  END
>  <Dataset>  (122) 
ChEMBL_Kinases

>  <Ligand_Instance>  (122) 
nan

>  <PDB_ID>  (122) 
nan

>  <Standardized_SMILES>  (122) 
CN(C)CCCOc1ccc2c(NCCc3cnc(NC(=O)Nc4ccccc4)s3)ncnc2c1

>  <Name>  (122) 
nan

>  <Pocket>  (122) 
nan

>  <ATP_Site>  (122) 
nan

>  <Peripheral>  (122) 
nan

>  <Num_H_Atoms_ProtBoundConf>  (122) 
nan

>  <Num_Resolved_Atoms>  (122) 
nan

>  <Num_Not_Resolved_Atoms>  (122) 
nan

$$$$
CHEMBL3702297
     RDKit          3D

  0  0  0  0  0  0  0  0  0  0999 V3000
M  V30 BEGIN CTAB
M  V30 COUNTS 56 58 0 0 0
M  V30 BEGIN ATOM
M  V30 1 C 1.422772 0.793282 5.748005 0
M  V30 2 C 2.774411 0.866845 5.031954 0
M  V30 3 N 2.501602 0.920148 3.617705 0
M  V30 4 C 3.569099 0.993158 2.709177 0
M  V30 5 O 4.801122 1.015282 3.035641 0
M  V30 6 C 3.284871 1.050780 1.229432 0
M  V30 7 C 3.976413 -0.187321 0.668800 0
M  V30 8 O 1.910880 1.033362 1.016379 0
M  V30 9 C 1.125341 1.995721 0.448364 0
M  V30 10 C 1.566975 3.225320 -0.041128 0
M  V30 11 C 0.620180 4.080385 -0.586315 0
M  V30 12 F 1.124030 5.255002 -1.039687 0
M  V30 13 C -0.729581 3.773444 -0.666066 0
M  V30 14 C -1.171474 2.560497 -0.184104 0
M  V30 15 C -0.223989 1.719714 0.353988 0
M  V30 16 N -0.728765 0.481041 0.830416 0
M  V30 17 C -2.083924 0.080053 0.799487 0
M  V30 18 N -2.862663 0.827595 1.580910 0
M  V30 19 C -4.156247 0.696566 1.797069 0
M  V30 20 N -4.714096 -0.323178 1.131792 0
M  V30 21 C -3.958393 -1.091557 0.339541 0
M  V30 22 S -4.353282 -2.552424 -0.670493 0
M  V30 23 C -2.735062 -2.840973 -1.285796 0
M  V30 24 C -2.661328 -4.009692 -2.152983 0
M  V30 25 O -3.734919 -4.673452 -2.374288 0
M  V30 26 N -1.592805 -4.594276 -2.831919 0
M  V30 27 C -1.656558 -5.777480 -3.665009 0
M  V30 28 C -2.110826 -6.991388 -2.883541 0
M  V30 29 O -1.185347 -7.193431 -1.848370 0
M  V30 30 C -1.992694 -1.866844 -0.733309 0
M  V30 31 C -0.556033 -1.838427 -1.122514 0
M  V30 32 C -2.609604 -0.980785 0.092283 0
M  V30 33 H 0.681392 1.297336 5.112858 0
M  V30 34 H 1.110733 -0.267706 5.893890 0
M  V30 35 H 1.469692 1.314644 6.720727 0
M  V30 36 H 3.390105 0.018093 5.357318 0
M  V30 37 H 3.305596 1.775652 5.400081 0
M  V30 38 H 1.532857 0.907203 3.230656 0
M  V30 39 H 3.764135 1.953061 0.825938 0
M  V30 40 H 4.004012 -0.151912 -0.433189 0
M  V30 41 H 3.431451 -1.101907 0.982079 0
M  V30 42 H 4.982013 -0.235827 1.098967 0
M  V30 43 H 2.614296 3.438006 0.031207 0
M  V30 44 H -1.359575 4.549658 -1.122011 0
M  V30 45 H -2.216871 2.336294 -0.252595 0
M  V30 46 H -0.069369 -0.232017 1.267447 0
M  V30 47 H -4.826080 1.254506 2.402648 0
M  V30 48 H -0.666143 -4.137350 -2.718029 0
M  V30 49 H -2.320012 -5.602571 -4.549816 0
M  V30 50 H -0.636235 -6.005289 -4.056040 0
M  V30 51 H -2.024812 -7.885159 -3.536721 0
M  V30 52 H -3.131727 -6.886606 -2.541792 0
M  V30 53 H -0.797171 -6.347844 -1.518528 0
M  V30 54 H 0.090601 -2.509880 -0.562812 0
M  V30 55 H -0.106146 -0.798954 -0.999934 0
M  V30 56 H -0.459347 -1.934261 -2.254927 0
M  V30 END ATOM
M  V30 BEGIN BOND
M  V30 1 1 1 2
M  V30 2 1 2 3
M  V30 3 1 3 4
M  V30 4 2 4 5
M  V30 5 1 4 6
M  V30 6 1 6 7
M  V30 7 1 6 8
M  V30 8 1 8 9
M  V30 9 2 9 10
M  V30 10 1 10 11
M  V30 11 1 11 12
M  V30 12 2 11 13
M  V30 13 1 13 14
M  V30 14 2 14 15
M  V30 15 1 15 16
M  V30 16 1 16 17
M  V30 17 2 17 18
M  V30 18 1 18 19
M  V30 19 2 19 20
M  V30 20 1 20 21
M  V30 21 1 21 22
M  V30 22 1 22 23
M  V30 23 1 23 24
M  V30 24 2 24 25
M  V30 25 1 24 26
M  V30 26 1 26 27
M  V30 27 1 27 28
M  V30 28 1 28 29
M  V30 29 2 23 30
M  V30 30 1 30 31
M  V30 31 1 30 32
M  V30 32 1 15 9
M  V30 33 1 32 17
M  V30 34 2 32 21
M  V30 35 1 1 33
M  V30 36 1 1 34
M  V30 37 1 1 35
M  V30 38 1 2 36
M  V30 39 1 2 37
M  V30 40 1 3 38
M  V30 41 1 6 39
M  V30 42 1 7 40
M  V30 43 1 7 41
M  V30 44 1 7 42
M  V30 45 1 10 43
M  V30 46 1 13 44
M  V30 47 1 14 45
M  V30 48 1 16 46
M  V30 49 1 19 47
M  V30 50 1 26 48
M  V30 51 1 27 49
M  V30 52 1 27 50
M  V30 53 1 28 51
M  V30 54 1 28 52
M  V30 55 1 29 53
M  V30 56 1 31 54
M  V30 57 1 31 55
M  V30 58 1 31 56
M  V30 END BOND
M  V30 END CTAB
M  END
>  <Dataset>  (123) 
ChEMBL_Kinases

>  <Ligand_Instance>  (123) 
nan

>  <PDB_ID>  (123) 
nan

>  <Standardized_SMILES>  (123) 
CCNC(=O)C(C)Oc1cc(F)ccc1Nc1ncnc2sc(C(=O)NCCO)c(C)c12

>  <Name>  (123) 
nan

>  <Pocket>  (123) 
nan

>  <ATP_Site>  (123) 
nan

>  <Peripheral>  (123) 
nan

>  <Num_H_Atoms_ProtBoundConf>  (123) 
nan

>  <Num_Resolved_Atoms>  (123) 
nan

>  <Num_Not_Resolved_Atoms>  (123) 
nan

$$$$
CHEMBL508165
     RDKit          3D

  0  0  0  0  0  0  0  0  0  0999 V3000
M  V30 BEGIN CTAB
M  V30 COUNTS 69 73 0 0 0
M  V30 BEGIN ATOM
M  V30 1 O 1.392699 -2.538706 2.949230 0
M  V30 2 C 1.107329 -3.078005 1.817755 0
M  V30 3 O 1.838910 -3.568187 0.717024 0
M  V30 4 C 1.110718 -4.611346 0.093355 0
M  V30 5 C 1.840105 -5.907897 0.432610 0
M  V30 6 O 1.872101 -6.093337 1.815435 0
M  V30 7 C 1.108725 -4.488046 -1.394366 0
M  V30 8 O 0.520553 -3.257442 -1.829412 0
M  V30 9 C 0.491469 -3.068775 -3.203277 0
M  V30 10 O 1.022995 -4.090865 -3.754304 0
M  V30 11 C -0.040678 -1.923640 -3.940869 0
M  V30 12 C 0.637768 -0.639923 -3.575364 0
M  V30 13 C 1.055708 0.267154 -4.559459 0
M  V30 14 C 1.666611 1.418667 -4.170684 0
M  V30 15 C 1.910557 1.768803 -2.864153 0
M  V30 16 C 1.505147 0.885471 -1.873049 0
M  V30 17 C 0.888150 -0.279068 -2.250296 0
M  V30 18 C -1.500606 -1.795519 -3.950577 0
M  V30 19 C -2.207977 -1.414497 -5.097178 0
M  V30 20 C -3.597030 -1.287830 -5.136396 0
M  V30 21 C -4.325187 -1.546410 -4.000175 0
M  V30 22 C -3.676155 -1.923757 -2.848467 0
M  V30 23 C -2.282416 -2.036214 -2.861242 0
M  V30 24 C -0.278673 -4.577722 0.676234 0
M  V30 25 C -0.306399 -3.303824 1.441986 0
M  V30 26 C -1.322368 -2.481610 1.754733 0
M  V30 27 C -1.147741 -1.246320 2.510797 0
M  V30 28 C -1.938753 -0.829547 3.570863 0
M  V30 29 C -1.698542 0.378600 4.200173 0
M  V30 30 C -0.672985 1.219402 3.810087 0
M  V30 31 C -0.402208 2.500675 4.463354 0
M  V30 32 C -1.404815 3.292298 5.030535 0
M  V30 33 C -1.026696 4.495648 5.627121 0
M  V30 34 C 0.277536 4.919109 5.673536 0
M  V30 35 C 0.608743 6.205065 6.320865 0
M  V30 36 F 1.003213 7.108396 5.324921 0
M  V30 37 F 1.664974 6.122684 7.189829 0
M  V30 38 F -0.481046 6.764841 6.955083 0
M  V30 39 C 1.259233 4.143811 5.117945 0
M  V30 40 C 0.926059 2.927758 4.508278 0
M  V30 41 C 0.136961 0.814505 2.739962 0
M  V30 42 C -0.104961 -0.397358 2.109294 0
M  V30 43 H 2.902940 -5.768640 0.127147 0
M  V30 44 H 1.423073 -6.781096 -0.085539 0
M  V30 45 H 2.084807 -5.280974 2.308721 0
M  V30 46 H 0.423210 -5.278854 -1.780532 0
M  V30 47 H 2.093232 -4.666857 -1.832417 0
M  V30 48 H 0.251107 -2.090023 -5.023423 0
M  V30 49 H 0.893762 0.051674 -5.607153 0
M  V30 50 H 2.012064 2.158500 -4.904842 0
M  V30 51 H 2.402337 2.699628 -2.592093 0
M  V30 52 H 1.697920 1.164931 -0.858528 0
M  V30 53 H 0.584576 -0.943208 -1.456088 0
M  V30 54 H -1.592261 -1.215604 -5.989552 0
M  V30 55 H -3.980784 -0.984201 -6.104165 0
M  V30 56 H -5.387749 -1.409598 -4.175104 0
M  V30 57 H -4.311906 -2.107821 -2.004050 0
M  V30 58 H -1.869606 -2.332556 -1.926355 0
M  V30 59 H -0.331622 -5.402050 1.432094 0
M  V30 60 H -1.030298 -4.656662 -0.104555 0
M  V30 61 H -2.326110 -2.779805 1.410478 0
M  V30 62 H -2.732518 -1.487048 3.869151 0
M  V30 63 H -2.346220 0.679699 5.039091 0
M  V30 64 H -2.431800 2.931754 4.979160 0
M  V30 65 H -1.861552 5.071882 6.054945 0
M  V30 66 H 2.309523 4.476967 5.151370 0
M  V30 67 H 1.770101 2.379843 4.094740 0
M  V30 68 H 0.930392 1.492116 2.457542 0
M  V30 69 H 0.601189 -0.574815 1.282543 0
M  V30 END ATOM
M  V30 BEGIN BOND
M  V30 1 2 1 2
M  V30 2 1 2 3
M  V30 3 1 3 4
M  V30 4 1 4 5
M  V30 5 1 5 6
M  V30 6 1 4 7
M  V30 7 1 7 8
M  V30 8 1 8 9
M  V30 9 2 9 10
M  V30 10 1 9 11
M  V30 11 1 11 12
M  V30 12 2 12 13
M  V30 13 1 13 14
M  V30 14 2 14 15
M  V30 15 1 15 16
M  V30 16 2 16 17
M  V30 17 1 11 18
M  V30 18 2 18 19
M  V30 19 1 19 20
M  V30 20 2 20 21
M  V30 21 1 21 22
M  V30 22 2 22 23
M  V30 23 1 4 24
M  V30 24 1 24 25
M  V30 25 2 25 26
M  V30 26 1 26 27
M  V30 27 2 27 28
M  V30 28 1 28 29
M  V30 29 2 29 30
M  V30 30 1 30 31
M  V30 31 2 31 32
M  V30 32 1 32 33
M  V30 33 2 33 34
M  V30 34 1 34 35
M  V30 35 1 35 36
M  V30 36 1 35 37
M  V30 37 1 35 38
M  V30 38 1 34 39
M  V30 39 2 39 40
M  V30 40 1 30 41
M  V30 41 2 41 42
M  V30 42 1 25 2
M  V30 43 1 42 27
M  V30 44 1 17 12
M  V30 45 1 23 18
M  V30 46 1 40 31
M  V30 47 1 5 43
M  V30 48 1 5 44
M  V30 49 1 6 45
M  V30 50 1 7 46
M  V30 51 1 7 47
M  V30 52 1 11 48
M  V30 53 1 13 49
M  V30 54 1 14 50
M  V30 55 1 15 51
M  V30 56 1 16 52
M  V30 57 1 17 53
M  V30 58 1 19 54
M  V30 59 1 20 55
M  V30 60 1 21 56
M  V30 61 1 22 57
M  V30 62 1 23 58
M  V30 63 1 24 59
M  V30 64 1 24 60
M  V30 65 1 26 61
M  V30 66 1 28 62
M  V30 67 1 29 63
M  V30 68 1 32 64
M  V30 69 1 33 65
M  V30 70 1 39 66
M  V30 71 1 40 67
M  V30 72 1 41 68
M  V30 73 1 42 69
M  V30 END BOND
M  V30 END CTAB
M  END
>  <Dataset>  (124) 
ChEMBL_Kinases

>  <Ligand_Instance>  (124) 
nan

>  <PDB_ID>  (124) 
nan

>  <Standardized_SMILES>  (124) 
O=C1OC(CO)(COC(=O)C(c2ccccc2)c2ccccc2)C/C1=C/c1ccc(-c2ccc(C(F)(F)F)cc2)cc1

>  <Name>  (124) 
nan

>  <Pocket>  (124) 
nan

>  <ATP_Site>  (124) 
nan

>  <Peripheral>  (124) 
nan

>  <Num_H_Atoms_ProtBoundConf>  (124) 
nan

>  <Num_Resolved_Atoms>  (124) 
nan

>  <Num_Not_Resolved_Atoms>  (124) 
nan

$$$$
CHEMBL5081668
     RDKit          3D

  0  0  0  0  0  0  0  0  0  0999 V3000
M  V30 BEGIN CTAB
M  V30 COUNTS 104 111 0 0 0
M  V30 BEGIN ATOM
M  V30 1 C -1.746198 -8.600888 -3.484235 0
M  V30 2 C -0.586655 -8.948410 -4.423955 0
M  V30 3 C 0.522207 -9.583741 -3.672670 0
M  V30 4 C 0.704760 -10.957913 -3.750771 0
M  V30 5 C 1.667963 -11.674774 -3.111251 0
M  V30 6 C 2.531448 -10.940381 -2.316402 0
M  V30 7 C 2.405822 -9.552504 -2.192181 0
M  V30 8 C 3.406126 -8.945459 -1.312931 0
M  V30 9 C 4.511679 -8.328897 -2.132301 0
M  V30 10 C 1.413305 -8.872810 -2.860911 0
M  V30 11 N 1.275336 -7.452008 -2.735301 0
M  V30 12 C 1.869533 -6.527107 -3.660586 0
M  V30 13 C 1.342957 -5.133106 -3.515322 0
M  V30 14 N 0.550218 -5.018822 -2.324867 0
M  V30 15 C 0.111649 -3.757591 -2.004280 0
M  V30 16 C -0.638203 -3.792484 -0.848881 0
M  V30 17 C -1.315455 -2.771496 -0.060678 0
M  V30 18 N -0.586741 -1.683912 0.209914 0
M  V30 19 C -1.001902 -0.632615 0.901003 0
M  V30 20 N -0.128924 0.464703 1.150227 0
M  V30 21 C -0.404769 1.681678 1.807015 0
M  V30 22 C -1.629481 2.075779 2.267020 0
M  V30 23 C -1.906360 3.279698 2.905144 0
M  V30 24 C -0.856979 4.164909 3.096772 0
M  V30 25 N -1.123221 5.417302 3.738172 0
M  V30 26 C -2.378618 6.075883 3.932718 0
M  V30 27 C -2.407873 7.416021 3.282548 0
M  V30 28 C -1.108762 7.951686 2.904710 0
M  V30 29 O -1.191490 9.375274 3.243788 0
M  V30 30 C -0.700299 8.009470 1.476382 0
M  V30 31 N -0.537283 6.817677 0.727748 0
M  V30 32 C -1.727405 6.187110 0.372141 0
M  V30 33 C -1.638256 5.324956 -0.881791 0
M  V30 34 N -0.865952 6.021578 -1.867994 0
M  V30 35 C -0.961007 5.511024 -3.199979 0
M  V30 36 C 0.506591 5.977018 -1.336843 0
M  V30 37 C 0.523133 6.934772 -0.192043 0
M  V30 38 C 0.082236 7.537009 3.762127 0
M  V30 39 C -0.038944 6.169232 4.338867 0
M  V30 40 C 0.389549 3.806352 2.648615 0
M  V30 41 C 0.617956 2.604340 2.022186 0
M  V30 42 O 1.894323 2.286578 1.586781 0
M  V30 43 C 3.021840 3.093413 1.724759 0
M  V30 44 N -2.262775 -0.711645 1.343942 0
M  V30 45 C -3.073679 -1.750207 1.129735 0
M  V30 46 N -4.344016 -2.092141 1.444922 0
M  V30 47 C -4.652715 -3.318327 0.943774 0
M  V30 48 C -3.535413 -3.815601 0.263596 0
M  V30 49 C -2.607669 -2.824151 0.408273 0
M  V30 50 C -0.676923 -5.099848 -0.427910 0
M  V30 51 C 0.055493 -5.798264 -1.352166 0
M  V30 52 C 0.469843 -7.197909 -1.584386 0
M  V30 53 O 0.060969 -8.041479 -0.724200 0
M  V30 54 H -2.705892 -8.869700 -4.017989 0
M  V30 55 H -1.817255 -7.510180 -3.331021 0
M  V30 56 H -1.639721 -9.167626 -2.552833 0
M  V30 57 H -0.977407 -9.713379 -5.145630 0
M  V30 58 H -0.270237 -8.058796 -4.984296 0
M  V30 59 H 0.018855 -11.516334 -4.378325 0
M  V30 60 H 1.764279 -12.736515 -3.205045 0
M  V30 61 H 3.306792 -11.519326 -1.802579 0
M  V30 62 H 3.893473 -9.666924 -0.630200 0
M  V30 63 H 2.965264 -8.101408 -0.700661 0
M  V30 64 H 4.599093 -7.224821 -1.944729 0
M  V30 65 H 5.506856 -8.781827 -1.935729 0
M  V30 66 H 4.267641 -8.433887 -3.219731 0
M  V30 67 H 2.991060 -6.427278 -3.524512 0
M  V30 68 H 1.778500 -6.894274 -4.720495 0
M  V30 69 H 2.177919 -4.387471 -3.539004 0
M  V30 70 H 0.699097 -4.925803 -4.426467 0
M  V30 71 H 0.199800 -2.743625 -2.420406 0
M  V30 72 H 0.862044 0.337680 0.787273 0
M  V30 73 H -2.471356 1.443318 2.148200 0
M  V30 74 H -2.930585 3.489185 3.234175 0
M  V30 75 H -3.245565 5.436125 3.612459 0
M  V30 76 H -2.525747 6.257675 5.052533 0
M  V30 77 H -3.049397 7.300034 2.358382 0
M  V30 78 H -2.992159 8.140493 3.974724 0
M  V30 79 H -2.012303 9.749419 2.846089 0
M  V30 80 H 0.260796 8.635716 1.481144 0
M  V30 81 H -1.392621 8.733204 0.915935 0
M  V30 82 H -2.502445 6.970115 0.086428 0
M  V30 83 H -2.229532 5.545108 1.106216 0
M  V30 84 H -2.666572 5.198144 -1.273483 0
M  V30 85 H -1.129082 4.348716 -0.677105 0
M  V30 86 H -1.216228 6.338317 -3.925565 0
M  V30 87 H -1.732140 4.727365 -3.337095 0
M  V30 88 H 0.056343 5.183556 -3.503420 0
M  V30 89 H 1.251084 6.293915 -2.075200 0
M  V30 90 H 0.655371 4.921392 -1.033961 0
M  V30 91 H 0.607273 7.956297 -0.632871 0
M  V30 92 H 1.517408 6.764205 0.319792 0
M  V30 93 H 0.312946 8.302646 4.557478 0
M  V30 94 H 0.975390 7.559022 3.105717 0
M  V30 95 H 0.931589 5.678540 4.328171 0
M  V30 96 H -0.321972 6.292735 5.419725 0
M  V30 97 H 1.241363 4.457739 2.767772 0
M  V30 98 H 3.387799 3.115115 2.768732 0
M  V30 99 H 3.853601 2.683634 1.080365 0
M  V30 100 H 2.786128 4.105040 1.321018 0
M  V30 101 H -4.962783 -1.449290 2.008162 0
M  V30 102 H -5.601811 -3.831536 1.049205 0
M  V30 103 H -3.415856 -4.753637 -0.255072 0
M  V30 104 H -1.118038 -5.638635 0.395264 0
M  V30 END ATOM
M  V30 BEGIN BOND
M  V30 1 1 1 2
M  V30 2 1 2 3
M  V30 3 2 3 4
M  V30 4 1 4 5
M  V30 5 2 5 6
M  V30 6 1 6 7
M  V30 7 1 7 8
M  V30 8 1 8 9
M  V30 9 2 7 10
M  V30 10 1 10 11
M  V30 11 1 11 12
M  V30 12 1 12 13
M  V30 13 1 13 14
M  V30 14 1 14 15
M  V30 15 2 15 16
M  V30 16 1 16 17
M  V30 17 2 17 18
M  V30 18 1 18 19
M  V30 19 1 19 20
M  V30 20 1 20 21
M  V30 21 2 21 22
M  V30 22 1 22 23
M  V30 23 2 23 24
M  V30 24 1 24 25
M  V30 25 1 25 26
M  V30 26 1 26 27
M  V30 27 1 27 28
M  V30 28 1 28 29
M  V30 29 1 28 30
M  V30 30 1 30 31
M  V30 31 1 31 32
M  V30 32 1 32 33
M  V30 33 1 33 34
M  V30 34 1 34 35
M  V30 35 1 34 36
M  V30 36 1 36 37
M  V30 37 1 28 38
M  V30 38 1 38 39
M  V30 39 1 24 40
M  V30 40 2 40 41
M  V30 41 1 41 42
M  V30 42 1 42 43
M  V30 43 2 19 44
M  V30 44 1 44 45
M  V30 45 1 45 46
M  V30 46 1 46 47
M  V30 47 2 47 48
M  V30 48 1 48 49
M  V30 49 1 16 50
M  V30 50 2 50 51
M  V30 51 1 51 52
M  V30 52 2 52 53
M  V30 53 1 10 3
M  V30 54 1 52 11
M  V30 55 1 51 14
M  V30 56 1 49 17
M  V30 57 1 41 21
M  V30 58 2 49 45
M  V30 59 1 39 25
M  V30 60 1 37 31
M  V30 61 1 1 54
M  V30 62 1 1 55
M  V30 63 1 1 56
M  V30 64 1 2 57
M  V30 65 1 2 58
M  V30 66 1 4 59
M  V30 67 1 5 60
M  V30 68 1 6 61
M  V30 69 1 8 62
M  V30 70 1 8 63
M  V30 71 1 9 64
M  V30 72 1 9 65
M  V30 73 1 9 66
M  V30 74 1 12 67
M  V30 75 1 12 68
M  V30 76 1 13 69
M  V30 77 1 13 70
M  V30 78 1 15 71
M  V30 79 1 20 72
M  V30 80 1 22 73
M  V30 81 1 23 74
M  V30 82 1 26 75
M  V30 83 1 26 76
M  V30 84 1 27 77
M  V30 85 1 27 78
M  V30 86 1 29 79
M  V30 87 1 30 80
M  V30 88 1 30 81
M  V30 89 1 32 82
M  V30 90 1 32 83
M  V30 91 1 33 84
M  V30 92 1 33 85
M  V30 93 1 35 86
M  V30 94 1 35 87
M  V30 95 1 35 88
M  V30 96 1 36 89
M  V30 97 1 36 90
M  V30 98 1 37 91
M  V30 99 1 37 92
M  V30 100 1 38 93
M  V30 101 1 38 94
M  V30 102 1 39 95
M  V30 103 1 39 96
M  V30 104 1 40 97
M  V30 105 1 43 98
M  V30 106 1 43 99
M  V30 107 1 43 100
M  V30 108 1 46 101
M  V30 109 1 47 102
M  V30 110 1 48 103
M  V30 111 1 50 104
M  V30 END BOND
M  V30 END CTAB
M  END
>  <Dataset>  (125) 
ChEMBL_Kinases

>  <Ligand_Instance>  (125) 
nan

>  <PDB_ID>  (125) 
nan

>  <Standardized_SMILES>  (125) 
CCc1cccc(CC)c1N1CCn2cc(-c3nc(Nc4ccc(N5CCC(O)(CN6CCN(C)CC6)CC5)cc4OC)nc4[nH]ccc34)cc2C1=O

>  <Name>  (125) 
nan

>  <Pocket>  (125) 
nan

>  <ATP_Site>  (125) 
nan

>  <Peripheral>  (125) 
nan

>  <Num_H_Atoms_ProtBoundConf>  (125) 
nan

>  <Num_Resolved_Atoms>  (125) 
nan

>  <Num_Not_Resolved_Atoms>  (125) 
nan

$$$$
CHEMBL5081810
     RDKit          3D

  0  0  0  0  0  0  0  0  0  0999 V3000
M  V30 BEGIN CTAB
M  V30 COUNTS 47 50 0 0 0
M  V30 BEGIN ATOM
M  V30 1 C -0.243101 -1.984391 -0.429518 0
M  V30 2 N 0.447826 -1.222703 0.621815 0
M  V30 3 C 1.825027 -0.904993 0.727669 0
M  V30 4 N 2.468963 -1.617155 1.692730 0
M  V30 5 C 3.789296 -1.483092 1.921852 0
M  V30 6 N 4.525601 -0.624970 1.190083 0
M  V30 7 C 3.940880 0.104939 0.223677 0
M  V30 8 N 4.384237 1.025683 -0.651064 0
M  V30 9 C 3.358538 1.455060 -1.406292 0
M  V30 10 C 3.321715 2.372427 -2.403927 0
M  V30 11 C 2.103451 2.640278 -3.028125 0
M  V30 12 Br 2.043379 3.928486 -4.431953 0
M  V30 13 C 0.936164 1.977487 -2.636092 0
M  V30 14 C 1.016827 1.052192 -1.618222 0
M  V30 15 C 2.217763 0.793741 -1.010072 0
M  V30 16 C 2.591144 -0.035721 -0.005981 0
M  V30 17 C -0.480131 -0.780004 1.634222 0 CFG=2
M  V30 18 C 0.168155 0.020858 2.742810 0
M  V30 19 C -0.915708 0.228330 3.785706 0
M  V30 20 C -2.290518 -0.108566 3.288499 0
M  V30 21 N -2.420142 -1.484517 2.842676 0
M  V30 22 C -3.473582 -1.474571 1.853126 0
M  V30 23 C -3.765581 -2.830206 1.263427 0
M  V30 24 C -4.186020 -3.804931 2.274224 0
M  V30 25 N -4.515771 -4.563595 3.085754 0
M  V30 26 C -1.160198 -1.944644 2.310959 0
M  V30 27 H -1.214485 -1.557685 -0.672839 0
M  V30 28 H 0.345602 -1.981054 -1.368734 0
M  V30 29 H -0.255480 -3.037317 -0.082887 0
M  V30 30 H 4.311189 -2.045262 2.687366 0
M  V30 31 H 5.392488 1.354543 -0.723598 0
M  V30 32 H 4.214377 2.900393 -2.726062 0
M  V30 33 H 0.030755 2.245980 -3.174457 0
M  V30 34 H 0.063113 0.616080 -1.397863 0
M  V30 35 H -1.289011 -0.143900 1.217395 0
M  V30 36 H 0.973801 -0.580974 3.209657 0
M  V30 37 H 0.588849 0.980874 2.378825 0
M  V30 38 H -0.749711 -0.394114 4.698843 0
M  V30 39 H -0.915410 1.278227 4.087293 0
M  V30 40 H -2.970513 -0.009045 4.159454 0
M  V30 41 H -2.651496 0.602961 2.537772 0
M  V30 42 H -4.400687 -1.129196 2.351549 0
M  V30 43 H -3.222111 -0.803316 1.017531 0
M  V30 44 H -2.946170 -3.203010 0.617702 0
M  V30 45 H -4.641435 -2.686015 0.594699 0
M  V30 46 H -1.237782 -2.833363 1.688313 0
M  V30 47 H -0.524010 -2.254497 3.183654 0
M  V30 END ATOM
M  V30 BEGIN BOND
M  V30 1 1 1 2
M  V30 2 1 2 3
M  V30 3 2 3 4
M  V30 4 1 4 5
M  V30 5 2 5 6
M  V30 6 1 6 7
M  V30 7 1 7 8
M  V30 8 1 8 9
M  V30 9 2 9 10
M  V30 10 1 10 11
M  V30 11 1 11 12
M  V30 12 2 11 13
M  V30 13 1 13 14
M  V30 14 2 14 15
M  V30 15 1 15 16
M  V30 16 1 2 17
M  V30 17 1 17 18
M  V30 18 1 18 19
M  V30 19 1 19 20
M  V30 20 1 20 21
M  V30 21 1 21 22
M  V30 22 1 22 23
M  V30 23 1 23 24
M  V30 24 3 24 25
M  V30 25 1 21 26
M  V30 26 1 16 3
M  V30 27 1 26 17
M  V30 28 2 16 7
M  V30 29 1 15 9
M  V30 30 1 1 27
M  V30 31 1 1 28
M  V30 32 1 1 29
M  V30 33 1 5 30
M  V30 34 1 8 31
M  V30 35 1 10 32
M  V30 36 1 13 33
M  V30 37 1 14 34
M  V30 38 1 17 35 CFG=3
M  V30 39 1 18 36
M  V30 40 1 18 37
M  V30 41 1 19 38
M  V30 42 1 19 39
M  V30 43 1 20 40
M  V30 44 1 20 41
M  V30 45 1 22 42
M  V30 46 1 22 43
M  V30 47 1 23 44
M  V30 48 1 23 45
M  V30 49 1 26 46
M  V30 50 1 26 47
M  V30 END BOND
M  V30 END CTAB
M  END
>  <Dataset>  (126) 
ChEMBL_Kinases

>  <Ligand_Instance>  (126) 
nan

>  <PDB_ID>  (126) 
nan

>  <Standardized_SMILES>  (126) 
CN(c1ncnc2[nH]c3cc(Br)ccc3c12)[C@@H]1CCCN(CCC#N)C1

>  <Name>  (126) 
nan

>  <Pocket>  (126) 
nan

>  <ATP_Site>  (126) 
nan

>  <Peripheral>  (126) 
nan

>  <Num_H_Atoms_ProtBoundConf>  (126) 
nan

>  <Num_Resolved_Atoms>  (126) 
nan

>  <Num_Not_Resolved_Atoms>  (126) 
nan

$$$$
CHEMBL5082350
     RDKit          3D

  0  0  0  0  0  0  0  0  0  0999 V3000
M  V30 BEGIN CTAB
M  V30 COUNTS 64 68 0 0 0
M  V30 BEGIN ATOM
M  V30 1 C 1.120879 -2.860991 4.473569 0
M  V30 2 C 1.823788 -2.132687 3.392707 0
M  V30 3 C 3.196104 -2.005930 3.440728 0
M  V30 4 C 3.888563 -1.338086 2.450262 0
M  V30 5 C 3.131751 -0.811387 1.421348 0
M  V30 6 N 3.918122 -0.126614 0.421152 0
M  V30 7 C 4.016140 1.252140 0.823458 0
M  V30 8 O 3.406869 1.480934 1.907556 0
M  V30 9 C 4.750082 2.259840 0.040275 0
M  V30 10 C 5.426838 2.043317 -1.143203 0
M  V30 11 C 6.065648 3.133229 -1.739520 0
M  V30 12 N 6.026679 4.343721 -1.189370 0
M  V30 13 C 5.373366 4.593113 -0.030657 0
M  V30 14 C 5.365306 5.968663 0.535680 0
M  V30 15 F 5.113834 5.985187 1.879365 0
M  V30 16 F 6.542460 6.606745 0.197408 0
M  V30 17 F 4.322227 6.678876 -0.067682 0
M  V30 18 C 4.732021 3.530283 0.580697 0
M  V30 19 C 1.759940 -0.933865 1.366347 0
M  V30 20 C 1.071386 -1.605634 2.364293 0
M  V30 21 C -0.382127 -1.692651 2.244277 0
M  V30 22 C -1.340832 -1.453037 3.207620 0
M  V30 23 C -2.678434 -1.582242 2.940094 0
M  V30 24 C -3.119813 -1.958035 1.692995 0
M  V30 25 C -2.154023 -2.202271 0.712091 0
M  V30 26 C -0.805233 -2.072871 0.979095 0
M  V30 27 O -2.520771 -2.584900 -0.569201 0
M  V30 28 C -3.642887 -2.347636 -1.371609 0
M  V30 29 C -3.396757 -3.078556 -2.693348 0
M  V30 30 C -3.885688 -2.218734 -3.858252 0
M  V30 31 O -3.062724 -1.114311 -4.066056 0
M  V30 32 C -2.564930 -0.734838 -2.830601 0
M  V30 33 C -3.623563 -0.859436 -1.736078 0
M  V30 34 C -4.951032 -2.813516 -0.867144 0
M  V30 35 N -5.271449 -2.529638 0.493114 0
M  V30 36 C -6.669223 -2.842118 0.742968 0
M  V30 37 C -4.587672 -2.025099 1.660090 0
M  V30 38 O -5.234032 -1.645065 2.642111 0
M  V30 39 H 0.143954 -3.288181 4.128838 0
M  V30 40 H 0.893623 -2.171080 5.305346 0
M  V30 41 H 1.774522 -3.661401 4.890502 0
M  V30 42 H 3.715020 -2.455991 4.295631 0
M  V30 43 H 4.950243 -1.279387 2.553535 0
M  V30 44 H 4.389603 -0.419197 -0.464948 0
M  V30 45 H 5.397852 1.026448 -1.505360 0
M  V30 46 H 6.569477 2.862617 -2.664605 0
M  V30 47 H 4.228024 3.807223 1.508778 0
M  V30 48 H 1.299604 -0.474873 0.507301 0
M  V30 49 H -0.947574 -1.161033 4.160984 0
M  V30 50 H -3.385211 -1.380061 3.739292 0
M  V30 51 H -0.168785 -2.297023 0.112688 0
M  V30 52 H -2.345218 -3.325758 -2.859160 0
M  V30 53 H -3.985597 -4.024702 -2.755370 0
M  V30 54 H -3.863488 -2.878397 -4.749074 0
M  V30 55 H -4.919784 -1.876138 -3.689253 0
M  V30 56 H -1.711494 -1.405332 -2.593201 0
M  V30 57 H -2.167648 0.297028 -2.914528 0
M  V30 58 H -3.322358 -0.249543 -0.867026 0
M  V30 59 H -4.577683 -0.552147 -2.173973 0
M  V30 60 H -5.060877 -3.904457 -1.124321 0
M  V30 61 H -5.735582 -2.319454 -1.488797 0
M  V30 62 H -7.360753 -2.164472 0.173359 0
M  V30 63 H -6.829809 -3.874083 0.362938 0
M  V30 64 H -6.930406 -2.721888 1.797557 0
M  V30 END ATOM
M  V30 BEGIN BOND
M  V30 1 1 1 2
M  V30 2 2 2 3
M  V30 3 1 3 4
M  V30 4 2 4 5
M  V30 5 1 5 6
M  V30 6 1 6 7
M  V30 7 2 7 8
M  V30 8 1 7 9
M  V30 9 2 9 10
M  V30 10 1 10 11
M  V30 11 2 11 12
M  V30 12 1 12 13
M  V30 13 1 13 14
M  V30 14 1 14 15
M  V30 15 1 14 16
M  V30 16 1 14 17
M  V30 17 2 13 18
M  V30 18 1 5 19
M  V30 19 2 19 20
M  V30 20 1 20 21
M  V30 21 2 21 22
M  V30 22 1 22 23
M  V30 23 2 23 24
M  V30 24 1 24 25
M  V30 25 2 25 26
M  V30 26 1 25 27
M  V30 27 1 27 28
M  V30 28 1 28 29
M  V30 29 1 29 30
M  V30 30 1 30 31
M  V30 31 1 31 32
M  V30 32 1 32 33
M  V30 33 1 28 34
M  V30 34 1 34 35
M  V30 35 1 35 36
M  V30 36 1 35 37
M  V30 37 2 37 38
M  V30 38 1 20 2
M  V30 39 1 26 21
M  V30 40 1 33 28
M  V30 41 1 18 9
M  V30 42 1 37 24
M  V30 43 1 1 39
M  V30 44 1 1 40
M  V30 45 1 1 41
M  V30 46 1 3 42
M  V30 47 1 4 43
M  V30 48 1 6 44
M  V30 49 1 10 45
M  V30 50 1 11 46
M  V30 51 1 18 47
M  V30 52 1 19 48
M  V30 53 1 22 49
M  V30 54 1 23 50
M  V30 55 1 26 51
M  V30 56 1 29 52
M  V30 57 1 29 53
M  V30 58 1 30 54
M  V30 59 1 30 55
M  V30 60 1 32 56
M  V30 61 1 32 57
M  V30 62 1 33 58
M  V30 63 1 33 59
M  V30 64 1 34 60
M  V30 65 1 34 61
M  V30 66 1 36 62
M  V30 67 1 36 63
M  V30 68 1 36 64
M  V30 END BOND
M  V30 END CTAB
M  END
>  <Dataset>  (127) 
ChEMBL_Kinases

>  <Ligand_Instance>  (127) 
nan

>  <PDB_ID>  (127) 
nan

>  <Standardized_SMILES>  (127) 
Cc1ccc(NC(=O)c2ccnc(C(F)(F)F)c2)cc1-c1ccc2c(c1)OC1(CCOCC1)CN(C)C2=O

>  <Name>  (127) 
nan

>  <Pocket>  (127) 
nan

>  <ATP_Site>  (127) 
nan

>  <Peripheral>  (127) 
nan

>  <Num_H_Atoms_ProtBoundConf>  (127) 
nan

>  <Num_Resolved_Atoms>  (127) 
nan

>  <Num_Not_Resolved_Atoms>  (127) 
nan

$$$$
CHEMBL5081861
     RDKit          3D

  0  0  0  0  0  0  0  0  0  0999 V3000
M  V30 BEGIN CTAB
M  V30 COUNTS 27 29 0 0 0
M  V30 BEGIN ATOM
M  V30 1 N -1.468867 -4.165252 1.731997 0
M  V30 2 C -1.633519 -2.778045 1.418652 0
M  V30 3 C -0.555598 -1.973070 1.094551 0
M  V30 4 C -0.642103 -0.633707 0.783226 0
M  V30 5 C 0.577797 0.098299 0.459481 0
M  V30 6 C 0.569585 1.438134 0.138528 0
M  V30 7 C 1.786572 2.015802 -0.147756 0
M  V30 8 C 2.989013 1.306758 -0.123095 0
M  V30 9 O 4.244051 1.616345 -0.349571 0
M  V30 10 C 4.994169 0.551813 -0.184676 0
M  V30 11 C 4.211236 -0.536535 0.171717 0
M  V30 12 C 2.924567 -0.033722 0.206817 0
M  V30 13 N 1.731320 -0.591865 0.485529 0
M  V30 14 C -1.904413 -0.085016 0.804427 0
M  V30 15 C -2.993471 -0.871845 1.125516 0
M  V30 16 N -4.305193 -0.284251 1.143356 0
M  V30 17 N -2.851354 -2.174841 1.421364 0
M  V30 18 H -0.968822 -4.831594 1.071859 0
M  V30 19 H -1.822669 -4.625359 2.622442 0
M  V30 20 H 0.408011 -2.495522 1.103257 0
M  V30 21 H -0.333188 1.997601 0.113488 0
M  V30 22 H 1.851058 3.066121 -0.407952 0
M  V30 23 H 6.064988 0.583621 -0.322084 0
M  V30 24 H 4.542184 -1.547384 0.374509 0
M  V30 25 H -2.017334 0.948036 0.569903 0
M  V30 26 H -4.868182 -0.082694 1.989257 0
M  V30 27 H -4.684180 -0.056191 0.183493 0
M  V30 END ATOM
M  V30 BEGIN BOND
M  V30 1 1 1 2
M  V30 2 2 2 3
M  V30 3 1 3 4
M  V30 4 1 4 5
M  V30 5 2 5 6
M  V30 6 1 6 7
M  V30 7 2 7 8
M  V30 8 1 8 9
M  V30 9 1 9 10
M  V30 10 2 10 11
M  V30 11 1 11 12
M  V30 12 2 12 13
M  V30 13 2 4 14
M  V30 14 1 14 15
M  V30 15 1 15 16
M  V30 16 2 15 17
M  V30 17 1 17 2
M  V30 18 1 13 5
M  V30 19 1 12 8
M  V30 20 1 1 18
M  V30 21 1 1 19
M  V30 22 1 3 20
M  V30 23 1 6 21
M  V30 24 1 7 22
M  V30 25 1 10 23
M  V30 26 1 11 24
M  V30 27 1 14 25
M  V30 28 1 16 26
M  V30 29 1 16 27
M  V30 END BOND
M  V30 END CTAB
M  END
>  <Dataset>  (128) 
ChEMBL_Kinases

>  <Ligand_Instance>  (128) 
nan

>  <PDB_ID>  (128) 
nan

>  <Standardized_SMILES>  (128) 
Nc1cc(-c2ccc3occc3n2)cc(N)n1

>  <Name>  (128) 
nan

>  <Pocket>  (128) 
nan

>  <ATP_Site>  (128) 
nan

>  <Peripheral>  (128) 
nan

>  <Num_H_Atoms_ProtBoundConf>  (128) 
nan

>  <Num_Resolved_Atoms>  (128) 
nan

>  <Num_Not_Resolved_Atoms>  (128) 
nan

$$$$
CHEMBL5081869
     RDKit          3D

  0  0  0  0  0  0  0  0  0  0999 V3000
M  V30 BEGIN CTAB
M  V30 COUNTS 57 61 0 0 0
M  V30 BEGIN ATOM
M  V30 1 C 1.333052 -6.623583 1.172925 0
M  V30 2 C 1.600816 -5.387074 1.951622 0
M  V30 3 N 2.074194 -5.359892 3.203511 0
M  V30 4 N 2.210793 -4.110821 3.636928 0
M  V30 5 C 1.823857 -3.237512 2.665687 0
M  V30 6 N 1.741021 -1.899650 2.524725 0
M  V30 7 C 1.296886 -1.337592 1.384356 0
M  V30 8 C 1.211022 0.112936 1.242704 0
M  V30 9 C 0.760941 0.671397 0.085584 0
M  V30 10 C 0.663187 2.056104 -0.091046 0
M  V30 11 C 1.048925 2.864143 0.976664 0
M  V30 12 N 0.907612 4.246363 0.685698 0
M  V30 13 S 0.187103 5.279661 1.866197 0
M  V30 14 O 0.206154 6.710488 1.428189 0
M  V30 15 O 1.011024 5.190241 3.118380 0
M  V30 16 C -1.462614 4.778345 2.190942 0
M  V30 17 C -1.971675 4.378024 3.407203 0
M  V30 18 C -3.300276 4.017166 3.473927 0
M  V30 19 Cl -3.875489 3.517884 5.061678 0
M  V30 20 C -4.107132 4.050946 2.365216 0
M  V30 21 C -3.629984 4.445438 1.137685 0
M  V30 22 C -2.287392 4.811472 1.063997 0
M  V30 23 F -1.873606 5.192846 -0.179094 0
M  V30 24 C 1.504333 2.294279 2.147111 0
M  V30 25 C 1.590688 0.925687 2.294571 0
M  V30 26 N 0.927110 -2.131711 0.361485 0
M  V30 27 C 0.988316 -3.477250 0.444887 0
M  V30 28 O 0.606789 -4.248065 -0.607609 0
M  V30 29 C 0.130887 -3.831982 -1.839887 0
M  V30 30 C -1.324805 -4.274741 -1.935669 0
M  V30 31 C -1.934649 -3.687984 -3.187798 0
M  V30 32 C -1.101029 -4.173789 -4.355933 0
M  V30 33 N 0.274504 -3.783964 -4.215224 0
M  V30 34 C 0.923873 -4.265979 -3.032821 0
M  V30 35 C 1.442281 -4.060140 1.610007 0
M  V30 36 H 0.971174 -6.418588 0.166072 0
M  V30 37 H 2.166690 -7.353584 1.194406 0
M  V30 38 H 0.492321 -7.134658 1.723259 0
M  V30 39 H 2.552601 -3.815511 4.556912 0
M  V30 40 H 0.475114 -0.013784 -0.710708 0
M  V30 41 H 0.290663 2.371410 -1.057467 0
M  V30 42 H 1.231356 4.656654 -0.232209 0
M  V30 43 H -1.234383 4.395883 4.198857 0
M  V30 44 H -5.147086 3.761182 2.450602 0
M  V30 45 H -4.297921 4.455496 0.301097 0
M  V30 46 H 1.782313 2.994150 2.923043 0
M  V30 47 H 1.954466 0.523957 3.232733 0
M  V30 48 H 0.105369 -2.721696 -1.841940 0
M  V30 49 H -1.821548 -3.901031 -1.007381 0
M  V30 50 H -1.413479 -5.378241 -1.914508 0
M  V30 51 H -1.824871 -2.591317 -3.134224 0
M  V30 52 H -2.961336 -4.044423 -3.270370 0
M  V30 53 H -1.486545 -3.600857 -5.243808 0
M  V30 54 H -1.240097 -5.240417 -4.577963 0
M  V30 55 H 0.763112 -4.083145 -5.103911 0
M  V30 56 H 1.208618 -5.324812 -3.046490 0
M  V30 57 H 1.898767 -3.702113 -2.971710 0
M  V30 END ATOM
M  V30 BEGIN BOND
M  V30 1 1 1 2
M  V30 2 2 2 3
M  V30 3 1 3 4
M  V30 4 1 4 5
M  V30 5 2 5 6
M  V30 6 1 6 7
M  V30 7 1 7 8
M  V30 8 2 8 9
M  V30 9 1 9 10
M  V30 10 2 10 11
M  V30 11 1 11 12
M  V30 12 1 12 13
M  V30 13 2 13 14
M  V30 14 2 13 15
M  V30 15 1 13 16
M  V30 16 2 16 17
M  V30 17 1 17 18
M  V30 18 1 18 19
M  V30 19 2 18 20
M  V30 20 1 20 21
M  V30 21 2 21 22
M  V30 22 1 22 23
M  V30 23 1 11 24
M  V30 24 2 24 25
M  V30 25 2 7 26
M  V30 26 1 26 27
M  V30 27 1 27 28
M  V30 28 1 28 29
M  V30 29 1 29 30
M  V30 30 1 30 31
M  V30 31 1 31 32
M  V30 32 1 32 33
M  V30 33 1 33 34
M  V30 34 2 27 35
M  V30 35 1 35 2
M  V30 36 1 35 5
M  V30 37 1 25 8
M  V30 38 1 34 29
M  V30 39 1 22 16
M  V30 40 1 1 36
M  V30 41 1 1 37
M  V30 42 1 1 38
M  V30 43 1 4 39
M  V30 44 1 9 40
M  V30 45 1 10 41
M  V30 46 1 12 42
M  V30 47 1 17 43
M  V30 48 1 20 44
M  V30 49 1 21 45
M  V30 50 1 24 46
M  V30 51 1 25 47
M  V30 52 1 29 48
M  V30 53 1 30 49
M  V30 54 1 30 50
M  V30 55 1 31 51
M  V30 56 1 31 52
M  V30 57 1 32 53
M  V30 58 1 32 54
M  V30 59 1 33 55
M  V30 60 1 34 56
M  V30 61 1 34 57
M  V30 END BOND
M  V30 END CTAB
M  END
>  <Dataset>  (129) 
ChEMBL_Kinases

>  <Ligand_Instance>  (129) 
nan

>  <PDB_ID>  (129) 
nan

>  <Standardized_SMILES>  (129) 
Cc1n[nH]c2nc(-c3ccc(NS(=O)(=O)c4cc(Cl)ccc4F)cc3)nc(OC3CCCNC3)c12

>  <Name>  (129) 
nan

>  <Pocket>  (129) 
nan

>  <ATP_Site>  (129) 
nan

>  <Peripheral>  (129) 
nan

>  <Num_H_Atoms_ProtBoundConf>  (129) 
nan

>  <Num_Resolved_Atoms>  (129) 
nan

>  <Num_Not_Resolved_Atoms>  (129) 
nan

$$$$
CHEMBL5081878
     RDKit          3D

  0  0  0  0  0  0  0  0  0  0999 V3000
M  V30 BEGIN CTAB
M  V30 COUNTS 75 79 0 0 0
M  V30 BEGIN ATOM
M  V30 1 C -3.254074 -1.756674 2.638337 0
M  V30 2 C -2.085085 -1.532294 3.495936 0
M  V30 3 C -2.335845 -1.386066 4.828205 0
M  V30 4 C -1.298227 -1.172747 5.732588 0
M  V30 5 C -0.017293 -1.116957 5.221674 0
M  V30 6 N 1.065706 -0.895103 6.153472 0
M  V30 7 C 1.245305 0.510367 6.271145 0
M  V30 8 O 0.413099 1.140289 5.534594 0
M  V30 9 C 2.239015 1.165896 7.113476 0
M  V30 10 C 3.190135 0.569045 7.926551 0
M  V30 11 C 4.043194 1.380758 8.651968 0
M  V30 12 N 3.997123 2.726345 8.608616 0
M  V30 13 C 3.084086 3.334902 7.828398 0
M  V30 14 C 2.997438 4.820555 7.752002 0
M  V30 15 F 2.211469 5.339737 8.772191 0
M  V30 16 F 4.208574 5.444395 7.797412 0
M  V30 17 F 2.371731 5.205753 6.562205 0
M  V30 18 C 2.223263 2.547742 7.096283 0
M  V30 19 C 0.211476 -1.267362 3.873851 0
M  V30 20 C -0.823891 -1.481012 2.964321 0
M  V30 21 C -0.542905 -1.629049 1.537707 0
M  V30 22 C 0.483306 -2.522831 1.203834 0
M  V30 23 C 0.819187 -2.721093 -0.130140 0
M  V30 24 C 0.103973 -2.006645 -1.088261 0
M  V30 25 C -0.910482 -1.124051 -0.740117 0
M  V30 26 C -1.247150 -0.924285 0.582550 0
M  V30 27 O -1.653425 -0.387692 -1.648776 0
M  V30 28 C -1.614728 -0.114526 -3.011629 0
M  V30 29 C -2.018459 1.366097 -3.129833 0
M  V30 30 C -2.783803 1.581028 -4.393459 0
M  V30 31 O -4.077237 1.073094 -4.207056 0
M  V30 32 C -4.001648 -0.088041 -3.451000 0
M  V30 33 C -2.717377 -0.860543 -3.762937 0
M  V30 34 C -0.286499 -0.214421 -3.676036 0
M  V30 35 N 0.361632 -1.507518 -3.579741 0
M  V30 36 C 0.895735 -2.124686 -4.782528 0
M  V30 37 C -0.079115 -2.997680 -5.496637 0
M  V30 38 N 0.543984 -3.564451 -6.674547 0
M  V30 39 C 1.587744 -4.521553 -6.301186 0
M  V30 40 C 1.219911 -2.555479 -7.468485 0
M  V30 41 C 0.589226 -2.337495 -2.445476 0
M  V30 42 O 1.239952 -3.424354 -2.576805 0
M  V30 43 H -3.738759 -0.787404 2.428774 0
M  V30 44 H -3.995543 -2.409651 3.185042 0
M  V30 45 H -3.018106 -2.244484 1.672703 0
M  V30 46 H -3.334463 -1.427787 5.241630 0
M  V30 47 H -1.529597 -1.060150 6.783440 0
M  V30 48 H 1.708082 -1.515396 6.726044 0
M  V30 49 H 3.175145 -0.503214 7.916904 0
M  V30 50 H 4.769552 0.853094 9.272827 0
M  V30 51 H 1.496427 3.093214 6.474909 0
M  V30 52 H 1.242354 -1.211226 3.552395 0
M  V30 53 H 1.017879 -3.060814 1.973417 0
M  V30 54 H 1.598538 -3.395326 -0.449717 0
M  V30 55 H -2.034342 -0.234142 0.837062 0
M  V30 56 H -2.637505 1.682640 -2.283617 0
M  V30 57 H -1.097231 1.998557 -3.090689 0
M  V30 58 H -2.849957 2.651066 -4.682414 0
M  V30 59 H -2.371790 1.060365 -5.282959 0
M  V30 60 H -4.911068 -0.675707 -3.650228 0
M  V30 61 H -3.984064 0.151640 -2.377680 0
M  V30 62 H -2.879019 -1.879090 -3.378494 0
M  V30 63 H -2.553530 -0.913281 -4.836854 0
M  V30 64 H -0.329817 0.155587 -4.707528 0
M  V30 65 H 0.376958 0.525928 -3.139322 0
M  V30 66 H 1.345050 -1.329369 -5.442987 0
M  V30 67 H 1.779572 -2.774975 -4.539636 0
M  V30 68 H -0.271650 -3.877227 -4.822003 0
M  V30 69 H -1.052853 -2.556210 -5.711926 0
M  V30 70 H 2.490431 -3.971028 -6.032946 0
M  V30 71 H 1.750053 -5.258615 -7.113713 0
M  V30 72 H 1.166996 -5.111990 -5.452607 0
M  V30 73 H 2.264258 -2.440963 -7.094549 0
M  V30 74 H 0.658555 -1.620226 -7.558639 0
M  V30 75 H 1.306544 -2.966327 -8.498461 0
M  V30 END ATOM
M  V30 BEGIN BOND
M  V30 1 1 1 2
M  V30 2 2 2 3
M  V30 3 1 3 4
M  V30 4 2 4 5
M  V30 5 1 5 6
M  V30 6 1 6 7
M  V30 7 2 7 8
M  V30 8 1 7 9
M  V30 9 2 9 10
M  V30 10 1 10 11
M  V30 11 2 11 12
M  V30 12 1 12 13
M  V30 13 1 13 14
M  V30 14 1 14 15
M  V30 15 1 14 16
M  V30 16 1 14 17
M  V30 17 2 13 18
M  V30 18 1 5 19
M  V30 19 2 19 20
M  V30 20 1 20 21
M  V30 21 2 21 22
M  V30 22 1 22 23
M  V30 23 2 23 24
M  V30 24 1 24 25
M  V30 25 2 25 26
M  V30 26 1 25 27
M  V30 27 1 27 28
M  V30 28 1 28 29
M  V30 29 1 29 30
M  V30 30 1 30 31
M  V30 31 1 31 32
M  V30 32 1 32 33
M  V30 33 1 28 34
M  V30 34 1 34 35
M  V30 35 1 35 36
M  V30 36 1 36 37
M  V30 37 1 37 38
M  V30 38 1 38 39
M  V30 39 1 38 40
M  V30 40 1 35 41
M  V30 41 2 41 42
M  V30 42 1 20 2
M  V30 43 1 26 21
M  V30 44 1 33 28
M  V30 45 1 18 9
M  V30 46 1 41 24
M  V30 47 1 1 43
M  V30 48 1 1 44
M  V30 49 1 1 45
M  V30 50 1 3 46
M  V30 51 1 4 47
M  V30 52 1 6 48
M  V30 53 1 10 49
M  V30 54 1 11 50
M  V30 55 1 18 51
M  V30 56 1 19 52
M  V30 57 1 22 53
M  V30 58 1 23 54
M  V30 59 1 26 55
M  V30 60 1 29 56
M  V30 61 1 29 57
M  V30 62 1 30 58
M  V30 63 1 30 59
M  V30 64 1 32 60
M  V30 65 1 32 61
M  V30 66 1 33 62
M  V30 67 1 33 63
M  V30 68 1 34 64
M  V30 69 1 34 65
M  V30 70 1 36 66
M  V30 71 1 36 67
M  V30 72 1 37 68
M  V30 73 1 37 69
M  V30 74 1 39 70
M  V30 75 1 39 71
M  V30 76 1 39 72
M  V30 77 1 40 73
M  V30 78 1 40 74
M  V30 79 1 40 75
M  V30 END BOND
M  V30 END CTAB
M  END
>  <Dataset>  (130) 
ChEMBL_Kinases

>  <Ligand_Instance>  (130) 
nan

>  <PDB_ID>  (130) 
nan

>  <Standardized_SMILES>  (130) 
Cc1ccc(NC(=O)c2ccnc(C(F)(F)F)c2)cc1-c1ccc2c(c1)OC1(CCOCC1)CN(CCN(C)C)C2=O

>  <Name>  (130) 
nan

>  <Pocket>  (130) 
nan

>  <ATP_Site>  (130) 
nan

>  <Peripheral>  (130) 
nan

>  <Num_H_Atoms_ProtBoundConf>  (130) 
nan

>  <Num_Resolved_Atoms>  (130) 
nan

>  <Num_Not_Resolved_Atoms>  (130) 
nan

$$$$
CHEMBL5081917
     RDKit          3D

  0  0  0  0  0  0  0  0  0  0999 V3000
M  V30 BEGIN CTAB
M  V30 COUNTS 47 50 0 0 0
M  V30 BEGIN ATOM
M  V30 1 C 0.838214 -0.544240 3.109721 0
M  V30 2 N 0.921569 -1.197231 1.800723 0
M  V30 3 C 2.130226 -1.424667 1.095036 0
M  V30 4 N 2.497774 -2.735346 1.128464 0
M  V30 5 C 3.645887 -3.133800 0.542839 0
M  V30 6 N 4.447823 -2.259515 -0.081814 0
M  V30 7 C 4.134322 -0.932822 -0.150441 0
M  V30 8 N 4.687520 0.170053 -0.684355 0
M  V30 9 C 3.893191 1.224538 -0.432871 0
M  V30 10 C 4.050369 2.543791 -0.789999 0
M  V30 11 C 3.071206 3.432953 -0.408701 0
M  V30 12 Cl 3.280820 5.106439 -0.866645 0
M  V30 13 C 1.980673 3.019309 0.300121 0
M  V30 14 C 1.837288 1.692357 0.650671 0
M  V30 15 C 2.792791 0.804865 0.283342 0
M  V30 16 C 2.960714 -0.543460 0.451244 0
M  V30 17 C -0.367735 -1.594788 1.288352 0 CFG=1
M  V30 18 C -1.083325 -2.547821 2.216617 0
M  V30 19 C -2.079890 -3.269922 1.291093 0
M  V30 20 C -2.935063 -2.247445 0.568708 0
M  V30 21 N -2.665274 -0.900943 1.008594 0
M  V30 22 C -3.429492 0.006374 0.193914 0
M  V30 23 C -4.911185 -0.084377 0.421441 0
M  V30 24 C -5.303516 0.206540 1.770764 0
M  V30 25 N -5.600819 0.438942 2.865393 0
M  V30 26 C -1.294521 -0.493751 0.942454 0
M  V30 27 H 0.497924 -1.346892 3.815114 0
M  V30 28 H 1.872265 -0.292933 3.411395 0
M  V30 29 H 0.171838 0.320664 3.112141 0
M  V30 30 H 3.971412 -4.184770 0.551544 0
M  V30 31 H 5.595007 0.057881 -1.185399 0
M  V30 32 H 4.924327 2.834764 -1.350283 0
M  V30 33 H 1.271732 3.778705 0.552184 0
M  V30 34 H 0.945580 1.493460 1.190061 0
M  V30 35 H -0.167183 -2.167677 0.343210 0
M  V30 36 H -1.593372 -1.962414 2.989604 0
M  V30 37 H -0.366898 -3.277731 2.637544 0
M  V30 38 H -2.641464 -4.054194 1.798578 0
M  V30 39 H -1.446165 -3.748905 0.515471 0
M  V30 40 H -2.892986 -2.347154 -0.535169 0
M  V30 41 H -3.979825 -2.483464 0.861180 0
M  V30 42 H -3.166721 -0.178333 -0.866780 0
M  V30 43 H -3.086523 1.048588 0.439560 0
M  V30 44 H -5.242370 -1.092358 0.072353 0
M  V30 45 H -5.407037 0.633888 -0.269062 0
M  V30 46 H -1.002461 -0.125881 -0.073120 0
M  V30 47 H -1.166560 0.414451 1.596807 0
M  V30 END ATOM
M  V30 BEGIN BOND
M  V30 1 1 1 2
M  V30 2 1 2 3
M  V30 3 2 3 4
M  V30 4 1 4 5
M  V30 5 2 5 6
M  V30 6 1 6 7
M  V30 7 1 7 8
M  V30 8 1 8 9
M  V30 9 2 9 10
M  V30 10 1 10 11
M  V30 11 1 11 12
M  V30 12 2 11 13
M  V30 13 1 13 14
M  V30 14 2 14 15
M  V30 15 1 15 16
M  V30 16 1 2 17
M  V30 17 1 17 18
M  V30 18 1 18 19
M  V30 19 1 19 20
M  V30 20 1 20 21
M  V30 21 1 21 22
M  V30 22 1 22 23
M  V30 23 1 23 24
M  V30 24 3 24 25
M  V30 25 1 21 26
M  V30 26 1 16 3
M  V30 27 1 26 17
M  V30 28 2 16 7
M  V30 29 1 15 9
M  V30 30 1 1 27
M  V30 31 1 1 28
M  V30 32 1 1 29
M  V30 33 1 5 30
M  V30 34 1 8 31
M  V30 35 1 10 32
M  V30 36 1 13 33
M  V30 37 1 14 34
M  V30 38 1 17 35 CFG=3
M  V30 39 1 18 36
M  V30 40 1 18 37
M  V30 41 1 19 38
M  V30 42 1 19 39
M  V30 43 1 20 40
M  V30 44 1 20 41
M  V30 45 1 22 42
M  V30 46 1 22 43
M  V30 47 1 23 44
M  V30 48 1 23 45
M  V30 49 1 26 46
M  V30 50 1 26 47
M  V30 END BOND
M  V30 END CTAB
M  END
>  <Dataset>  (131) 
ChEMBL_Kinases

>  <Ligand_Instance>  (131) 
nan

>  <PDB_ID>  (131) 
nan

>  <Standardized_SMILES>  (131) 
CN(c1ncnc2[nH]c3cc(Cl)ccc3c12)[C@H]1CCCN(CCC#N)C1

>  <Name>  (131) 
nan

>  <Pocket>  (131) 
nan

>  <ATP_Site>  (131) 
nan

>  <Peripheral>  (131) 
nan

>  <Num_H_Atoms_ProtBoundConf>  (131) 
nan

>  <Num_Resolved_Atoms>  (131) 
nan

>  <Num_Not_Resolved_Atoms>  (131) 
nan

$$$$
CHEMBL5081980
     RDKit          3D

  0  0  0  0  0  0  0  0  0  0999 V3000
M  V30 BEGIN CTAB
M  V30 COUNTS 48 51 0 0 0
M  V30 BEGIN ATOM
M  V30 1 C 2.940453 -2.957069 -0.630976 0
M  V30 2 C 1.493777 -3.085217 -1.018452 0 CFG=2
M  V30 3 C 1.199346 -4.222280 -1.942275 0
M  V30 4 C 0.906030 -3.661939 -3.310701 0
M  V30 5 C 0.903205 -2.160523 -3.174735 0
M  V30 6 N 0.993227 -1.938256 -1.767654 0
M  V30 7 C 0.644188 -0.750769 -1.017089 0
M  V30 8 C 1.249229 0.469333 -0.870109 0
M  V30 9 C 2.441329 0.858624 -1.528401 0
M  V30 10 N 3.415638 1.161384 -2.051322 0
M  V30 11 C 0.486012 1.204500 0.004467 0
M  V30 12 C 0.598535 2.472655 0.530598 0
M  V30 13 N 1.676679 3.293133 0.159252 0
M  V30 14 N -0.285536 2.988947 1.400126 0
M  V30 15 C -1.351662 2.288278 1.817367 0
M  V30 16 N -2.403100 2.618562 2.742179 0
M  V30 17 C -1.886895 2.027476 3.949114 0
M  V30 18 C -0.948427 2.281462 4.931523 0
M  V30 19 N -0.935828 1.258738 5.835670 0
M  V30 20 N -1.842562 0.347465 5.465867 0
M  V30 21 C -2.073544 -0.873816 6.222752 0
M  V30 22 C -2.419421 0.791577 4.341979 0
M  V30 23 C -1.472435 0.998530 1.287527 0
M  V30 24 C -0.581874 0.421818 0.383349 0
M  V30 25 N -0.468705 -0.760387 -0.246253 0
M  V30 26 C -1.453870 -1.834565 -0.059865 0
M  V30 27 H 3.580989 -3.626097 -1.225095 0
M  V30 28 H 3.244735 -1.896835 -0.685634 0
M  V30 29 H 3.093933 -3.229521 0.450444 0
M  V30 30 H 0.888336 -3.148789 -0.071130 0
M  V30 31 H 0.308201 -4.752588 -1.517533 0
M  V30 32 H 2.060154 -4.925473 -1.928161 0
M  V30 33 H 1.645650 -4.022351 -4.070491 0
M  V30 34 H -0.128711 -4.006388 -3.598244 0
M  V30 35 H 0.013894 -1.695172 -3.633964 0
M  V30 36 H 1.841953 -1.784580 -3.660735 0
M  V30 37 H 1.487581 4.227988 -0.267058 0
M  V30 38 H 2.698240 3.406051 0.108854 0
M  V30 39 H -3.293316 3.133591 2.631664 0
M  V30 40 H -0.403089 3.214971 4.824382 0
M  V30 41 H -1.113385 -1.305191 6.571497 0
M  V30 42 H -2.700316 -0.594948 7.082497 0
M  V30 43 H -2.659159 -1.553387 5.562428 0
M  V30 44 H -3.186227 0.177516 3.894406 0
M  V30 45 H -2.291830 0.335838 1.547496 0
M  V30 46 H -2.479319 -1.410265 0.060444 0
M  V30 47 H -1.218805 -2.429837 0.870637 0
M  V30 48 H -1.469274 -2.519403 -0.905920 0
M  V30 END ATOM
M  V30 BEGIN BOND
M  V30 1 1 1 2
M  V30 2 1 2 3
M  V30 3 1 3 4
M  V30 4 1 4 5
M  V30 5 1 5 6
M  V30 6 1 6 7
M  V30 7 2 7 8
M  V30 8 1 8 9
M  V30 9 3 9 10
M  V30 10 1 8 11
M  V30 11 2 11 12
M  V30 12 1 12 13
M  V30 13 1 12 14
M  V30 14 2 14 15
M  V30 15 1 15 16
M  V30 16 1 16 17
M  V30 17 1 17 18
M  V30 18 2 18 19
M  V30 19 1 19 20
M  V30 20 1 20 21
M  V30 21 1 20 22
M  V30 22 1 15 23
M  V30 23 2 23 24
M  V30 24 1 24 25
M  V30 25 1 25 26
M  V30 26 1 6 2
M  V30 27 1 25 7
M  V30 28 1 24 11
M  V30 29 2 22 17
M  V30 30 1 1 27
M  V30 31 1 1 28
M  V30 32 1 1 29
M  V30 33 1 2 30 CFG=1
M  V30 34 1 3 31
M  V30 35 1 3 32
M  V30 36 1 4 33
M  V30 37 1 4 34
M  V30 38 1 5 35
M  V30 39 1 5 36
M  V30 40 1 13 37
M  V30 41 1 13 38
M  V30 42 1 16 39
M  V30 43 1 18 40
M  V30 44 1 21 41
M  V30 45 1 21 42
M  V30 46 1 21 43
M  V30 47 1 22 44
M  V30 48 1 23 45
M  V30 49 1 26 46
M  V30 50 1 26 47
M  V30 51 1 26 48
M  V30 END BOND
M  V30 END CTAB
M  END
>  <Dataset>  (132) 
ChEMBL_Kinases

>  <Ligand_Instance>  (132) 
nan

>  <PDB_ID>  (132) 
nan

>  <Standardized_SMILES>  (132) 
C[C@@H]1CCCN1c1c(C#N)c2c(N)nc(Nc3cnn(C)c3)cc2n1C

>  <Name>  (132) 
nan

>  <Pocket>  (132) 
nan

>  <ATP_Site>  (132) 
nan

>  <Peripheral>  (132) 
nan

>  <Num_H_Atoms_ProtBoundConf>  (132) 
nan

>  <Num_Resolved_Atoms>  (132) 
nan

>  <Num_Not_Resolved_Atoms>  (132) 
nan

$$$$
CHEMBL5082023
     RDKit          3D

  0  0  0  0  0  0  0  0  0  0999 V3000
M  V30 BEGIN CTAB
M  V30 COUNTS 66 69 0 0 0
M  V30 BEGIN ATOM
M  V30 1 N 4.636874 1.781366 3.132135 0
M  V30 2 C 5.803294 2.429448 2.576027 0
M  V30 3 C 6.970625 1.788851 2.905294 0
M  V30 4 C 8.121399 2.379011 2.393185 0
M  V30 5 C 8.069925 3.515678 1.619584 0
M  V30 6 C 6.838024 4.113464 1.325126 0
M  V30 7 C 5.660710 3.575018 1.804464 0
M  V30 8 N 4.324219 4.029856 1.627790 0
M  V30 9 C 3.432689 3.122103 0.976444 0
M  V30 10 C 3.868315 1.966035 0.370543 0
M  V30 11 C 2.998374 1.089111 -0.243417 0
M  V30 12 C 1.639567 1.370912 -0.256592 0
M  V30 13 C 1.149473 2.517282 0.336801 0
M  V30 14 C 2.058124 3.374469 0.943876 0
M  V30 15 C -0.225746 3.063267 0.484074 0
M  V30 16 C -1.094860 2.766481 -0.682484 0
M  V30 17 C -1.437988 1.349483 -0.895312 0
M  V30 18 C -2.808197 1.072760 -0.984527 0
M  V30 19 C -3.270201 -0.232941 -1.193558 0
M  V30 20 C -2.360553 -1.251595 -1.312320 0
M  V30 21 C -2.894794 -2.585200 -1.518830 0
M  V30 22 O -4.152817 -2.724569 -1.416787 0
M  V30 23 N -2.224022 -3.790222 -1.825404 0
M  V30 24 C -2.434397 -5.145795 -2.046163 0
M  V30 25 C -2.829488 -6.138582 -1.052290 0
M  V30 26 C -4.009166 -6.052652 -0.196014 0
M  V30 27 C -4.071145 -5.040040 0.884490 0
M  V30 28 C -5.448511 -5.192000 1.557741 0 CFG=2
M  V30 29 N -6.458154 -4.962522 0.574337 0
M  V30 30 C -5.510613 -4.226786 2.684502 0
M  V30 31 O -4.537446 -4.513211 3.440610 0
M  V30 32 O -6.436527 -3.194078 2.908748 0
M  V30 33 C -0.994850 -1.061285 -1.235731 0
M  V30 34 C -0.599184 0.252543 -1.026926 0
M  V30 35 C 0.874725 0.318378 -0.951283 0
M  V30 36 O 1.529246 -0.603588 -1.529140 0
M  V30 37 H 3.866445 1.918932 3.821549 0
M  V30 38 H 4.088300 0.884900 3.054880 0
M  V30 39 H 7.039043 0.899542 3.508518 0
M  V30 40 H 9.115653 1.962454 2.585743 0
M  V30 41 H 8.945132 4.001817 1.202976 0
M  V30 42 H 6.686363 5.014176 0.721510 0
M  V30 43 H 3.946558 4.954645 1.927204 0
M  V30 44 H 4.906348 1.736354 0.370239 0
M  V30 45 H 3.334121 0.168325 -0.726787 0
M  V30 46 H 1.706901 4.276806 1.415582 0
M  V30 47 H -0.221462 4.147102 0.694055 0
M  V30 48 H -0.685395 2.571484 1.369261 0
M  V30 49 H -2.047555 3.312927 -0.541010 0
M  V30 50 H -0.650744 3.158153 -1.624289 0
M  V30 51 H -3.502730 1.891979 -0.888193 0
M  V30 52 H -4.335720 -0.338158 -1.245960 0
M  V30 53 H -1.193822 -3.490899 -1.900261 0
M  V30 54 H -3.178425 -5.273135 -2.934147 0
M  V30 55 H -1.499875 -5.580585 -2.559632 0
M  V30 56 H -2.941486 -7.128583 -1.650101 0
M  V30 57 H -1.930972 -6.441932 -0.398526 0
M  V30 58 H -4.964861 -5.996934 -0.800775 0
M  V30 59 H -4.130150 -7.062500 0.332152 0
M  V30 60 H -3.330305 -5.398190 1.710185 0
M  V30 61 H -3.768653 -4.032148 0.724738 0
M  V30 62 H -5.465121 -6.241101 1.933313 0
M  V30 63 H -6.610747 -3.913163 0.497137 0
M  V30 64 H -7.373088 -5.422113 0.836413 0
M  V30 65 H -6.169605 -2.499115 3.622947 0
M  V30 66 H -0.254296 -1.815793 -1.320478 0
M  V30 END ATOM
M  V30 BEGIN BOND
M  V30 1 1 1 2
M  V30 2 2 2 3
M  V30 3 1 3 4
M  V30 4 2 4 5
M  V30 5 1 5 6
M  V30 6 2 6 7
M  V30 7 1 7 8
M  V30 8 1 8 9
M  V30 9 2 9 10
M  V30 10 1 10 11
M  V30 11 2 11 12
M  V30 12 1 12 13
M  V30 13 2 13 14
M  V30 14 1 13 15
M  V30 15 1 15 16
M  V30 16 1 16 17
M  V30 17 2 17 18
M  V30 18 1 18 19
M  V30 19 2 19 20
M  V30 20 1 20 21
M  V30 21 2 21 22
M  V30 22 1 21 23
M  V30 23 1 23 24
M  V30 24 1 24 25
M  V30 25 1 25 26
M  V30 26 1 26 27
M  V30 27 1 27 28
M  V30 28 1 28 29
M  V30 29 1 28 30
M  V30 30 2 30 31
M  V30 31 1 30 32
M  V30 32 1 20 33
M  V30 33 2 33 34
M  V30 34 1 34 35
M  V30 35 2 35 36
M  V30 36 1 7 2
M  V30 37 1 14 9
M  V30 38 1 34 17
M  V30 39 1 35 12
M  V30 40 1 1 37
M  V30 41 1 1 38
M  V30 42 1 3 39
M  V30 43 1 4 40
M  V30 44 1 5 41
M  V30 45 1 6 42
M  V30 46 1 8 43
M  V30 47 1 10 44
M  V30 48 1 11 45
M  V30 49 1 14 46
M  V30 50 1 15 47
M  V30 51 1 15 48
M  V30 52 1 16 49
M  V30 53 1 16 50
M  V30 54 1 18 51
M  V30 55 1 19 52
M  V30 56 1 23 53
M  V30 57 1 24 54
M  V30 58 1 24 55
M  V30 59 1 25 56
M  V30 60 1 25 57
M  V30 61 1 26 58
M  V30 62 1 26 59
M  V30 63 1 27 60
M  V30 64 1 27 61
M  V30 65 1 28 62 CFG=1
M  V30 66 1 29 63
M  V30 67 1 29 64
M  V30 68 1 32 65
M  V30 69 1 33 66
M  V30 END BOND
M  V30 END CTAB
M  END
>  <Dataset>  (133) 
ChEMBL_Kinases

>  <Ligand_Instance>  (133) 
nan

>  <PDB_ID>  (133) 
nan

>  <Standardized_SMILES>  (133) 
Nc1ccccc1Nc1ccc2c(c1)CCc1ccc(C(=O)NCCCC[C@H](N)C(=O)O)cc1C2=O

>  <Name>  (133) 
nan

>  <Pocket>  (133) 
nan

>  <ATP_Site>  (133) 
nan

>  <Peripheral>  (133) 
nan

>  <Num_H_Atoms_ProtBoundConf>  (133) 
nan

>  <Num_Resolved_Atoms>  (133) 
nan

>  <Num_Not_Resolved_Atoms>  (133) 
nan

$$$$
CHEMBL5082184
     RDKit          3D

  0  0  0  0  0  0  0  0  0  0999 V3000
M  V30 BEGIN CTAB
M  V30 COUNTS 67 71 0 0 0
M  V30 BEGIN ATOM
M  V30 1 C 4.029159 2.716818 8.060198 0
M  V30 2 O 3.607466 2.283178 6.789725 0
M  V30 3 C 2.265326 2.370880 6.391136 0
M  V30 4 C 1.341681 2.891713 7.261296 0
M  V30 5 C 0.016530 2.997904 6.916190 0
M  V30 6 C -0.408458 2.580063 5.682952 0
M  V30 7 C 0.562621 2.067538 4.855841 0
M  V30 8 C 1.907153 1.924615 5.117311 0
M  V30 9 N 2.842117 1.395777 4.196976 0
M  V30 10 C 2.713583 0.947484 2.873239 0
M  V30 11 N 1.666730 1.041581 2.070804 0
M  V30 12 C 1.615832 0.564073 0.820769 0
M  V30 13 C 0.502317 0.666242 -0.105181 0
M  V30 14 N 0.465529 0.140432 -1.343365 0
M  V30 15 N -0.666714 0.404474 -1.953150 0
M  V30 16 C -0.875195 -0.119850 -3.285611 0
M  V30 17 C -1.386241 -1.511819 -3.308990 0
M  V30 18 C -2.659569 -1.953269 -3.068900 0
M  V30 19 F -3.612265 -1.048653 -2.775219 0
M  V30 20 C -3.011968 -3.278576 -3.117004 0
M  V30 21 C -2.113112 -4.272147 -3.411200 0
M  V30 22 O -2.222833 -5.610444 -3.516493 0
M  V30 23 C -3.287971 -6.477613 -3.378957 0
M  V30 24 C -4.418904 -6.289693 -4.359766 0
M  V30 25 C -3.912438 -6.479878 -5.785473 0
M  V30 26 O -3.385132 -7.733991 -5.987656 0
M  V30 27 C -0.799083 -3.856282 -3.662640 0
M  V30 28 C -0.439788 -2.502664 -3.613160 0
M  V30 29 F 0.860889 -2.125980 -3.865177 0
M  V30 30 C -1.461302 1.129622 -1.154276 0
M  V30 31 C -2.719260 1.655898 -1.333478 0
M  V30 32 C -3.287031 2.384910 -0.310559 0
M  V30 33 C -2.565051 2.556071 0.853592 0
M  V30 34 C -1.307302 2.013728 0.994622 0
M  V30 35 C -0.722800 1.284315 -0.010209 0
M  V30 36 N 2.713387 -0.055893 0.354497 0
M  V30 37 C 3.835930 -0.217382 1.062031 0
M  V30 38 C 3.828050 0.292003 2.332091 0
M  V30 39 O 5.002992 0.113701 3.047832 0
M  V30 40 C 6.148152 -0.529793 2.567571 0
M  V30 41 H 3.646047 2.011156 8.839624 0
M  V30 42 H 3.674733 3.724982 8.342916 0
M  V30 43 H 5.156683 2.722722 8.050056 0
M  V30 44 H 1.704100 3.215048 8.233189 0
M  V30 45 H -0.692447 3.409238 7.612253 0
M  V30 46 H -1.432520 2.629077 5.333900 0
M  V30 47 H 0.297211 1.709627 3.876730 0
M  V30 48 H 3.811553 1.352331 4.635606 0
M  V30 49 H 0.067857 -0.044497 -3.871634 0
M  V30 50 H -1.594061 0.546648 -3.855650 0
M  V30 51 H -4.008099 -3.599388 -2.916044 0
M  V30 52 H -2.869706 -7.515054 -3.444800 0
M  V30 53 H -3.766170 -6.432438 -2.359885 0
M  V30 54 H -5.256559 -6.999995 -4.159376 0
M  V30 55 H -4.792363 -5.278921 -4.301498 0
M  V30 56 H -4.779911 -6.313826 -6.443336 0
M  V30 57 H -3.106974 -5.732270 -5.940020 0
M  V30 58 H -3.652041 -8.396621 -5.292258 0
M  V30 59 H 0.041681 -4.516633 -3.912206 0
M  V30 60 H -3.230956 1.500400 -2.266068 0
M  V30 61 H -4.265707 2.791833 -0.453936 0
M  V30 62 H -2.978803 3.124043 1.682349 0
M  V30 63 H -0.762648 2.163456 1.899543 0
M  V30 64 H 4.676902 -0.724974 0.623264 0
M  V30 65 H 5.866996 -1.497533 2.082973 0
M  V30 66 H 6.724622 0.064343 1.820097 0
M  V30 67 H 6.868315 -0.772062 3.386773 0
M  V30 END ATOM
M  V30 BEGIN BOND
M  V30 1 1 1 2
M  V30 2 1 2 3
M  V30 3 2 3 4
M  V30 4 1 4 5
M  V30 5 2 5 6
M  V30 6 1 6 7
M  V30 7 2 7 8
M  V30 8 1 8 9
M  V30 9 1 9 10
M  V30 10 2 10 11
M  V30 11 1 11 12
M  V30 12 1 12 13
M  V30 13 2 13 14
M  V30 14 1 14 15
M  V30 15 1 15 16
M  V30 16 1 16 17
M  V30 17 2 17 18
M  V30 18 1 18 19
M  V30 19 1 18 20
M  V30 20 2 20 21
M  V30 21 1 21 22
M  V30 22 1 22 23
M  V30 23 1 23 24
M  V30 24 1 24 25
M  V30 25 1 25 26
M  V30 26 1 21 27
M  V30 27 2 27 28
M  V30 28 1 28 29
M  V30 29 1 15 30
M  V30 30 2 30 31
M  V30 31 1 31 32
M  V30 32 2 32 33
M  V30 33 1 33 34
M  V30 34 2 34 35
M  V30 35 2 12 36
M  V30 36 1 36 37
M  V30 37 2 37 38
M  V30 38 1 38 39
M  V30 39 1 39 40
M  V30 40 1 8 3
M  V30 41 1 38 10
M  V30 42 1 35 13
M  V30 43 1 28 17
M  V30 44 1 35 30
M  V30 45 1 1 41
M  V30 46 1 1 42
M  V30 47 1 1 43
M  V30 48 1 4 44
M  V30 49 1 5 45
M  V30 50 1 6 46
M  V30 51 1 7 47
M  V30 52 1 9 48
M  V30 53 1 16 49
M  V30 54 1 16 50
M  V30 55 1 20 51
M  V30 56 1 23 52
M  V30 57 1 23 53
M  V30 58 1 24 54
M  V30 59 1 24 55
M  V30 60 1 25 56
M  V30 61 1 25 57
M  V30 62 1 26 58
M  V30 63 1 27 59
M  V30 64 1 31 60
M  V30 65 1 32 61
M  V30 66 1 33 62
M  V30 67 1 34 63
M  V30 68 1 37 64
M  V30 69 1 40 65
M  V30 70 1 40 66
M  V30 71 1 40 67
M  V30 END BOND
M  V30 END CTAB
M  END
>  <Dataset>  (134) 
ChEMBL_Kinases

>  <Ligand_Instance>  (134) 
nan

>  <PDB_ID>  (134) 
nan

>  <Standardized_SMILES>  (134) 
COc1ccccc1Nc1nc(-c2nn(Cc3c(F)cc(OCCCO)cc3F)c3ccccc23)ncc1OC

>  <Name>  (134) 
nan

>  <Pocket>  (134) 
nan

>  <ATP_Site>  (134) 
nan

>  <Peripheral>  (134) 
nan

>  <Num_H_Atoms_ProtBoundConf>  (134) 
nan

>  <Num_Resolved_Atoms>  (134) 
nan

>  <Num_Not_Resolved_Atoms>  (134) 
nan

$$$$
CHEMBL3702298
     RDKit          3D

  0  0  0  0  0  0  0  0  0  0999 V3000
M  V30 BEGIN CTAB
M  V30 COUNTS 53 55 0 0 0
M  V30 BEGIN ATOM
M  V30 1 C 1.069050 -1.298705 2.755142 0
M  V30 2 C 1.465096 -0.265898 1.751367 0
M  V30 3 C 2.816337 0.036398 1.528313 0
M  V30 4 C 4.010135 -0.506255 2.134162 0
M  V30 5 O 4.197343 -1.387292 3.021662 0
M  V30 6 N 5.253864 0.009335 1.690062 0
M  V30 7 C 6.575187 -0.356703 2.140455 0
M  V30 8 C 6.685587 -0.034467 3.609235 0
M  V30 9 O 6.469016 1.335399 3.764336 0
M  V30 10 S 2.772266 1.299791 0.269302 0
M  V30 11 C 1.038462 1.378819 0.092740 0
M  V30 12 N 0.272704 2.120004 -0.684749 0
M  V30 13 C -1.059266 2.038351 -0.677214 0
M  V30 14 N -1.550192 1.142421 0.183991 0
M  V30 15 C -0.836238 0.359363 1.000955 0
M  V30 16 N -1.617609 -0.486653 1.830307 0
M  V30 17 C -3.019601 -0.515838 1.608779 0
M  V30 18 C -3.985935 -0.028138 2.507734 0
M  V30 19 C -5.336855 -0.083995 2.257979 0
M  V30 20 C -5.709341 -0.643632 1.076836 0
M  V30 21 N -4.805126 -1.121003 0.195611 0
M  V30 22 C -3.459818 -1.070523 0.437131 0
M  V30 23 O -2.660145 -1.623943 -0.585635 0
M  V30 24 C -3.313685 -2.151648 -1.741483 0
M  V30 25 C -3.808979 -3.595561 -1.349904 0
M  V30 26 C -2.460385 -2.370991 -2.921777 0
M  V30 27 C -1.750043 -1.160073 -3.471107 0
M  V30 28 N -0.861396 -0.621165 -2.473497 0
M  V30 29 C 0.533647 0.414162 1.022600 0
M  V30 30 H 0.534288 -2.112503 2.227130 0
M  V30 31 H 0.492550 -0.831850 3.585507 0
M  V30 32 H 1.960209 -1.726149 3.248944 0
M  V30 33 H 5.267495 0.760601 0.933668 0
M  V30 34 H 7.373864 0.192827 1.629402 0
M  V30 35 H 6.746836 -1.464462 2.030837 0
M  V30 36 H 6.009405 -0.660070 4.204300 0
M  V30 37 H 7.741741 -0.247943 3.947733 0
M  V30 38 H 7.288419 1.808694 4.068085 0
M  V30 39 H -1.704960 2.629403 -1.299224 0
M  V30 40 H -1.613430 -1.165223 2.607340 0
M  V30 41 H -3.592777 0.398289 3.420634 0
M  V30 42 H -6.066257 0.288649 2.944133 0
M  V30 43 H -6.756496 -0.714164 0.820117 0
M  V30 44 H -4.269568 -1.638069 -1.938068 0
M  V30 45 H -2.936750 -4.191786 -1.074720 0
M  V30 46 H -4.240995 -4.020431 -2.277921 0
M  V30 47 H -4.606648 -3.517004 -0.608085 0
M  V30 48 H -3.100922 -2.851727 -3.727288 0
M  V30 49 H -1.671508 -3.165796 -2.741977 0
M  V30 50 H -2.478261 -0.378629 -3.808703 0
M  V30 51 H -1.129944 -1.513972 -4.333373 0
M  V30 52 H -0.597316 -1.396233 -1.821141 0
M  V30 53 H 0.013009 -0.307993 -2.943064 0
M  V30 END ATOM
M  V30 BEGIN BOND
M  V30 1 1 1 2
M  V30 2 2 2 3
M  V30 3 1 3 4
M  V30 4 2 4 5
M  V30 5 1 4 6
M  V30 6 1 6 7
M  V30 7 1 7 8
M  V30 8 1 8 9
M  V30 9 1 3 10
M  V30 10 1 10 11
M  V30 11 2 11 12
M  V30 12 1 12 13
M  V30 13 2 13 14
M  V30 14 1 14 15
M  V30 15 1 15 16
M  V30 16 1 16 17
M  V30 17 2 17 18
M  V30 18 1 18 19
M  V30 19 2 19 20
M  V30 20 1 20 21
M  V30 21 2 21 22
M  V30 22 1 22 23
M  V30 23 1 23 24
M  V30 24 1 24 25
M  V30 25 1 24 26
M  V30 26 1 26 27
M  V30 27 1 27 28
M  V30 28 2 15 29
M  V30 29 1 29 2
M  V30 30 1 29 11
M  V30 31 1 22 17
M  V30 32 1 1 30
M  V30 33 1 1 31
M  V30 34 1 1 32
M  V30 35 1 6 33
M  V30 36 1 7 34
M  V30 37 1 7 35
M  V30 38 1 8 36
M  V30 39 1 8 37
M  V30 40 1 9 38
M  V30 41 1 13 39
M  V30 42 1 16 40
M  V30 43 1 18 41
M  V30 44 1 19 42
M  V30 45 1 20 43
M  V30 46 1 24 44
M  V30 47 1 25 45
M  V30 48 1 25 46
M  V30 49 1 25 47
M  V30 50 1 26 48
M  V30 51 1 26 49
M  V30 52 1 27 50
M  V30 53 1 27 51
M  V30 54 1 28 52
M  V30 55 1 28 53
M  V30 END BOND
M  V30 END CTAB
M  END
>  <Dataset>  (135) 
ChEMBL_Kinases

>  <Ligand_Instance>  (135) 
nan

>  <PDB_ID>  (135) 
nan

>  <Standardized_SMILES>  (135) 
Cc1c(C(=O)NCCO)sc2ncnc(Nc3cccnc3OC(C)CCN)c12

>  <Name>  (135) 
nan

>  <Pocket>  (135) 
nan

>  <ATP_Site>  (135) 
nan

>  <Peripheral>  (135) 
nan

>  <Num_H_Atoms_ProtBoundConf>  (135) 
nan

>  <Num_Resolved_Atoms>  (135) 
nan

>  <Num_Not_Resolved_Atoms>  (135) 
nan

$$$$
CHEMBL3702299
     RDKit          3D

  0  0  0  0  0  0  0  0  0  0999 V3000
M  V30 BEGIN CTAB
M  V30 COUNTS 59 61 0 0 0
M  V30 BEGIN ATOM
M  V30 1 C 0.435233 -0.470794 2.094620 0
M  V30 2 C 0.783904 0.958213 2.284547 0
M  V30 3 C 1.857331 1.280215 3.094721 0
M  V30 4 C 2.889814 0.729068 3.870388 0
M  V30 5 O 3.704046 1.518469 4.457854 0
M  V30 6 N 3.342261 -0.551150 4.229079 0
M  V30 7 C 4.469237 -0.871529 5.059629 0
M  V30 8 C 5.792976 -0.380145 4.534006 0
M  V30 9 O 6.750431 -0.803152 5.487441 0
M  V30 10 S 1.892228 3.077368 3.081566 0
M  V30 11 C 0.453731 3.289799 1.976880 0
M  V30 12 N -0.104325 4.400068 1.502498 0
M  V30 13 C -1.152328 4.294741 0.675368 0
M  V30 14 N -1.535780 3.054420 0.408070 0
M  V30 15 C -0.994984 1.922672 0.870415 0
M  V30 16 N -1.624252 0.758417 0.370213 0
M  V30 17 C -2.971228 0.476007 0.702589 0
M  V30 18 C -3.669889 1.343991 1.502797 0
M  V30 19 C -4.971287 0.978004 1.726033 0
M  V30 20 C -5.501549 -0.170562 1.179029 0
M  V30 21 N -4.735627 -0.983395 0.391495 0
M  V30 22 C -3.448866 -0.678990 0.134411 0
M  V30 23 O -3.003395 -1.645207 -0.635201 0
M  V30 24 C -1.936941 -2.149257 -1.289757 0
M  V30 25 C -1.702442 -3.630243 -1.033894 0
M  V30 26 C -2.190010 -1.980053 -2.795937 0
M  V30 27 C -1.080421 -2.494091 -3.632619 0
M  V30 28 N -0.847330 -3.904915 -3.495728 0
M  V30 29 S 0.493736 -4.392178 -4.519885 0
M  V30 30 C 1.930607 -3.515742 -3.964561 0
M  V30 31 O 0.151307 -3.964424 -5.923155 0
M  V30 32 O 0.710760 -5.868079 -4.416206 0
M  V30 33 C 0.082827 1.986796 1.723506 0
M  V30 34 H 0.863503 -1.132143 2.834916 0
M  V30 35 H 0.795546 -0.772376 1.093475 0
M  V30 36 H -0.679573 -0.603057 2.024799 0
M  V30 37 H 2.784635 -1.326943 3.829132 0
M  V30 38 H 4.322702 -0.557306 6.117528 0
M  V30 39 H 4.558620 -1.990033 5.100292 0
M  V30 40 H 5.854911 0.717540 4.476495 0
M  V30 41 H 5.973741 -0.832625 3.534213 0
M  V30 42 H 7.303595 -1.477684 5.011298 0
M  V30 43 H -1.583456 5.193632 0.307544 0
M  V30 44 H -0.848878 0.385237 -0.169693 0
M  V30 45 H -3.186785 2.222501 1.893360 0
M  V30 46 H -5.534451 1.670765 2.367577 0
M  V30 47 H -6.548488 -0.293468 1.466942 0
M  V30 48 H -0.936581 -1.667577 -1.132878 0
M  V30 49 H -0.643777 -3.908767 -1.172586 0
M  V30 50 H -1.939000 -3.878134 0.037366 0
M  V30 51 H -2.317290 -4.284828 -1.668504 0
M  V30 52 H -3.127567 -2.524474 -3.091464 0
M  V30 53 H -2.375535 -0.914905 -3.035227 0
M  V30 54 H -0.143155 -1.939947 -3.347894 0
M  V30 55 H -1.317933 -2.223114 -4.695557 0
M  V30 56 H -1.669511 -4.451513 -3.914048 0
M  V30 57 H 2.830614 -4.145159 -4.173564 0
M  V30 58 H 2.037299 -2.552976 -4.468174 0
M  V30 59 H 1.925909 -3.341926 -2.866010 0
M  V30 END ATOM
M  V30 BEGIN BOND
M  V30 1 1 1 2
M  V30 2 2 2 3
M  V30 3 1 3 4
M  V30 4 2 4 5
M  V30 5 1 4 6
M  V30 6 1 6 7
M  V30 7 1 7 8
M  V30 8 1 8 9
M  V30 9 1 3 10
M  V30 10 1 10 11
M  V30 11 2 11 12
M  V30 12 1 12 13
M  V30 13 2 13 14
M  V30 14 1 14 15
M  V30 15 1 15 16
M  V30 16 1 16 17
M  V30 17 2 17 18
M  V30 18 1 18 19
M  V30 19 2 19 20
M  V30 20 1 20 21
M  V30 21 2 21 22
M  V30 22 1 22 23
M  V30 23 1 23 24
M  V30 24 1 24 25
M  V30 25 1 24 26
M  V30 26 1 26 27
M  V30 27 1 27 28
M  V30 28 1 28 29
M  V30 29 1 29 30
M  V30 30 2 29 31
M  V30 31 2 29 32
M  V30 32 2 15 33
M  V30 33 1 33 2
M  V30 34 1 33 11
M  V30 35 1 22 17
M  V30 36 1 1 34
M  V30 37 1 1 35
M  V30 38 1 1 36
M  V30 39 1 6 37
M  V30 40 1 7 38
M  V30 41 1 7 39
M  V30 42 1 8 40
M  V30 43 1 8 41
M  V30 44 1 9 42
M  V30 45 1 13 43
M  V30 46 1 16 44
M  V30 47 1 18 45
M  V30 48 1 19 46
M  V30 49 1 20 47
M  V30 50 1 24 48
M  V30 51 1 25 49
M  V30 52 1 25 50
M  V30 53 1 25 51
M  V30 54 1 26 52
M  V30 55 1 26 53
M  V30 56 1 27 54
M  V30 57 1 27 55
M  V30 58 1 28 56
M  V30 59 1 30 57
M  V30 60 1 30 58
M  V30 61 1 30 59
M  V30 END BOND
M  V30 END CTAB
M  END
>  <Dataset>  (136) 
ChEMBL_Kinases

>  <Ligand_Instance>  (136) 
nan

>  <PDB_ID>  (136) 
nan

>  <Standardized_SMILES>  (136) 
Cc1c(C(=O)NCCO)sc2ncnc(Nc3cccnc3OC(C)CCNS(C)(=O)=O)c12

>  <Name>  (136) 
nan

>  <Pocket>  (136) 
nan

>  <ATP_Site>  (136) 
nan

>  <Peripheral>  (136) 
nan

>  <Num_H_Atoms_ProtBoundConf>  (136) 
nan

>  <Num_Resolved_Atoms>  (136) 
nan

>  <Num_Not_Resolved_Atoms>  (136) 
nan

$$$$
CHEMBL5082243
     RDKit          3D

  0  0  0  0  0  0  0  0  0  0999 V3000
M  V30 BEGIN CTAB
M  V30 COUNTS 60 63 0 0 0
M  V30 BEGIN ATOM
M  V30 1 C 5.595405 0.618855 4.861897 0
M  V30 2 C 4.218834 0.057275 4.457349 0
M  V30 3 O 3.961667 -0.000870 3.192324 0
M  V30 4 C 3.704655 -0.059104 1.927476 0
M  V30 5 C 4.295583 -0.777676 0.906075 0
M  V30 6 C 3.847343 -0.689238 -0.373883 0
M  V30 7 N 4.413069 -1.400723 -1.352920 0
M  V30 8 C 3.969199 -1.327726 -2.600086 0
M  V30 9 N 2.950414 -0.565039 -2.991793 0
M  V30 10 C 2.324411 0.200477 -1.997659 0
M  V30 11 N 1.269965 1.002229 -2.445184 0
M  V30 12 C 0.463178 1.418566 -3.530585 0
M  V30 13 C -0.545735 2.522146 -3.213920 0
M  V30 14 C -1.501025 2.046715 -2.189404 0
M  V30 15 C -1.499129 2.156758 -0.822558 0
M  V30 16 C -2.443543 1.613146 0.023106 0
M  V30 17 C -3.467385 0.901196 -0.622094 0
M  V30 18 N -4.367692 0.318449 0.355870 0
M  V30 19 C -3.952551 -1.054489 0.455453 0
M  V30 20 O -3.004707 -1.464344 -0.262474 0
M  V30 21 N -4.529998 -2.038182 1.320926 0
M  V30 22 C -4.076015 -3.407979 1.335383 0
M  V30 23 C -4.609600 -4.482488 0.657238 0
M  V30 24 C -4.062694 -5.739119 0.730423 0
M  V30 25 C -2.948058 -5.960018 1.497238 0
M  V30 26 C -2.407157 -4.866045 2.187185 0
M  V30 27 C -1.173030 -5.057180 3.038440 0
M  V30 28 F -0.495923 -6.192999 2.632761 0
M  V30 29 F -1.538863 -5.065077 4.352421 0
M  V30 30 F -0.367576 -3.957773 2.811907 0
M  V30 31 C -2.938103 -3.592728 2.129794 0
M  V30 32 C -3.556639 0.739225 -1.980975 0
M  V30 33 C -2.566805 1.317190 -2.745625 0
M  V30 34 C 2.798907 0.112458 -0.702067 0
M  V30 35 C 2.125755 0.885979 0.247262 0
M  V30 36 C 2.641373 0.740229 1.531589 0
M  V30 37 F 1.970268 1.511186 2.465462 0
M  V30 38 H 6.305437 -0.195669 5.093143 0
M  V30 39 H 5.412378 1.187364 5.818823 0
M  V30 40 H 5.963851 1.326186 4.114903 0
M  V30 41 H 4.208369 -0.992253 4.933397 0
M  V30 42 H 3.413174 0.581987 5.078756 0
M  V30 43 H 5.117160 -1.405960 1.142006 0
M  V30 44 H 4.516038 -1.958905 -3.300954 0
M  V30 45 H 0.881444 1.548811 -1.690589 0
M  V30 46 H 1.050064 1.647254 -4.430564 0
M  V30 47 H -0.155850 0.497171 -3.816086 0
M  V30 48 H -0.014162 3.443308 -2.876671 0
M  V30 49 H -1.088314 2.736371 -4.143936 0
M  V30 50 H -0.687631 2.734026 -0.430341 0
M  V30 51 H -2.324679 1.775528 1.076839 0
M  V30 52 H -5.164816 0.610605 0.955911 0
M  V30 53 H -5.302117 -1.713424 1.946144 0
M  V30 54 H -5.485415 -4.243515 0.074280 0
M  V30 55 H -4.499026 -6.565187 0.190090 0
M  V30 56 H -2.422408 -6.891065 1.642409 0
M  V30 57 H -2.470539 -2.794758 2.684523 0
M  V30 58 H -4.392572 0.175006 -2.343636 0
M  V30 59 H -2.697218 1.149433 -3.815524 0
M  V30 60 H 1.295707 1.539440 0.075594 0
M  V30 END ATOM
M  V30 BEGIN BOND
M  V30 1 1 1 2
M  V30 2 1 2 3
M  V30 3 1 3 4
M  V30 4 2 4 5
M  V30 5 1 5 6
M  V30 6 2 6 7
M  V30 7 1 7 8
M  V30 8 2 8 9
M  V30 9 1 9 10
M  V30 10 1 10 11
M  V30 11 1 11 12
M  V30 12 1 12 13
M  V30 13 1 13 14
M  V30 14 2 14 15
M  V30 15 1 15 16
M  V30 16 2 16 17
M  V30 17 1 17 18
M  V30 18 1 18 19
M  V30 19 2 19 20
M  V30 20 1 19 21
M  V30 21 1 21 22
M  V30 22 2 22 23
M  V30 23 1 23 24
M  V30 24 2 24 25
M  V30 25 1 25 26
M  V30 26 1 26 27
M  V30 27 1 27 28
M  V30 28 1 27 29
M  V30 29 1 27 30
M  V30 30 2 26 31
M  V30 31 1 17 32
M  V30 32 2 32 33
M  V30 33 2 10 34
M  V30 34 1 34 35
M  V30 35 2 35 36
M  V30 36 1 36 37
M  V30 37 1 36 4
M  V30 38 1 34 6
M  V30 39 1 33 14
M  V30 40 1 31 22
M  V30 41 1 1 38
M  V30 42 1 1 39
M  V30 43 1 1 40
M  V30 44 1 2 41
M  V30 45 1 2 42
M  V30 46 1 5 43
M  V30 47 1 8 44
M  V30 48 1 11 45
M  V30 49 1 12 46
M  V30 50 1 12 47
M  V30 51 1 13 48
M  V30 52 1 13 49
M  V30 53 1 15 50
M  V30 54 1 16 51
M  V30 55 1 18 52
M  V30 56 1 21 53
M  V30 57 1 23 54
M  V30 58 1 24 55
M  V30 59 1 25 56
M  V30 60 1 31 57
M  V30 61 1 32 58
M  V30 62 1 33 59
M  V30 63 1 35 60
M  V30 END BOND
M  V30 END CTAB
M  END
>  <Dataset>  (137) 
ChEMBL_Kinases

>  <Ligand_Instance>  (137) 
nan

>  <PDB_ID>  (137) 
nan

>  <Standardized_SMILES>  (137) 
CCOc1cc2ncnc(NCCc3ccc(NC(=O)Nc4cccc(C(F)(F)F)c4)cc3)c2cc1F

>  <Name>  (137) 
nan

>  <Pocket>  (137) 
nan

>  <ATP_Site>  (137) 
nan

>  <Peripheral>  (137) 
nan

>  <Num_H_Atoms_ProtBoundConf>  (137) 
nan

>  <Num_Resolved_Atoms>  (137) 
nan

>  <Num_Not_Resolved_Atoms>  (137) 
nan

$$$$
CHEMBL5082257
     RDKit          3D

  0  0  0  0  0  0  0  0  0  0999 V3000
M  V30 BEGIN CTAB
M  V30 COUNTS 54 58 0 0 0
M  V30 BEGIN ATOM
M  V30 1 C 3.581402 -4.924707 1.984768 0
M  V30 2 N 2.519864 -4.709518 1.051871 0
M  V30 3 C 1.600238 -3.717657 1.491149 0
M  V30 4 C 1.946732 -2.321920 1.091525 0
M  V30 5 N 2.844333 -2.278339 -0.032048 0
M  V30 6 C 3.152726 -0.955695 -0.447598 0
M  V30 7 O 3.894757 -0.577582 -1.367610 0
M  V30 8 C 2.651892 0.281630 0.128480 0
M  V30 9 C 3.177474 1.224279 0.982877 0
M  V30 10 C 2.397607 2.307508 1.316500 0
M  V30 11 C 1.119390 2.539064 0.865564 0
M  V30 12 N 0.382604 3.724681 1.245900 0
M  V30 13 C -0.935517 3.742838 0.654545 0
M  V30 14 N -1.464463 4.837138 0.117816 0
M  V30 15 C -2.696331 4.913920 -0.452204 0
M  V30 16 C -3.403521 3.731408 -0.440746 0
M  V30 17 F -4.655739 3.575342 -0.961114 0
M  V30 18 C -2.900938 2.580095 0.102412 0
M  V30 19 C -3.494507 1.256298 0.242284 0
M  V30 20 C -4.831656 1.076763 0.618552 0
M  V30 21 C -5.380412 -0.169078 0.782149 0
M  V30 22 C -4.611901 -1.291731 0.577377 0
M  V30 23 N -5.169534 -2.518550 0.751929 0
M  V30 24 C -4.416543 -3.609869 0.559225 0
M  V30 25 C -3.081598 -3.506912 0.185666 0
M  V30 26 N -2.531306 -2.287323 0.012438 0
M  V30 27 C -3.272531 -1.156194 0.201464 0
M  V30 28 C -2.754220 0.109673 0.044470 0
M  V30 29 N -1.666629 2.616388 0.640663 0
M  V30 30 N 0.646478 1.592793 0.034606 0
M  V30 31 C 1.349708 0.514445 -0.331583 0
M  V30 32 C 3.462143 -3.344148 -0.789326 0
M  V30 33 C 2.931118 -4.663212 -0.307321 0
M  V30 34 H 3.939160 -3.936813 2.339065 0
M  V30 35 H 4.408806 -5.450707 1.454263 0
M  V30 36 H 3.228994 -5.520855 2.874409 0
M  V30 37 H 1.616563 -3.736807 2.600860 0
M  V30 38 H 0.527009 -3.969584 1.239168 0
M  V30 39 H 2.446097 -1.763854 1.910008 0
M  V30 40 H 1.027365 -1.717016 0.855822 0
M  V30 41 H 4.160372 0.960849 1.274260 0
M  V30 42 H 2.866621 3.005676 1.986361 0
M  V30 43 H 0.875882 4.389303 1.875019 0
M  V30 44 H -3.146007 5.785060 -0.895530 0
M  V30 45 H -5.419736 1.977020 0.774459 0
M  V30 46 H -6.415258 -0.270838 1.071461 0
M  V30 47 H -4.839181 -4.582508 0.691587 0
M  V30 48 H -2.514446 -4.418097 0.044255 0
M  V30 49 H -1.713974 0.128690 -0.244605 0
M  V30 50 H 0.741106 -0.095256 -1.008599 0
M  V30 51 H 4.562397 -3.301307 -0.653786 0
M  V30 52 H 3.278926 -3.183765 -1.881339 0
M  V30 53 H 2.128630 -5.002298 -1.021021 0
M  V30 54 H 3.740511 -5.412174 -0.432099 0
M  V30 END ATOM
M  V30 BEGIN BOND
M  V30 1 1 1 2
M  V30 2 1 2 3
M  V30 3 1 3 4
M  V30 4 1 4 5
M  V30 5 1 5 6
M  V30 6 2 6 7
M  V30 7 1 6 8
M  V30 8 2 8 9
M  V30 9 1 9 10
M  V30 10 2 10 11
M  V30 11 1 11 12
M  V30 12 1 12 13
M  V30 13 2 13 14
M  V30 14 1 14 15
M  V30 15 2 15 16
M  V30 16 1 16 17
M  V30 17 1 16 18
M  V30 18 1 18 19
M  V30 19 2 19 20
M  V30 20 1 20 21
M  V30 21 2 21 22
M  V30 22 1 22 23
M  V30 23 2 23 24
M  V30 24 1 24 25
M  V30 25 2 25 26
M  V30 26 1 26 27
M  V30 27 2 27 28
M  V30 28 2 18 29
M  V30 29 1 11 30
M  V30 30 2 30 31
M  V30 31 1 5 32
M  V30 32 1 32 33
M  V30 33 1 33 2
M  V30 34 1 31 8
M  V30 35 1 29 13
M  V30 36 1 28 19
M  V30 37 1 27 22
M  V30 38 1 1 34
M  V30 39 1 1 35
M  V30 40 1 1 36
M  V30 41 1 3 37
M  V30 42 1 3 38
M  V30 43 1 4 39
M  V30 44 1 4 40
M  V30 45 1 9 41
M  V30 46 1 10 42
M  V30 47 1 12 43
M  V30 48 1 15 44
M  V30 49 1 20 45
M  V30 50 1 21 46
M  V30 51 1 24 47
M  V30 52 1 25 48
M  V30 53 1 28 49
M  V30 54 1 31 50
M  V30 55 1 32 51
M  V30 56 1 32 52
M  V30 57 1 33 53
M  V30 58 1 33 54
M  V30 END BOND
M  V30 END CTAB
M  END
>  <Dataset>  (138) 
ChEMBL_Kinases

>  <Ligand_Instance>  (138) 
nan

>  <PDB_ID>  (138) 
nan

>  <Standardized_SMILES>  (138) 
CN1CCN(C(=O)c2ccc(Nc3ncc(F)c(-c4ccc5nccnc5c4)n3)nc2)CC1

>  <Name>  (138) 
nan

>  <Pocket>  (138) 
nan

>  <ATP_Site>  (138) 
nan

>  <Peripheral>  (138) 
nan

>  <Num_H_Atoms_ProtBoundConf>  (138) 
nan

>  <Num_Resolved_Atoms>  (138) 
nan

>  <Num_Not_Resolved_Atoms>  (138) 
nan

$$$$
CHEMBL5081823
     RDKit          3D

  0  0  0  0  0  0  0  0  0  0999 V3000
M  V30 BEGIN CTAB
M  V30 COUNTS 53 57 0 0 0
M  V30 BEGIN ATOM
M  V30 1 C 2.957902 -6.261254 2.598048 0
M  V30 2 C 3.603301 -4.908486 2.665041 0
M  V30 3 N 4.830296 -4.537748 3.058203 0
M  V30 4 N 4.943366 -3.207949 2.937971 0
M  V30 5 C 3.778335 -2.707261 2.461690 0
M  V30 6 N 3.388766 -1.455823 2.171522 0
M  V30 7 C 2.163270 -1.164495 1.698943 0
M  V30 8 C 1.685299 0.172958 1.366826 0
M  V30 9 C 2.543191 1.244345 1.543627 0
M  V30 10 C 2.060876 2.519415 1.217493 0
M  V30 11 C 0.776500 2.762871 0.729683 0
M  V30 12 N 0.417528 4.107165 0.439207 0
M  V30 13 S -0.404178 4.558842 -1.001244 0
M  V30 14 O -0.577377 6.050533 -0.997578 0
M  V30 15 O 0.425554 4.239981 -2.227536 0
M  V30 16 C -1.975654 3.807802 -1.138943 0
M  V30 17 C -2.368477 2.969132 -2.163574 0
M  V30 18 C -3.657690 2.432259 -2.155941 0
M  V30 19 Cl -4.098116 1.381205 -3.473228 0
M  V30 20 C -4.522730 2.735794 -1.141075 0
M  V30 21 C -4.152883 3.579506 -0.094080 0
M  V30 22 C -2.858378 4.099494 -0.130785 0
M  V30 23 F -2.572536 4.912015 0.922474 0
M  V30 24 C -0.023483 1.672923 0.575791 0
M  V30 25 C 0.397805 0.394666 0.880529 0
M  V30 26 N 1.296864 -2.202094 1.515013 0
M  V30 27 C 1.667363 -3.469021 1.800245 0
M  V30 28 O 0.774261 -4.527780 1.609341 0
M  V30 29 C -0.508349 -4.330763 1.127786 0
M  V30 30 C -0.536501 -4.406629 -0.263384 0
M  V30 31 C -1.732179 -4.237327 -0.959521 0
M  V30 32 C -2.871659 -3.992581 -0.187022 0
M  V30 33 N -4.152091 -3.804821 -0.821254 0
M  V30 34 N -2.829175 -3.921970 1.156980 0
M  V30 35 C -1.672733 -4.085630 1.831743 0
M  V30 36 C 2.923064 -3.772119 2.285025 0
M  V30 37 H 2.444757 -6.420190 1.643693 0
M  V30 38 H 3.654079 -7.061296 2.877082 0
M  V30 39 H 2.176786 -6.253571 3.393427 0
M  V30 40 H 5.789838 -2.640479 3.171559 0
M  V30 41 H 3.554722 1.144097 1.916765 0
M  V30 42 H 2.740965 3.351392 1.359749 0
M  V30 43 H 0.699289 4.808108 1.185945 0
M  V30 44 H -1.628642 2.774212 -2.933149 0
M  V30 45 H -5.530449 2.327258 -1.118208 0
M  V30 46 H -4.860805 3.798941 0.692382 0
M  V30 47 H -1.024202 1.834644 0.199090 0
M  V30 48 H -0.235581 -0.467240 0.758559 0
M  V30 49 H 0.306785 -4.592619 -0.918858 0
M  V30 50 H -1.802197 -4.287733 -2.038737 0
M  V30 51 H -4.016623 -2.940429 -1.399541 0
M  V30 52 H -4.271034 -2.987986 -1.463622 0
M  V30 53 H -1.530978 -4.048246 2.903450 0
M  V30 END ATOM
M  V30 BEGIN BOND
M  V30 1 1 1 2
M  V30 2 2 2 3
M  V30 3 1 3 4
M  V30 4 1 4 5
M  V30 5 2 5 6
M  V30 6 1 6 7
M  V30 7 1 7 8
M  V30 8 2 8 9
M  V30 9 1 9 10
M  V30 10 2 10 11
M  V30 11 1 11 12
M  V30 12 1 12 13
M  V30 13 2 13 14
M  V30 14 2 13 15
M  V30 15 1 13 16
M  V30 16 2 16 17
M  V30 17 1 17 18
M  V30 18 1 18 19
M  V30 19 2 18 20
M  V30 20 1 20 21
M  V30 21 2 21 22
M  V30 22 1 22 23
M  V30 23 1 11 24
M  V30 24 2 24 25
M  V30 25 2 7 26
M  V30 26 1 26 27
M  V30 27 1 27 28
M  V30 28 1 28 29
M  V30 29 2 29 30
M  V30 30 1 30 31
M  V30 31 2 31 32
M  V30 32 1 32 33
M  V30 33 1 32 34
M  V30 34 2 34 35
M  V30 35 2 27 36
M  V30 36 1 36 2
M  V30 37 1 36 5
M  V30 38 1 25 8
M  V30 39 1 35 29
M  V30 40 1 22 16
M  V30 41 1 1 37
M  V30 42 1 1 38
M  V30 43 1 1 39
M  V30 44 1 4 40
M  V30 45 1 9 41
M  V30 46 1 10 42
M  V30 47 1 12 43
M  V30 48 1 17 44
M  V30 49 1 20 45
M  V30 50 1 21 46
M  V30 51 1 24 47
M  V30 52 1 25 48
M  V30 53 1 30 49
M  V30 54 1 31 50
M  V30 55 1 33 51
M  V30 56 1 33 52
M  V30 57 1 35 53
M  V30 END BOND
M  V30 END CTAB
M  END
>  <Dataset>  (139) 
ChEMBL_Kinases

>  <Ligand_Instance>  (139) 
nan

>  <PDB_ID>  (139) 
nan

>  <Standardized_SMILES>  (139) 
Cc1n[nH]c2nc(-c3ccc(NS(=O)(=O)c4cc(Cl)ccc4F)cc3)nc(Oc3ccc(N)nc3)c12

>  <Name>  (139) 
nan

>  <Pocket>  (139) 
nan

>  <ATP_Site>  (139) 
nan

>  <Peripheral>  (139) 
nan

>  <Num_H_Atoms_ProtBoundConf>  (139) 
nan

>  <Num_Resolved_Atoms>  (139) 
nan

>  <Num_Not_Resolved_Atoms>  (139) 
nan

$$$$
CHEMBL5083540
     RDKit          3D

  0  0  0  0  0  0  0  0  0  0999 V3000
M  V30 BEGIN CTAB
M  V30 COUNTS 46 48 0 0 0
M  V30 BEGIN ATOM
M  V30 1 C -2.803030 -4.600728 0.270105 0
M  V30 2 C -1.337328 -4.824924 0.527513 0
M  V30 3 C -0.529939 -4.329200 -0.581420 0
M  V30 4 C -0.044621 -5.134898 -1.626677 0
M  V30 5 N 0.644441 -4.433972 -2.542421 0
M  V30 6 C 0.628244 -3.158898 -2.123069 0
M  V30 7 N 1.187874 -2.044120 -2.678311 0
M  V30 8 C 1.051346 -0.854559 -2.062656 0
M  V30 9 C 0.349434 -0.752220 -0.873254 0
M  V30 10 C 0.340310 0.605232 -0.336733 0
M  V30 11 C -0.130079 1.562751 -1.214619 0
M  V30 12 C -0.140973 2.866227 -0.764721 0
M  V30 13 C 0.311290 3.114199 0.508363 0
M  V30 14 N 0.256505 4.480140 0.867261 0
M  V30 15 C 0.775907 2.167735 1.374690 0
M  V30 16 C 1.209019 2.643600 2.674996 0
M  V30 17 O 1.156026 3.855081 2.973078 0
M  V30 18 N 1.731140 1.986766 3.798139 0
M  V30 19 C 1.969772 3.006309 4.788110 0
M  V30 20 C 2.022115 0.587142 4.052024 0
M  V30 21 C 0.789575 0.883368 0.938517 0
M  V30 22 C -0.239270 -1.864857 -0.272464 0
M  V30 23 C -0.980636 -1.749178 0.975963 0
M  V30 24 C -0.075481 -3.074720 -0.940212 0
M  V30 25 H -3.396832 -4.536469 1.196320 0
M  V30 26 H -2.987880 -3.751650 -0.438385 0
M  V30 27 H -3.202013 -5.490509 -0.274089 0
M  V30 28 H -1.193795 -5.925594 0.598554 0
M  V30 29 H -1.017689 -4.466904 1.525792 0
M  V30 30 H -0.212445 -6.219628 -1.683341 0
M  V30 31 H 1.078331 -4.861974 -3.388333 0
M  V30 32 H 1.532359 -0.055243 -2.593574 0
M  V30 33 H -0.477879 1.325419 -2.213064 0
M  V30 34 H -0.509378 3.634880 -1.443836 0
M  V30 35 H 0.193677 5.465231 1.145988 0
M  V30 36 H 0.951325 5.121193 0.421376 0
M  V30 37 H 2.477782 2.553566 5.677935 0
M  V30 38 H 1.017816 3.452068 5.140510 0
M  V30 39 H 2.672449 3.783163 4.403814 0
M  V30 40 H 2.368439 0.508779 5.121079 0
M  V30 41 H 1.121663 -0.056453 3.987775 0
M  V30 42 H 2.793517 0.235251 3.351032 0
M  V30 43 H 1.157416 0.118729 1.604743 0
M  V30 44 H -2.079721 -1.988262 0.902756 0
M  V30 45 H -1.047067 -0.650053 1.240998 0
M  V30 46 H -0.493418 -2.178281 1.871649 0
M  V30 END ATOM
M  V30 BEGIN BOND
M  V30 1 1 1 2
M  V30 2 1 2 3
M  V30 3 2 3 4
M  V30 4 1 4 5
M  V30 5 1 5 6
M  V30 6 2 6 7
M  V30 7 1 7 8
M  V30 8 2 8 9
M  V30 9 1 9 10
M  V30 10 2 10 11
M  V30 11 1 11 12
M  V30 12 2 12 13
M  V30 13 1 13 14
M  V30 14 1 13 15
M  V30 15 1 15 16
M  V30 16 2 16 17
M  V30 17 1 16 18
M  V30 18 1 18 19
M  V30 19 1 18 20
M  V30 20 2 15 21
M  V30 21 1 9 22
M  V30 22 1 22 23
M  V30 23 2 22 24
M  V30 24 1 24 3
M  V30 25 1 24 6
M  V30 26 1 21 10
M  V30 27 1 1 25
M  V30 28 1 1 26
M  V30 29 1 1 27
M  V30 30 1 2 28
M  V30 31 1 2 29
M  V30 32 1 4 30
M  V30 33 1 5 31
M  V30 34 1 8 32
M  V30 35 1 11 33
M  V30 36 1 12 34
M  V30 37 1 14 35
M  V30 38 1 14 36
M  V30 39 1 19 37
M  V30 40 1 19 38
M  V30 41 1 19 39
M  V30 42 1 20 40
M  V30 43 1 20 41
M  V30 44 1 20 42
M  V30 45 1 21 43
M  V30 46 1 23 44
M  V30 47 1 23 45
M  V30 48 1 23 46
M  V30 END BOND
M  V30 END CTAB
M  END
>  <Dataset>  (140) 
ChEMBL_Kinases

>  <Ligand_Instance>  (140) 
nan

>  <PDB_ID>  (140) 
nan

>  <Standardized_SMILES>  (140) 
CCc1c[nH]c2ncc(-c3ccc(N)c(C(=O)N(C)C)c3)c(C)c12

>  <Name>  (140) 
nan

>  <Pocket>  (140) 
nan

>  <ATP_Site>  (140) 
nan

>  <Peripheral>  (140) 
nan

>  <Num_H_Atoms_ProtBoundConf>  (140) 
nan

>  <Num_Resolved_Atoms>  (140) 
nan

>  <Num_Not_Resolved_Atoms>  (140) 
nan

$$$$
CHEMBL5083550
     RDKit          3D

  0  0  0  0  0  0  0  0  0  0999 V3000
M  V30 BEGIN CTAB
M  V30 COUNTS 122 124 0 0 0
M  V30 BEGIN ATOM
M  V30 1 C -3.423212 -5.312562 -1.952539 0
M  V30 2 O -2.424398 -4.386495 -2.192924 0
M  V30 3 C -1.246782 -4.527398 -2.902146 0
M  V30 4 O -1.800739 -5.642382 -2.976423 0
M  V30 5 C -0.297963 -3.355955 -3.030380 0 CFG=2
M  V30 6 C 0.976513 -3.682023 -2.348560 0
M  V30 7 C 1.765142 -4.837517 -2.831928 0
M  V30 8 C 1.132025 -6.177289 -2.796050 0
M  V30 9 C 2.348855 -4.613814 -4.217813 0
M  V30 10 N -0.936312 -2.261174 -2.276848 0
M  V30 11 C -1.568256 -1.279352 -3.078219 0
M  V30 12 O -1.751307 -1.037233 -4.275273 0
M  V30 13 C -2.303402 -0.091030 -2.521574 0 CFG=2
M  V30 14 C -3.616877 -0.770033 -2.037892 0
M  V30 15 C -4.452191 -0.778226 -3.352205 0
M  V30 16 C -4.286645 0.727260 -3.618747 0 CFG=1
M  V30 17 O -4.829817 1.438262 -2.584618 0
M  V30 18 C -4.271721 2.615005 -2.212151 0
M  V30 19 C -5.024035 3.147521 -1.018587 0
M  V30 20 N -4.982550 2.293348 0.152567 0
M  V30 21 C -3.897071 1.856267 0.961808 0
M  V30 22 O -3.222855 2.540230 0.155701 0
M  V30 23 C -2.776856 1.396278 1.809165 0
M  V30 24 C -1.535689 1.963041 1.231992 0
M  V30 25 C -0.238686 1.739766 1.965848 0 CFG=2
M  V30 26 N -0.397943 2.357713 3.247594 0
M  V30 27 C 0.458183 2.074206 4.297106 0
M  V30 28 O 1.446219 1.263045 4.221630 0
M  V30 29 C 0.869662 2.271677 5.685885 0 CFG=2
M  V30 30 C 1.095586 3.673157 6.112356 0
M  V30 31 C -0.053873 4.610177 6.043511 0
M  V30 32 S 0.534548 6.249573 6.645229 0
M  V30 33 C 1.738821 6.972244 5.520109 0
M  V30 34 N 2.132348 1.537840 5.915324 0
M  V30 35 C 2.648444 0.448901 6.660813 0
M  V30 36 O 1.741174 -0.077157 7.360041 0
M  V30 37 C 4.087803 0.156256 6.479121 0 CFG=2
M  V30 38 C 4.830211 0.322227 7.764047 0
M  V30 39 C 6.275823 0.491500 7.291497 0
M  V30 40 C 6.156414 0.652721 5.770313 0
M  V30 41 N 4.755742 1.067256 5.573950 0
M  V30 42 C 0.711529 2.641754 1.125118 0
M  V30 43 O 1.325946 3.718483 1.096587 0
M  V30 44 N 1.176648 2.233353 -0.153762 0
M  V30 45 C 1.947209 2.848987 -1.251943 0 CFG=1
M  V30 46 C 3.343044 2.229185 -1.326223 0
M  V30 47 O 3.278351 0.866793 -1.564865 0
M  V30 48 C 1.196729 2.543766 -2.532775 0
M  V30 49 O 1.440368 3.405009 -3.396108 0
M  V30 50 N 0.301018 1.609437 -3.150694 0
M  V30 51 C -0.398542 1.745905 -4.421869 0 CFG=1
M  V30 52 C 0.322103 1.249853 -5.623062 0 CFG=1
M  V30 53 C 1.425617 2.205341 -6.033578 0
M  V30 54 O 0.700478 -0.055393 -5.683234 0
M  V30 55 P 0.093745 -0.694177 -7.147020 0
M  V30 56 O -1.143823 0.025039 -7.609057 0
M  V30 57 O 1.244238 -0.551620 -8.378080 0
M  V30 58 O -0.314642 -2.307485 -6.859521 0
M  V30 59 C -1.804558 1.403493 -4.308283 0
M  V30 60 O -2.556475 1.819032 -5.207128 0
M  V30 61 N -2.808744 0.746256 -3.589990 0
M  V30 62 H -3.890913 -5.730309 -2.866071 0
M  V30 63 H -4.202046 -4.774666 -1.329428 0
M  V30 64 H -3.031001 -6.141230 -1.337117 0
M  V30 65 H -0.219763 -3.074481 -4.103724 0
M  V30 66 H 1.652804 -2.789877 -2.290495 0
M  V30 67 H 0.684626 -3.943388 -1.274732 0
M  V30 68 H 2.671808 -4.895203 -2.161617 0
M  V30 69 H 0.541060 -6.391997 -1.899700 0
M  V30 70 H 0.625512 -6.488157 -3.738364 0
M  V30 71 H 1.991122 -6.928932 -2.726852 0
M  V30 72 H 1.582366 -4.323596 -4.964960 0
M  V30 73 H 3.234216 -3.947167 -4.207950 0
M  V30 74 H 2.738856 -5.609415 -4.576403 0
M  V30 75 H -0.957717 -2.158128 -1.245029 0
M  V30 76 H -1.754565 0.381203 -1.740916 0
M  V30 77 H -4.121013 -0.195982 -1.275411 0
M  V30 78 H -3.464004 -1.797968 -1.727693 0
M  V30 79 H -5.448508 -1.074740 -3.082699 0
M  V30 80 H -4.018239 -1.406311 -4.117993 0
M  V30 81 H -4.691179 0.973814 -4.560736 0
M  V30 82 H -4.513564 3.353551 -3.043683 0
M  V30 83 H -3.182596 2.653412 -2.134732 0
M  V30 84 H -4.623212 4.142209 -0.688731 0
M  V30 85 H -6.082449 3.333760 -1.273051 0
M  V30 86 H -5.582586 1.723721 0.808285 0
M  V30 87 H -2.954205 1.707386 2.865484 0
M  V30 88 H -2.783894 0.276128 1.845446 0
M  V30 89 H -1.720536 3.091604 1.176247 0
M  V30 90 H -1.406555 1.709058 0.141155 0
M  V30 91 H 0.201518 0.762108 1.952098 0
M  V30 92 H -1.039856 3.024048 3.706054 0
M  V30 93 H 0.102255 1.813661 6.375755 0
M  V30 94 H 1.449341 3.691944 7.188766 0
M  V30 95 H 1.986194 4.121199 5.571307 0
M  V30 96 H -0.790486 4.265890 6.828836 0
M  V30 97 H -0.526615 4.765612 5.079760 0
M  V30 98 H 1.595170 8.084409 5.529746 0
M  V30 99 H 2.776901 6.790441 5.857254 0
M  V30 100 H 1.579838 6.675241 4.467844 0
M  V30 101 H 2.791157 2.076627 5.267338 0
M  V30 102 H 4.291349 -0.863005 6.101101 0
M  V30 103 H 4.445819 1.213093 8.285926 0
M  V30 104 H 4.727964 -0.603520 8.405743 0
M  V30 105 H 6.880967 -0.391136 7.526078 0
M  V30 106 H 6.664017 1.408714 7.750237 0
M  V30 107 H 6.856878 1.423058 5.418713 0
M  V30 108 H 6.343325 -0.336014 5.311924 0
M  V30 109 H 4.713353 2.070238 5.877283 0
M  V30 110 H 0.909081 1.265889 -0.354314 0
M  V30 111 H 2.087167 3.922294 -1.129670 0
M  V30 112 H 3.914426 2.402786 -0.416678 0
M  V30 113 H 3.920938 2.668375 -2.161754 0
M  V30 114 H 3.250035 0.708134 -2.557397 0
M  V30 115 H 0.472973 1.008629 -2.327404 0
M  V30 116 H -0.369930 2.882788 -4.569930 0
M  V30 117 H -0.428008 1.367475 -6.483445 0
M  V30 118 H 0.999211 3.223038 -6.036939 0
M  V30 119 H 2.374882 2.067336 -5.531844 0
M  V30 120 H 1.651029 2.013262 -7.134214 0
M  V30 121 H 2.061436 -1.072331 -8.189637 0
M  V30 122 H -1.230671 -2.522290 -7.155142 0
M  V30 END ATOM
M  V30 BEGIN BOND
M  V30 1 1 1 2
M  V30 2 1 2 3
M  V30 3 2 3 4
M  V30 4 1 3 5
M  V30 5 1 5 6
M  V30 6 1 6 7
M  V30 7 1 7 8
M  V30 8 1 7 9
M  V30 9 1 5 10
M  V30 10 1 10 11
M  V30 11 2 11 12
M  V30 12 1 11 13
M  V30 13 1 13 14
M  V30 14 1 14 15
M  V30 15 1 15 16
M  V30 16 1 16 17
M  V30 17 1 17 18
M  V30 18 1 18 19
M  V30 19 1 19 20
M  V30 20 1 20 21
M  V30 21 2 21 22
M  V30 22 1 21 23
M  V30 23 1 23 24
M  V30 24 1 24 25
M  V30 25 1 25 26
M  V30 26 1 26 27
M  V30 27 2 27 28
M  V30 28 1 27 29
M  V30 29 1 29 30
M  V30 30 1 30 31
M  V30 31 1 31 32
M  V30 32 1 32 33
M  V30 33 1 29 34
M  V30 34 1 34 35
M  V30 35 2 35 36
M  V30 36 1 35 37
M  V30 37 1 37 38
M  V30 38 1 38 39
M  V30 39 1 39 40
M  V30 40 1 40 41
M  V30 41 1 25 42
M  V30 42 2 42 43
M  V30 43 1 42 44
M  V30 44 1 44 45
M  V30 45 1 45 46
M  V30 46 1 46 47
M  V30 47 1 45 48
M  V30 48 2 48 49
M  V30 49 1 48 50
M  V30 50 1 50 51
M  V30 51 1 51 52
M  V30 52 1 52 53
M  V30 53 1 52 54
M  V30 54 1 54 55
M  V30 55 2 55 56
M  V30 56 1 55 57
M  V30 57 1 55 58
M  V30 58 1 51 59
M  V30 59 2 59 60
M  V30 60 1 59 61
M  V30 61 1 61 13
M  V30 62 1 61 16
M  V30 63 1 41 37
M  V30 64 1 1 62
M  V30 65 1 1 63
M  V30 66 1 1 64
M  V30 67 1 5 65 CFG=3
M  V30 68 1 6 66
M  V30 69 1 6 67
M  V30 70 1 7 68
M  V30 71 1 8 69
M  V30 72 1 8 70
M  V30 73 1 8 71
M  V30 74 1 9 72
M  V30 75 1 9 73
M  V30 76 1 9 74
M  V30 77 1 10 75
M  V30 78 1 13 76 CFG=1
M  V30 79 1 14 77
M  V30 80 1 14 78
M  V30 81 1 15 79
M  V30 82 1 15 80
M  V30 83 1 16 81 CFG=3
M  V30 84 1 18 82
M  V30 85 1 18 83
M  V30 86 1 19 84
M  V30 87 1 19 85
M  V30 88 1 20 86
M  V30 89 1 23 87
M  V30 90 1 23 88
M  V30 91 1 24 89
M  V30 92 1 24 90
M  V30 93 1 25 91 CFG=1
M  V30 94 1 26 92
M  V30 95 1 29 93 CFG=1
M  V30 96 1 30 94
M  V30 97 1 30 95
M  V30 98 1 31 96
M  V30 99 1 31 97
M  V30 100 1 33 98
M  V30 101 1 33 99
M  V30 102 1 33 100
M  V30 103 1 34 101
M  V30 104 1 37 102 CFG=3
M  V30 105 1 38 103
M  V30 106 1 38 104
M  V30 107 1 39 105
M  V30 108 1 39 106
M  V30 109 1 40 107
M  V30 110 1 40 108
M  V30 111 1 41 109
M  V30 112 1 44 110
M  V30 113 1 45 111 CFG=1
M  V30 114 1 46 112
M  V30 115 1 46 113
M  V30 116 1 47 114
M  V30 117 1 50 115
M  V30 118 1 51 116 CFG=3
M  V30 119 1 52 117 CFG=3
M  V30 120 1 53 118
M  V30 121 1 53 119
M  V30 122 1 53 120
M  V30 123 1 57 121
M  V30 124 1 58 122
M  V30 END BOND
M  V30 END CTAB
M  END
>  <Dataset>  (141) 
ChEMBL_Kinases

>  <Ligand_Instance>  (141) 
nan

>  <PDB_ID>  (141) 
nan

>  <Standardized_SMILES>  (141) 
COC(=O)[C@H](CC(C)C)NC(=O)[C@@H]1CC[C@H]2OCCNC(=O)CC[C@H](NC(=O)[C@H](CCSC)NC(=O)[C@@H]3CCCN3)C(=O)N[C@@H](CO)C(=O)N[C@@H]([C@@H](C)OP(=O)(O)O)C(=O)N21

>  <Name>  (141) 
nan

>  <Pocket>  (141) 
nan

>  <ATP_Site>  (141) 
nan

>  <Peripheral>  (141) 
nan

>  <Num_H_Atoms_ProtBoundConf>  (141) 
nan

>  <Num_Resolved_Atoms>  (141) 
nan

>  <Num_Not_Resolved_Atoms>  (141) 
nan

$$$$
CHEMBL3780629
     RDKit          3D

  0  0  0  0  0  0  0  0  0  0999 V3000
M  V30 BEGIN CTAB
M  V30 COUNTS 86 90 0 0 0
M  V30 BEGIN ATOM
M  V30 1 C -1.248772 -9.691295 5.861945 0
M  V30 2 O -0.751408 -10.903869 5.526741 0
M  V30 3 C -0.362119 -11.157980 4.258124 0
M  V30 4 C -1.397873 -11.060115 3.183747 0
M  V30 5 N -1.975849 -9.746852 3.082095 0
M  V30 6 C -1.207522 -8.576570 2.789405 0
M  V30 7 O 0.030738 -8.597968 2.596430 0
M  V30 8 C -1.897880 -7.270402 2.708301 0
M  V30 9 C -1.192825 -6.120053 2.426054 0
M  V30 10 C -1.762827 -4.892099 2.334653 0
M  V30 11 C -1.039074 -3.636830 2.034154 0
M  V30 12 C -0.541826 -2.925374 3.230228 0
M  V30 13 O 0.148246 -1.739096 3.008324 0
M  V30 14 C -0.252942 -0.568246 2.443298 0
M  V30 15 C -1.434617 -0.114428 1.907789 0
M  V30 16 C -1.621482 1.141173 1.377843 0
M  V30 17 C -0.565244 2.024569 1.372247 0
M  V30 18 N -0.897090 3.291336 0.785481 0
M  V30 19 C -0.640606 3.349296 -0.624931 0
M  V30 20 O -0.158880 2.276919 -1.120700 0
M  V30 21 N -0.873620 4.474920 -1.497461 0
M  V30 22 C -0.531623 4.288235 -2.887828 0
M  V30 23 C -1.480162 3.788241 -3.762969 0
M  V30 24 C -0.846275 3.730560 -4.988240 0
M  V30 25 C -1.288924 3.289552 -6.343552 0
M  V30 26 C -2.727765 2.836850 -6.260619 0
M  V30 27 C -1.082764 4.332057 -7.394793 0
M  V30 28 C -0.475210 2.057894 -6.762870 0
M  V30 29 N 0.414501 4.174787 -4.843398 0
M  V30 30 N 0.618577 4.514772 -3.582103 0
M  V30 31 C 1.711660 5.037186 -2.822523 0
M  V30 32 C 1.980562 6.393707 -2.803590 0
M  V30 33 C 3.047416 6.843070 -2.054075 0
M  V30 34 C 3.860980 5.997708 -1.320178 0
M  V30 35 C 5.018786 6.446562 -0.502035 0
M  V30 36 C 3.568969 4.648429 -1.357615 0
M  V30 37 C 2.498156 4.157864 -2.104395 0
M  V30 38 C 0.647127 1.631664 1.895176 0
M  V30 39 C 1.628731 2.589184 1.838353 0
M  V30 40 C 2.870543 2.274848 2.339473 0
M  V30 41 C 3.101486 1.032715 2.877244 0
M  V30 42 C 2.074425 0.119182 2.903636 0
M  V30 43 C 0.802286 0.354470 2.423042 0
M  V30 44 C -3.139770 -4.853490 2.547628 0
M  V30 45 C -3.885335 -5.991899 2.834759 0
M  V30 46 N -3.227710 -7.165153 2.904000 0
M  V30 47 H -2.159673 -9.343049 5.387118 0
M  V30 48 H -0.456720 -8.930156 5.617630 0
M  V30 49 H -1.306598 -9.652106 6.983684 0
M  V30 50 H 0.438261 -10.398739 3.983723 0
M  V30 51 H 0.202177 -12.138037 4.173378 0
M  V30 52 H -0.984008 -11.400365 2.205709 0
M  V30 53 H -2.227285 -11.764313 3.421928 0
M  V30 54 H -3.020936 -9.584260 3.212820 0
M  V30 55 H -0.125638 -6.205826 2.269802 0
M  V30 56 H -1.725423 -3.013049 1.447570 0
M  V30 57 H -0.191883 -3.925295 1.357973 0
M  V30 58 H -1.326498 -2.720664 3.992517 0
M  V30 59 H 0.175307 -3.615567 3.765098 0
M  V30 60 H -2.228161 -0.818800 1.940385 0
M  V30 61 H -2.613380 1.352181 0.991573 0
M  V30 62 H -1.286789 4.167568 1.190254 0
M  V30 63 H -1.274686 5.318727 -0.997943 0
M  V30 64 H -2.517752 3.464908 -3.685330 0
M  V30 65 H -2.882558 2.264337 -5.328236 0
M  V30 66 H -2.980859 2.171024 -7.133235 0
M  V30 67 H -3.429614 3.708994 -6.225891 0
M  V30 68 H -1.079462 3.816460 -8.393192 0
M  V30 69 H -1.823277 5.137922 -7.418517 0
M  V30 70 H -0.031692 4.703811 -7.275138 0
M  V30 71 H -0.964230 1.662329 -7.671778 0
M  V30 72 H 0.537649 2.398311 -7.044855 0
M  V30 73 H -0.411238 1.311212 -5.946007 0
M  V30 74 H 1.367349 7.092052 -3.365720 0
M  V30 75 H 3.307248 7.891449 -1.999766 0
M  V30 76 H 5.992251 6.080077 -0.867807 0
M  V30 77 H 5.090068 7.552313 -0.498564 0
M  V30 78 H 4.920471 6.141658 0.557944 0
M  V30 79 H 4.183787 3.962205 -0.796123 0
M  V30 80 H 2.316962 3.075941 -2.093401 0
M  V30 81 H 1.485266 3.565127 1.427313 0
M  V30 82 H 3.666032 3.000431 2.313032 0
M  V30 83 H 4.059541 0.750832 3.277447 0
M  V30 84 H 2.272339 -0.861610 3.333183 0
M  V30 85 H -3.652780 -3.890748 2.487408 0
M  V30 86 H -4.941285 -5.941308 2.995095 0
M  V30 END ATOM
M  V30 BEGIN BOND
M  V30 1 1 1 2
M  V30 2 1 2 3
M  V30 3 1 3 4
M  V30 4 1 4 5
M  V30 5 1 5 6
M  V30 6 2 6 7
M  V30 7 1 6 8
M  V30 8 2 8 9
M  V30 9 1 9 10
M  V30 10 1 10 11
M  V30 11 1 11 12
M  V30 12 1 12 13
M  V30 13 1 13 14
M  V30 14 2 14 15
M  V30 15 1 15 16
M  V30 16 2 16 17
M  V30 17 1 17 18
M  V30 18 1 18 19
M  V30 19 2 19 20
M  V30 20 1 19 21
M  V30 21 1 21 22
M  V30 22 2 22 23
M  V30 23 1 23 24
M  V30 24 1 24 25
M  V30 25 1 25 26
M  V30 26 1 25 27
M  V30 27 1 25 28
M  V30 28 2 24 29
M  V30 29 1 29 30
M  V30 30 1 30 31
M  V30 31 2 31 32
M  V30 32 1 32 33
M  V30 33 2 33 34
M  V30 34 1 34 35
M  V30 35 1 34 36
M  V30 36 2 36 37
M  V30 37 1 17 38
M  V30 38 2 38 39
M  V30 39 1 39 40
M  V30 40 2 40 41
M  V30 41 1 41 42
M  V30 42 2 42 43
M  V30 43 2 10 44
M  V30 44 1 44 45
M  V30 45 2 45 46
M  V30 46 1 46 8
M  V30 47 1 43 14
M  V30 48 1 30 22
M  V30 49 1 37 31
M  V30 50 1 43 38
M  V30 51 1 1 47
M  V30 52 1 1 48
M  V30 53 1 1 49
M  V30 54 1 3 50
M  V30 55 1 3 51
M  V30 56 1 4 52
M  V30 57 1 4 53
M  V30 58 1 5 54
M  V30 59 1 9 55
M  V30 60 1 11 56
M  V30 61 1 11 57
M  V30 62 1 12 58
M  V30 63 1 12 59
M  V30 64 1 15 60
M  V30 65 1 16 61
M  V30 66 1 18 62
M  V30 67 1 21 63
M  V30 68 1 23 64
M  V30 69 1 26 65
M  V30 70 1 26 66
M  V30 71 1 26 67
M  V30 72 1 27 68
M  V30 73 1 27 69
M  V30 74 1 27 70
M  V30 75 1 28 71
M  V30 76 1 28 72
M  V30 77 1 28 73
M  V30 78 1 32 74
M  V30 79 1 33 75
M  V30 80 1 35 76
M  V30 81 1 35 77
M  V30 82 1 35 78
M  V30 83 1 36 79
M  V30 84 1 37 80
M  V30 85 1 39 81
M  V30 86 1 40 82
M  V30 87 1 41 83
M  V30 88 1 42 84
M  V30 89 1 44 85
M  V30 90 1 45 86
M  V30 END BOND
M  V30 END CTAB
M  END
>  <Dataset>  (142) 
ChEMBL_Kinases

>  <Ligand_Instance>  (142) 
nan

>  <PDB_ID>  (142) 
nan

>  <Standardized_SMILES>  (142) 
COCCNC(=O)c1cc(CCOc2ccc(NC(=O)Nc3cc(C(C)(C)C)nn3-c3ccc(C)cc3)c3ccccc23)ccn1

>  <Name>  (142) 
nan

>  <Pocket>  (142) 
nan

>  <ATP_Site>  (142) 
nan

>  <Peripheral>  (142) 
nan

>  <Num_H_Atoms_ProtBoundConf>  (142) 
nan

>  <Num_Resolved_Atoms>  (142) 
nan

>  <Num_Not_Resolved_Atoms>  (142) 
nan

$$$$
CHEMBL3780594
     RDKit          3D

  0  0  0  0  0  0  0  0  0  0999 V3000
M  V30 BEGIN CTAB
M  V30 COUNTS 37 39 0 0 0
M  V30 BEGIN ATOM
M  V30 1 C -0.739408 -5.366701 3.958468 0
M  V30 2 O 0.616628 -5.110336 3.642956 0
M  V30 3 C 0.900725 -4.329086 2.532530 0
M  V30 4 C -0.133303 -3.826023 1.770424 0
M  V30 5 C 0.277216 -3.067077 0.696830 0
M  V30 6 C 1.570709 -2.775726 0.329367 0
M  V30 7 N 1.963759 -1.989521 -0.761313 0
M  V30 8 C 1.284979 -1.227617 -1.784371 0
M  V30 9 N 0.638305 -0.027091 -1.288303 0
M  V30 10 C 1.448410 1.174875 -1.261365 0
M  V30 11 O 2.653816 1.382119 -1.588273 0
M  V30 12 C 0.694862 2.317330 -0.761781 0
M  V30 13 C 0.913024 3.656228 -0.518648 0
M  V30 14 C -0.085773 4.481150 -0.016448 0
M  V30 15 C -1.334977 3.957176 0.250323 0
M  V30 16 N -2.343560 4.822471 0.764954 0
M  V30 17 C -1.607771 2.620778 0.024755 0
M  V30 18 C -0.572003 1.856234 -0.474921 0
M  V30 19 C -0.608894 0.436948 -0.793230 0
M  V30 20 O -1.554964 -0.354997 -0.684888 0
M  V30 21 C 2.541469 -3.317293 1.143927 0
M  V30 22 C 2.223724 -4.087303 2.236617 0
M  V30 23 H -1.347577 -4.428865 3.978486 0
M  V30 24 H -0.829047 -5.823537 4.964022 0
M  V30 25 H -1.218253 -6.043927 3.234565 0
M  V30 26 H -1.168771 -4.005974 1.988720 0
M  V30 27 H -0.522624 -2.682449 0.093937 0
M  V30 28 H 3.014452 -1.894910 -0.919485 0
M  V30 29 H 0.454933 -1.896704 -2.169174 0
M  V30 30 H 1.938025 -0.973278 -2.644241 0
M  V30 31 H 1.897242 4.043807 -0.734692 0
M  V30 32 H 0.174651 5.527631 0.145624 0
M  V30 33 H -2.282379 5.366479 1.675071 0
M  V30 34 H -3.289364 5.072577 0.361725 0
M  V30 35 H -2.569487 2.218067 0.230285 0
M  V30 36 H 3.593622 -3.162026 0.961709 0
M  V30 37 H 3.005250 -4.499853 2.858812 0
M  V30 END ATOM
M  V30 BEGIN BOND
M  V30 1 1 1 2
M  V30 2 1 2 3
M  V30 3 2 3 4
M  V30 4 1 4 5
M  V30 5 2 5 6
M  V30 6 1 6 7
M  V30 7 1 7 8
M  V30 8 1 8 9
M  V30 9 1 9 10
M  V30 10 2 10 11
M  V30 11 1 10 12
M  V30 12 2 12 13
M  V30 13 1 13 14
M  V30 14 2 14 15
M  V30 15 1 15 16
M  V30 16 1 15 17
M  V30 17 2 17 18
M  V30 18 1 18 19
M  V30 19 2 19 20
M  V30 20 1 6 21
M  V30 21 2 21 22
M  V30 22 1 22 3
M  V30 23 1 19 9
M  V30 24 1 18 12
M  V30 25 1 1 23
M  V30 26 1 1 24
M  V30 27 1 1 25
M  V30 28 1 4 26
M  V30 29 1 5 27
M  V30 30 1 7 28
M  V30 31 1 8 29
M  V30 32 1 8 30
M  V30 33 1 13 31
M  V30 34 1 14 32
M  V30 35 1 16 33
M  V30 36 1 16 34
M  V30 37 1 17 35
M  V30 38 1 21 36
M  V30 39 1 22 37
M  V30 END BOND
M  V30 END CTAB
M  END
>  <Dataset>  (143) 
ChEMBL_Kinases

>  <Ligand_Instance>  (143) 
nan

>  <PDB_ID>  (143) 
nan

>  <Standardized_SMILES>  (143) 
COc1ccc(NCN2C(=O)c3ccc(N)cc3C2=O)cc1

>  <Name>  (143) 
nan

>  <Pocket>  (143) 
nan

>  <ATP_Site>  (143) 
nan

>  <Peripheral>  (143) 
nan

>  <Num_H_Atoms_ProtBoundConf>  (143) 
nan

>  <Num_Resolved_Atoms>  (143) 
nan

>  <Num_Not_Resolved_Atoms>  (143) 
nan

$$$$
CHEMBL5083557
     RDKit          3D

  0  0  0  0  0  0  0  0  0  0999 V3000
M  V30 BEGIN CTAB
M  V30 COUNTS 29 31 0 0 0
M  V30 BEGIN ATOM
M  V30 1 C -2.205233 -1.982805 3.805105 0
M  V30 2 C -0.822836 -1.540448 3.362856 0
M  V30 3 C -0.683511 -1.144721 2.044968 0
M  V30 4 C 0.553230 -0.768992 1.533345 0
M  V30 5 C 0.741946 -0.324269 0.160015 0
M  V30 6 C 1.919132 0.208467 -0.312325 0
M  V30 7 C 2.027243 0.637966 -1.619684 0
M  V30 8 C 0.952255 0.545213 -2.487017 0
M  V30 9 O 0.831861 0.895604 -3.766105 0
M  V30 10 C -0.390143 0.609151 -4.151782 0
M  V30 11 C -1.096992 0.056770 -3.098906 0
M  V30 12 C -0.231196 0.002529 -1.986800 0
M  V30 13 C -0.338686 -0.425285 -0.688768 0
M  V30 14 C 1.621473 -0.818293 2.419051 0
M  V30 15 C 1.455447 -1.213870 3.733679 0
M  V30 16 N 2.457424 -1.303384 4.727169 0
M  V30 17 N 0.239912 -1.576081 4.205435 0
M  V30 18 H -2.511821 -2.760893 3.037217 0
M  V30 19 H -2.191506 -2.423922 4.807330 0
M  V30 20 H -2.883567 -1.138655 3.715160 0
M  V30 21 H -1.569112 -1.128200 1.432445 0
M  V30 22 H 2.765108 0.290218 0.349184 0
M  V30 23 H 2.934849 1.045325 -1.995098 0
M  V30 24 H -0.817815 0.767366 -5.124394 0
M  V30 25 H -2.125498 -0.289334 -3.082505 0
M  V30 26 H -1.335651 -0.821753 -0.477421 0
M  V30 27 H 2.616924 -0.546239 2.172977 0
M  V30 28 H 2.687675 -0.946043 5.664433 0
M  V30 29 H 3.121985 -1.957820 4.269132 0
M  V30 END ATOM
M  V30 BEGIN BOND
M  V30 1 1 1 2
M  V30 2 2 2 3
M  V30 3 1 3 4
M  V30 4 1 4 5
M  V30 5 2 5 6
M  V30 6 1 6 7
M  V30 7 2 7 8
M  V30 8 1 8 9
M  V30 9 1 9 10
M  V30 10 2 10 11
M  V30 11 1 11 12
M  V30 12 2 12 13
M  V30 13 2 4 14
M  V30 14 1 14 15
M  V30 15 1 15 16
M  V30 16 2 15 17
M  V30 17 1 17 2
M  V30 18 1 13 5
M  V30 19 1 12 8
M  V30 20 1 1 18
M  V30 21 1 1 19
M  V30 22 1 1 20
M  V30 23 1 3 21
M  V30 24 1 6 22
M  V30 25 1 7 23
M  V30 26 1 10 24
M  V30 27 1 11 25
M  V30 28 1 13 26
M  V30 29 1 14 27
M  V30 30 1 16 28
M  V30 31 1 16 29
M  V30 END BOND
M  V30 END CTAB
M  END
>  <Dataset>  (144) 
ChEMBL_Kinases

>  <Ligand_Instance>  (144) 
nan

>  <PDB_ID>  (144) 
nan

>  <Standardized_SMILES>  (144) 
Cc1cc(-c2ccc3occc3c2)cc(N)n1

>  <Name>  (144) 
nan

>  <Pocket>  (144) 
nan

>  <ATP_Site>  (144) 
nan

>  <Peripheral>  (144) 
nan

>  <Num_H_Atoms_ProtBoundConf>  (144) 
nan

>  <Num_Resolved_Atoms>  (144) 
nan

>  <Num_Not_Resolved_Atoms>  (144) 
nan

$$$$
CHEMBL5083561
     RDKit          3D

  0  0  0  0  0  0  0  0  0  0999 V3000
M  V30 BEGIN CTAB
M  V30 COUNTS 118 124 0 0 0
M  V30 BEGIN ATOM
M  V30 1 C 2.638743 -4.744256 2.390558 0
M  V30 2 O 1.510793 -4.447265 1.579779 0
M  V30 3 C 0.650278 -3.394296 1.847027 0
M  V30 4 C 0.769924 -2.520540 2.901987 0
M  V30 5 C -0.094990 -1.478171 3.151928 0
M  V30 6 N 0.034773 -0.589544 4.255790 0
M  V30 7 C -0.812179 0.583528 4.187866 0
M  V30 8 C -0.307787 1.584712 5.192289 0
M  V30 9 C 1.184639 1.660241 5.105109 0
M  V30 10 O 1.554213 1.744648 3.771997 0
M  V30 11 C 2.220755 2.913049 3.441200 0
M  V30 12 C 2.627578 2.931155 2.009448 0
M  V30 13 O 3.234806 4.024452 1.748235 0
M  V30 14 N 2.408835 1.911454 1.007859 0
M  V30 15 C 2.921591 2.183587 -0.352783 0 CFG=2
M  V30 16 C 1.847466 2.249331 -1.325756 0
M  V30 17 O 1.445196 1.719488 -0.263893 0
M  V30 18 N 1.499197 2.649373 -2.621017 0
M  V30 19 C 2.485914 3.368971 -3.443231 0
M  V30 20 C 2.414569 2.783959 -4.821007 0 CFG=1
M  V30 21 O 3.469339 1.957924 -5.159019 0
M  V30 22 C 1.146052 1.977393 -4.796199 0
M  V30 23 C 0.464236 2.636251 -3.568091 0 CFG=1
M  V30 24 C -0.800940 1.985725 -3.278347 0
M  V30 25 O -1.586228 2.200620 -4.281806 0
M  V30 26 N -1.464957 1.209821 -2.297927 0
M  V30 27 C -2.810825 0.760464 -2.452032 0 CFG=1
M  V30 28 C -2.710454 -0.755676 -2.716362 0
M  V30 29 C -3.660603 1.016498 -1.269691 0
M  V30 30 C -3.636503 2.216281 -0.597677 0
M  V30 31 C -4.474089 2.328631 0.486502 0
M  V30 32 C -5.341070 1.393442 0.993735 0
M  V30 33 C -6.206265 1.479162 2.116106 0
M  V30 34 S -7.295604 0.150557 2.569289 0
M  V30 35 C -8.012847 1.051201 4.067094 0
M  V30 36 N -7.403699 2.054955 3.991449 0
M  V30 37 C -6.494444 2.386569 3.088270 0
M  V30 38 C -5.810942 3.706620 3.148045 0
M  V30 39 C -5.294408 0.209442 0.244842 0
M  V30 40 C -4.491798 0.002874 -0.851405 0
M  V30 41 C 3.949403 1.094759 -0.583977 0
M  V30 42 C 5.040631 1.226445 0.455371 0
M  V30 43 C 3.323831 -0.286476 -0.288325 0
M  V30 44 C 4.518646 0.977959 -1.937341 0
M  V30 45 C 1.774328 0.393694 5.687108 0
M  V30 46 C 0.913662 -0.810037 5.376575 0
M  V30 47 C -1.119779 -1.378023 2.232603 0
M  V30 48 C -1.286206 -2.225885 1.158453 0
M  V30 49 C -0.388806 -3.255068 0.955627 0
M  V30 50 N -0.689144 -4.047787 -0.189186 0
M  V30 51 C -0.056673 -3.505685 -1.339682 0
M  V30 52 O 0.603249 -2.473219 -1.066123 0
M  V30 53 C -0.154173 -4.068851 -2.674577 0
M  V30 54 C 0.550937 -3.395540 -3.673129 0
M  V30 55 C 0.528992 -3.850727 -4.985402 0
M  V30 56 C -0.204926 -4.979473 -5.271259 0
M  V30 57 C -0.895604 -5.633555 -4.276799 0
M  V30 58 C -1.673591 -6.828487 -4.585379 0
M  V30 59 C -1.800810 -7.408489 -5.827145 0
M  V30 60 C -2.623380 -8.525428 -5.704449 0
M  V30 61 N -2.948413 -8.559068 -4.394419 0
M  V30 62 N -2.395222 -7.565757 -3.727300 0
M  V30 63 N -0.845282 -5.159247 -3.028332 0
M  V30 64 H 3.312615 -3.889624 2.430773 0
M  V30 65 H 2.334613 -5.044767 3.424032 0
M  V30 66 H 3.153612 -5.610979 1.912646 0
M  V30 67 H 1.611848 -2.706359 3.544889 0
M  V30 68 H -1.844661 0.277265 4.458537 0
M  V30 69 H -0.743870 0.964177 3.144694 0
M  V30 70 H -0.569231 1.207474 6.203859 0
M  V30 71 H -0.728092 2.593246 5.001157 0
M  V30 72 H 1.526926 2.574252 5.667178 0
M  V30 73 H 3.162280 2.936443 4.047487 0
M  V30 74 H 1.641259 3.824740 3.684298 0
M  V30 75 H 1.900381 1.143281 1.493839 0
M  V30 76 H 3.424937 3.160596 -0.284152 0
M  V30 77 H 2.103772 4.430477 -3.471776 0
M  V30 78 H 3.502806 3.321488 -3.086904 0
M  V30 79 H 2.290086 3.559135 -5.607886 0
M  V30 80 H 3.212184 0.998790 -5.171109 0
M  V30 81 H 0.522069 2.097814 -5.685554 0
M  V30 82 H 1.326290 0.928823 -4.514972 0
M  V30 83 H 0.297280 3.684207 -3.908189 0
M  V30 84 H -0.807068 1.054466 -1.513942 0
M  V30 85 H -3.297170 1.141594 -3.373998 0
M  V30 86 H -2.525595 -1.225749 -1.753497 0
M  V30 87 H -1.814723 -0.891788 -3.350158 0
M  V30 88 H -3.627737 -1.101534 -3.236829 0
M  V30 89 H -2.988232 3.021443 -0.914022 0
M  V30 90 H -4.430849 3.269049 0.976794 0
M  V30 91 H -8.759981 0.647523 4.719975 0
M  V30 92 H -6.096772 4.318133 4.037558 0
M  V30 93 H -6.013886 4.355817 2.287802 0
M  V30 94 H -4.702598 3.606274 3.251703 0
M  V30 95 H -5.925479 -0.653064 0.506513 0
M  V30 96 H -4.505831 -0.934798 -1.382501 0
M  V30 97 H 4.598041 1.626345 1.387947 0
M  V30 98 H 5.570835 0.269454 0.646625 0
M  V30 99 H 5.730337 2.005140 0.067112 0
M  V30 100 H 4.098078 -1.045362 -0.526748 0
M  V30 101 H 2.467059 -0.472220 -0.930780 0
M  V30 102 H 3.134009 -0.393217 0.808705 0
M  V30 103 H 3.752748 0.756959 -2.726453 0
M  V30 104 H 5.153580 0.039956 -1.943811 0
M  V30 105 H 5.159879 1.776600 -2.302585 0
M  V30 106 H 1.808859 0.510296 6.786203 0
M  V30 107 H 2.823187 0.219965 5.367914 0
M  V30 108 H 0.290611 -1.010775 6.292985 0
M  V30 109 H 1.576084 -1.667386 5.265697 0
M  V30 110 H -1.833620 -0.574373 2.380386 0
M  V30 111 H -2.147014 -2.030844 0.506261 0
M  V30 112 H -1.273360 -4.921135 -0.295022 0
M  V30 113 H 1.134602 -2.506109 -3.468960 0
M  V30 114 H 1.091705 -3.296991 -5.732229 0
M  V30 115 H -0.248915 -5.367674 -6.278713 0
M  V30 116 H -1.375433 -7.111579 -6.762437 0
M  V30 117 H -2.985071 -9.264719 -6.419080 0
M  V30 118 H -2.452519 -7.319692 -2.717024 0
M  V30 END ATOM
M  V30 BEGIN BOND
M  V30 1 1 1 2
M  V30 2 1 2 3
M  V30 3 2 3 4
M  V30 4 1 4 5
M  V30 5 1 5 6
M  V30 6 1 6 7
M  V30 7 1 7 8
M  V30 8 1 8 9
M  V30 9 1 9 10
M  V30 10 1 10 11
M  V30 11 1 11 12
M  V30 12 2 12 13
M  V30 13 1 12 14
M  V30 14 1 14 15
M  V30 15 1 15 16
M  V30 16 2 16 17
M  V30 17 1 16 18
M  V30 18 1 18 19
M  V30 19 1 19 20
M  V30 20 1 20 21
M  V30 21 1 20 22
M  V30 22 1 22 23
M  V30 23 1 23 24
M  V30 24 2 24 25
M  V30 25 1 24 26
M  V30 26 1 26 27
M  V30 27 1 27 28
M  V30 28 1 27 29
M  V30 29 2 29 30
M  V30 30 1 30 31
M  V30 31 2 31 32
M  V30 32 1 32 33
M  V30 33 1 33 34
M  V30 34 1 34 35
M  V30 35 2 35 36
M  V30 36 1 36 37
M  V30 37 1 37 38
M  V30 38 1 32 39
M  V30 39 2 39 40
M  V30 40 1 15 41
M  V30 41 1 41 42
M  V30 42 1 41 43
M  V30 43 1 41 44
M  V30 44 1 9 45
M  V30 45 1 45 46
M  V30 46 2 5 47
M  V30 47 1 47 48
M  V30 48 2 48 49
M  V30 49 1 49 50
M  V30 50 1 50 51
M  V30 51 2 51 52
M  V30 52 1 51 53
M  V30 53 2 53 54
M  V30 54 1 54 55
M  V30 55 2 55 56
M  V30 56 1 56 57
M  V30 57 1 57 58
M  V30 58 2 58 59
M  V30 59 1 59 60
M  V30 60 2 60 61
M  V30 61 1 61 62
M  V30 62 2 57 63
M  V30 63 1 49 3
M  V30 64 1 63 53
M  V30 65 1 46 6
M  V30 66 1 62 58
M  V30 67 1 23 18
M  V30 68 1 40 29
M  V30 69 2 37 33
M  V30 70 1 1 64
M  V30 71 1 1 65
M  V30 72 1 1 66
M  V30 73 1 4 67
M  V30 74 1 7 68
M  V30 75 1 7 69
M  V30 76 1 8 70
M  V30 77 1 8 71
M  V30 78 1 9 72
M  V30 79 1 11 73
M  V30 80 1 11 74
M  V30 81 1 14 75
M  V30 82 1 15 76 CFG=1
M  V30 83 1 19 77
M  V30 84 1 19 78
M  V30 85 1 20 79 CFG=3
M  V30 86 1 21 80
M  V30 87 1 22 81
M  V30 88 1 22 82
M  V30 89 1 23 83 CFG=3
M  V30 90 1 26 84
M  V30 91 1 27 85 CFG=3
M  V30 92 1 28 86
M  V30 93 1 28 87
M  V30 94 1 28 88
M  V30 95 1 30 89
M  V30 96 1 31 90
M  V30 97 1 35 91
M  V30 98 1 38 92
M  V30 99 1 38 93
M  V30 100 1 38 94
M  V30 101 1 39 95
M  V30 102 1 40 96
M  V30 103 1 42 97
M  V30 104 1 42 98
M  V30 105 1 42 99
M  V30 106 1 43 100
M  V30 107 1 43 101
M  V30 108 1 43 102
M  V30 109 1 44 103
M  V30 110 1 44 104
M  V30 111 1 44 105
M  V30 112 1 45 106
M  V30 113 1 45 107
M  V30 114 1 46 108
M  V30 115 1 46 109
M  V30 116 1 47 110
M  V30 117 1 48 111
M  V30 118 1 50 112
M  V30 119 1 54 113
M  V30 120 1 55 114
M  V30 121 1 56 115
M  V30 122 1 59 116
M  V30 123 1 60 117
M  V30 124 1 62 118
M  V30 END BOND
M  V30 END CTAB
M  END
>  <Dataset>  (145) 
ChEMBL_Kinases

>  <Ligand_Instance>  (145) 
nan

>  <PDB_ID>  (145) 
nan

>  <Standardized_SMILES>  (145) 
COc1cc(N2CCC(OCC(=O)N[C@H](C(=O)N3C[C@@H](O)C[C@H]3C(=O)N[C@@H](C)c3ccc(-c4scnc4C)cc3)C(C)(C)C)CC2)ccc1NC(=O)c1cccc(-c2ccn[nH]2)n1

>  <Name>  (145) 
nan

>  <Pocket>  (145) 
nan

>  <ATP_Site>  (145) 
nan

>  <Peripheral>  (145) 
nan

>  <Num_H_Atoms_ProtBoundConf>  (145) 
nan

>  <Num_Resolved_Atoms>  (145) 
nan

>  <Num_Not_Resolved_Atoms>  (145) 
nan

$$$$
CHEMBL3780464
     RDKit          3D

  0  0  0  0  0  0  0  0  0  0999 V3000
M  V30 BEGIN CTAB
M  V30 COUNTS 49 52 0 0 0
M  V30 BEGIN ATOM
M  V30 1 C 1.751928 -5.603347 -4.444984 0
M  V30 2 O 2.662290 -4.556204 -4.727348 0
M  V30 3 C 3.110093 -3.741254 -3.698297 0
M  V30 4 C 2.675901 -3.943600 -2.406493 0
M  V30 5 C 3.165970 -3.093550 -1.443204 0
M  V30 6 C 4.049897 -2.056527 -1.641624 0
M  V30 7 N 4.532484 -1.182792 -0.650028 0
M  V30 8 C 4.278268 -1.025176 0.760531 0
M  V30 9 N 2.971147 -0.477017 1.072232 0
M  V30 10 C 2.835783 0.964453 1.145685 0
M  V30 11 O 3.720696 1.868436 0.958395 0
M  V30 12 C 1.480008 1.376658 1.483591 0
M  V30 13 C 0.835684 2.579645 1.672464 0
M  V30 14 C -0.509257 2.604750 1.996739 0
M  V30 15 C -1.214035 1.408305 2.132619 0
M  V30 16 N -2.603434 1.348544 2.465156 0
M  V30 17 C -3.195477 1.282050 3.734257 0
M  V30 18 O -2.373265 1.275084 4.701227 0
M  V30 19 C -4.647986 1.226945 3.878621 0
M  V30 20 C -5.563903 1.232938 2.843744 0
M  V30 21 C -6.910360 1.177477 3.098801 0
M  V30 22 C -7.391002 1.114333 4.387832 0
M  V30 23 C -6.511462 1.105365 5.470428 0
M  V30 24 C -5.160830 1.163235 5.152760 0
M  V30 25 C -0.587426 0.180317 1.947312 0
M  V30 26 C 0.757190 0.210578 1.624676 0
M  V30 27 C 1.654723 -0.910282 1.377314 0
M  V30 28 O 1.364598 -2.111780 1.415279 0
M  V30 29 C 4.443056 -1.910418 -2.954098 0
M  V30 30 C 3.992766 -2.724369 -3.965826 0
M  V30 31 H 1.637641 -6.162476 -5.401067 0
M  V30 32 H 0.748588 -5.201422 -4.153876 0
M  V30 33 H 2.108628 -6.290317 -3.648071 0
M  V30 34 H 1.984455 -4.739407 -2.193750 0
M  V30 35 H 2.812405 -3.297351 -0.463066 0
M  V30 36 H 5.240061 -0.476695 -1.009370 0
M  V30 37 H 5.059472 -0.364988 1.184386 0
M  V30 38 H 4.392799 -2.036481 1.255935 0
M  V30 39 H 1.399204 3.491007 1.562545 0
M  V30 40 H -1.044981 3.531648 2.151703 0
M  V30 41 H -3.144748 1.362491 1.571589 0
M  V30 42 H -5.165154 1.282751 1.845716 0
M  V30 43 H -7.582791 1.185249 2.245714 0
M  V30 44 H -8.459049 1.069832 4.604450 0
M  V30 45 H -6.873441 1.056415 6.479645 0
M  V30 46 H -4.491636 1.155280 6.007748 0
M  V30 47 H -1.119961 -0.765002 2.048830 0
M  V30 48 H 5.145470 -1.123524 -3.253759 0
M  V30 49 H 4.331894 -2.567258 -4.977463 0
M  V30 END ATOM
M  V30 BEGIN BOND
M  V30 1 1 1 2
M  V30 2 1 2 3
M  V30 3 2 3 4
M  V30 4 1 4 5
M  V30 5 2 5 6
M  V30 6 1 6 7
M  V30 7 1 7 8
M  V30 8 1 8 9
M  V30 9 1 9 10
M  V30 10 2 10 11
M  V30 11 1 10 12
M  V30 12 2 12 13
M  V30 13 1 13 14
M  V30 14 2 14 15
M  V30 15 1 15 16
M  V30 16 1 16 17
M  V30 17 2 17 18
M  V30 18 1 17 19
M  V30 19 2 19 20
M  V30 20 1 20 21
M  V30 21 2 21 22
M  V30 22 1 22 23
M  V30 23 2 23 24
M  V30 24 1 15 25
M  V30 25 2 25 26
M  V30 26 1 26 27
M  V30 27 2 27 28
M  V30 28 1 6 29
M  V30 29 2 29 30
M  V30 30 1 30 3
M  V30 31 1 27 9
M  V30 32 1 26 12
M  V30 33 1 24 19
M  V30 34 1 1 31
M  V30 35 1 1 32
M  V30 36 1 1 33
M  V30 37 1 4 34
M  V30 38 1 5 35
M  V30 39 1 7 36
M  V30 40 1 8 37
M  V30 41 1 8 38
M  V30 42 1 13 39
M  V30 43 1 14 40
M  V30 44 1 16 41
M  V30 45 1 20 42
M  V30 46 1 21 43
M  V30 47 1 22 44
M  V30 48 1 23 45
M  V30 49 1 24 46
M  V30 50 1 25 47
M  V30 51 1 29 48
M  V30 52 1 30 49
M  V30 END BOND
M  V30 END CTAB
M  END
>  <Dataset>  (146) 
ChEMBL_Kinases

>  <Ligand_Instance>  (146) 
nan

>  <PDB_ID>  (146) 
nan

>  <Standardized_SMILES>  (146) 
COc1ccc(NCN2C(=O)c3ccc(NC(=O)c4ccccc4)cc3C2=O)cc1

>  <Name>  (146) 
nan

>  <Pocket>  (146) 
nan

>  <ATP_Site>  (146) 
nan

>  <Peripheral>  (146) 
nan

>  <Num_H_Atoms_ProtBoundConf>  (146) 
nan

>  <Num_Resolved_Atoms>  (146) 
nan

>  <Num_Not_Resolved_Atoms>  (146) 
nan

$$$$
CHEMBL3780410
     RDKit          3D

  0  0  0  0  0  0  0  0  0  0999 V3000
M  V30 BEGIN CTAB
M  V30 COUNTS 83 87 0 0 0
M  V30 BEGIN ATOM
M  V30 1 C 8.369923 -4.370641 0.007538 0
M  V30 2 O 8.798722 -3.268455 -0.721640 0
M  V30 3 C 9.732652 -2.585726 0.080210 0
M  V30 4 C 10.209685 -1.373500 -0.718436 0
M  V30 5 N 9.102418 -0.500276 -1.041030 0
M  V30 6 C 8.323747 0.100992 -0.022816 0
M  V30 7 O 8.521288 -0.066091 1.205733 0
M  V30 8 C 7.241549 0.955752 -0.492721 0
M  V30 9 C 6.406860 1.612286 0.419359 0
M  V30 10 C 5.332432 2.462023 0.097817 0
M  V30 11 C 4.646614 3.028400 1.284164 0
M  V30 12 O 3.674200 2.221661 1.846633 0
M  V30 13 C 2.519318 1.736833 1.346345 0
M  V30 14 C 1.839414 1.820723 0.163616 0
M  V30 15 C 0.637994 1.234295 -0.159008 0
M  V30 16 C 0.061676 0.475259 0.837589 0
M  V30 17 N -1.170747 -0.122323 0.465290 0
M  V30 18 C -2.523396 0.225824 0.516239 0
M  V30 19 O -2.855711 1.311811 0.989822 0
M  V30 20 N -3.427306 -0.735199 -0.001874 0
M  V30 21 C -4.821841 -0.472544 0.004748 0
M  V30 22 C -5.548487 0.588906 0.448876 0
M  V30 23 C -6.900199 0.397628 0.236610 0
M  V30 24 C -8.070426 1.268763 0.545421 0
M  V30 25 C -8.612554 1.006181 1.931736 0
M  V30 26 C -7.742908 2.721769 0.439870 0
M  V30 27 C -9.172642 0.894827 -0.433538 0
M  V30 28 N -6.946983 -0.803997 -0.342700 0
M  V30 29 N -5.756647 -1.340534 -0.494215 0
M  V30 30 C -5.457064 -2.617518 -1.083706 0
M  V30 31 C -4.677016 -2.464234 -2.236740 0
M  V30 32 C -4.261492 -3.553658 -2.973222 0
M  V30 33 C -4.607759 -4.835224 -2.588288 0
M  V30 34 C -4.149582 -5.990999 -3.389440 0
M  V30 35 C -5.373971 -4.951674 -1.452953 0
M  V30 36 C -5.807349 -3.891243 -0.693194 0
M  V30 37 C 0.675371 0.328170 2.079239 0
M  V30 38 C -0.035389 -0.459507 2.948906 0
M  V30 39 C 0.501255 -0.658364 4.202454 0
M  V30 40 C 1.699117 -0.075076 4.526235 0
M  V30 41 C 2.377978 0.707148 3.622523 0
M  V30 42 C 1.902613 0.954098 2.343003 0
M  V30 43 C 5.137956 2.620882 -1.257499 0
M  V30 44 C 5.944007 1.986859 -2.173559 0
M  V30 45 N 6.956948 1.184768 -1.810653 0
M  V30 46 H 7.910382 -3.968466 0.948635 0
M  V30 47 H 9.142715 -5.099332 0.235489 0
M  V30 48 H 7.566951 -4.916481 -0.547521 0
M  V30 49 H 10.579405 -3.238451 0.349423 0
M  V30 50 H 9.200259 -2.277916 0.981166 0
M  V30 51 H 10.912014 -0.834108 -0.048062 0
M  V30 52 H 10.773989 -1.704270 -1.606059 0
M  V30 53 H 8.918243 -0.346740 -2.049459 0
M  V30 54 H 6.663681 1.407176 1.463836 0
M  V30 55 H 4.173222 4.007987 0.984046 0
M  V30 56 H 5.440897 3.322053 2.007610 0
M  V30 57 H 2.357634 2.431058 -0.546156 0
M  V30 58 H 0.263835 1.422345 -1.152566 0
M  V30 59 H -0.834100 -1.049937 0.067573 0
M  V30 60 H -3.076773 -1.654048 -0.397996 0
M  V30 61 H -5.149181 1.478725 0.912118 0
M  V30 62 H -8.816699 -0.089538 1.980901 0
M  V30 63 H -9.555186 1.554868 2.042758 0
M  V30 64 H -7.834195 1.295476 2.679592 0
M  V30 65 H -6.687194 2.922070 0.158911 0
M  V30 66 H -8.345106 3.166400 -0.385218 0
M  V30 67 H -7.991118 3.300834 1.344458 0
M  V30 68 H -9.431782 -0.176859 -0.321454 0
M  V30 69 H -8.882003 1.169431 -1.480661 0
M  V30 70 H -10.086968 1.514859 -0.211282 0
M  V30 71 H -4.331022 -1.510487 -2.653122 0
M  V30 72 H -3.651172 -3.462000 -3.876711 0
M  V30 73 H -3.891353 -6.881858 -2.764856 0
M  V30 74 H -4.839404 -6.228083 -4.210672 0
M  V30 75 H -3.184042 -5.677154 -3.888460 0
M  V30 76 H -5.670432 -5.936354 -1.112104 0
M  V30 77 H -6.398443 -3.896035 0.190052 0
M  V30 78 H -0.974426 -0.922209 2.705993 0
M  V30 79 H -0.010461 -1.266344 4.926066 0
M  V30 80 H 2.163263 -0.202418 5.500960 0
M  V30 81 H 3.321456 1.167290 3.868701 0
M  V30 82 H 4.324664 3.278523 -1.478005 0
M  V30 83 H 5.710633 2.172245 -3.211272 0
M  V30 END ATOM
M  V30 BEGIN BOND
M  V30 1 1 1 2
M  V30 2 1 2 3
M  V30 3 1 3 4
M  V30 4 1 4 5
M  V30 5 1 5 6
M  V30 6 2 6 7
M  V30 7 1 6 8
M  V30 8 2 8 9
M  V30 9 1 9 10
M  V30 10 1 10 11
M  V30 11 1 11 12
M  V30 12 1 12 13
M  V30 13 2 13 14
M  V30 14 1 14 15
M  V30 15 2 15 16
M  V30 16 1 16 17
M  V30 17 1 17 18
M  V30 18 2 18 19
M  V30 19 1 18 20
M  V30 20 1 20 21
M  V30 21 2 21 22
M  V30 22 1 22 23
M  V30 23 1 23 24
M  V30 24 1 24 25
M  V30 25 1 24 26
M  V30 26 1 24 27
M  V30 27 2 23 28
M  V30 28 1 28 29
M  V30 29 1 29 30
M  V30 30 2 30 31
M  V30 31 1 31 32
M  V30 32 2 32 33
M  V30 33 1 33 34
M  V30 34 1 33 35
M  V30 35 2 35 36
M  V30 36 1 16 37
M  V30 37 2 37 38
M  V30 38 1 38 39
M  V30 39 2 39 40
M  V30 40 1 40 41
M  V30 41 2 41 42
M  V30 42 2 10 43
M  V30 43 1 43 44
M  V30 44 2 44 45
M  V30 45 1 45 8
M  V30 46 1 42 13
M  V30 47 1 29 21
M  V30 48 1 36 30
M  V30 49 1 42 37
M  V30 50 1 1 46
M  V30 51 1 1 47
M  V30 52 1 1 48
M  V30 53 1 3 49
M  V30 54 1 3 50
M  V30 55 1 4 51
M  V30 56 1 4 52
M  V30 57 1 5 53
M  V30 58 1 9 54
M  V30 59 1 11 55
M  V30 60 1 11 56
M  V30 61 1 14 57
M  V30 62 1 15 58
M  V30 63 1 17 59
M  V30 64 1 20 60
M  V30 65 1 22 61
M  V30 66 1 25 62
M  V30 67 1 25 63
M  V30 68 1 25 64
M  V30 69 1 26 65
M  V30 70 1 26 66
M  V30 71 1 26 67
M  V30 72 1 27 68
M  V30 73 1 27 69
M  V30 74 1 27 70
M  V30 75 1 31 71
M  V30 76 1 32 72
M  V30 77 1 34 73
M  V30 78 1 34 74
M  V30 79 1 34 75
M  V30 80 1 35 76
M  V30 81 1 36 77
M  V30 82 1 38 78
M  V30 83 1 39 79
M  V30 84 1 40 80
M  V30 85 1 41 81
M  V30 86 1 43 82
M  V30 87 1 44 83
M  V30 END BOND
M  V30 END CTAB
M  END
>  <Dataset>  (147) 
ChEMBL_Kinases

>  <Ligand_Instance>  (147) 
nan

>  <PDB_ID>  (147) 
nan

>  <Standardized_SMILES>  (147) 
COCCNC(=O)c1cc(COc2ccc(NC(=O)Nc3cc(C(C)(C)C)nn3-c3ccc(C)cc3)c3ccccc23)ccn1

>  <Name>  (147) 
nan

>  <Pocket>  (147) 
nan

>  <ATP_Site>  (147) 
nan

>  <Peripheral>  (147) 
nan

>  <Num_H_Atoms_ProtBoundConf>  (147) 
nan

>  <Num_Resolved_Atoms>  (147) 
nan

>  <Num_Not_Resolved_Atoms>  (147) 
nan

$$$$
CHEMBL5083563
     RDKit          3D

  0  0  0  0  0  0  0  0  0  0999 V3000
M  V30 BEGIN CTAB
M  V30 COUNTS 50 53 0 0 0
M  V30 BEGIN ATOM
M  V30 1 C 5.534915 -3.681520 -1.752691 0
M  V30 2 C 5.519527 -2.232203 -1.357828 0
M  V30 3 N 6.528868 -1.354161 -1.416004 0
M  V30 4 N 6.151763 -0.170075 -0.983192 0
M  V30 5 C 6.962238 1.053726 -0.888877 0
M  V30 6 C 4.856767 -0.268771 -0.629422 0
M  V30 7 C 4.396916 -1.571760 -0.848369 0
M  V30 8 N 3.098655 -2.110928 -0.616382 0
M  V30 9 C 2.003811 -1.378751 -0.080518 0
M  V30 10 N 2.082208 -0.086912 0.276138 0
M  V30 11 C 1.078979 0.638881 0.784622 0
M  V30 12 N 1.194353 1.988176 1.146450 0
M  V30 13 C -0.139573 0.030297 0.964137 0
M  V30 14 C -1.397298 0.361055 1.432312 0
M  V30 15 C -1.704261 1.682330 1.911605 0
M  V30 16 N -1.955442 2.746093 2.312924 0
M  V30 17 C -2.193791 -0.760406 1.337103 0
M  V30 18 N -3.547601 -0.666209 1.767124 0
M  V30 19 C -4.025715 -1.003927 3.115880 0
M  V30 20 C -5.054488 0.019687 3.466526 0
M  V30 21 C -5.321589 0.738768 2.157223 0
M  V30 22 C -4.793993 -0.257776 1.144486 0 CFG=1
M  V30 23 C -4.475765 0.566758 -0.110064 0
M  V30 24 N -1.481545 -1.774136 0.828899 0
M  V30 25 C -2.003379 -3.084089 0.597911 0
M  V30 26 C -0.224066 -1.308079 0.595369 0
M  V30 27 N 0.819293 -1.988756 0.088408 0
M  V30 28 H 6.151156 -3.847732 -2.643134 0
M  V30 29 H 6.011052 -4.257008 -0.913696 0
M  V30 30 H 4.508132 -4.050362 -1.824452 0
M  V30 31 H 8.010852 0.851285 -1.150086 0
M  V30 32 H 6.943718 1.427293 0.158015 0
M  V30 33 H 6.497466 1.876158 -1.498398 0
M  V30 34 H 4.298377 0.548715 -0.243528 0
M  V30 35 H 2.969988 -3.109570 -0.865414 0
M  V30 36 H 0.617923 2.717929 0.632944 0
M  V30 37 H 1.861483 2.139368 1.913302 0
M  V30 38 H -4.538996 -2.006511 3.113374 0
M  V30 39 H -3.214645 -1.031677 3.853181 0
M  V30 40 H -6.024404 -0.420696 3.775708 0
M  V30 41 H -4.705052 0.752644 4.222648 0
M  V30 42 H -4.747457 1.678309 2.083406 0
M  V30 43 H -6.374134 1.002461 2.000443 0
M  V30 44 H -5.488141 -1.069060 0.934522 0
M  V30 45 H -5.434017 0.806896 -0.600301 0
M  V30 46 H -3.780802 -0.004954 -0.745506 0
M  V30 47 H -4.056533 1.560506 0.219011 0
M  V30 48 H -2.231316 -3.661556 1.524215 0
M  V30 49 H -1.331126 -3.680025 -0.052040 0
M  V30 50 H -2.951789 -2.991162 0.031279 0
M  V30 END ATOM
M  V30 BEGIN BOND
M  V30 1 1 1 2
M  V30 2 2 2 3
M  V30 3 1 3 4
M  V30 4 1 4 5
M  V30 5 1 4 6
M  V30 6 2 6 7
M  V30 7 1 7 8
M  V30 8 1 8 9
M  V30 9 2 9 10
M  V30 10 1 10 11
M  V30 11 1 11 12
M  V30 12 2 11 13
M  V30 13 1 13 14
M  V30 14 1 14 15
M  V30 15 3 15 16
M  V30 16 2 14 17
M  V30 17 1 17 18
M  V30 18 1 18 19
M  V30 19 1 19 20
M  V30 20 1 20 21
M  V30 21 1 21 22
M  V30 22 1 22 23
M  V30 23 1 17 24
M  V30 24 1 24 25
M  V30 25 1 24 26
M  V30 26 2 26 27
M  V30 27 1 7 2
M  V30 28 1 27 9
M  V30 29 1 26 13
M  V30 30 1 22 18
M  V30 31 1 1 28
M  V30 32 1 1 29
M  V30 33 1 1 30
M  V30 34 1 5 31
M  V30 35 1 5 32
M  V30 36 1 5 33
M  V30 37 1 6 34
M  V30 38 1 8 35
M  V30 39 1 12 36
M  V30 40 1 12 37
M  V30 41 1 19 38
M  V30 42 1 19 39
M  V30 43 1 20 40
M  V30 44 1 20 41
M  V30 45 1 21 42
M  V30 46 1 21 43
M  V30 47 1 22 44 CFG=3
M  V30 48 1 23 45
M  V30 49 1 23 46
M  V30 50 1 23 47
M  V30 51 1 25 48
M  V30 52 1 25 49
M  V30 53 1 25 50
M  V30 END BOND
M  V30 END CTAB
M  END
>  <Dataset>  (148) 
ChEMBL_Kinases

>  <Ligand_Instance>  (148) 
nan

>  <PDB_ID>  (148) 
nan

>  <Standardized_SMILES>  (148) 
Cc1nn(C)cc1Nc1nc(N)c2c(C#N)c(N3CCC[C@H]3C)n(C)c2n1

>  <Name>  (148) 
nan

>  <Pocket>  (148) 
nan

>  <ATP_Site>  (148) 
nan

>  <Peripheral>  (148) 
nan

>  <Num_H_Atoms_ProtBoundConf>  (148) 
nan

>  <Num_Resolved_Atoms>  (148) 
nan

>  <Num_Not_Resolved_Atoms>  (148) 
nan

$$$$
CHEMBL3780363
     RDKit          3D

  0  0  0  0  0  0  0  0  0  0999 V3000
M  V30 BEGIN CTAB
M  V30 COUNTS 49 52 0 0 0
M  V30 BEGIN ATOM
M  V30 1 C 0.858903 -7.308045 3.637871 0
M  V30 2 O 0.319086 -6.312820 2.808094 0
M  V30 3 C 1.047217 -5.351289 2.123338 0
M  V30 4 C 0.358496 -4.441816 1.346538 0
M  V30 5 C 1.124902 -3.506081 0.685573 0
M  V30 6 C 2.495583 -3.380601 0.716185 0
M  V30 7 N 3.241104 -2.399357 0.029300 0
M  V30 8 C 2.946998 -1.305294 -0.804119 0
M  V30 9 N 2.293524 -0.170733 -0.232290 0
M  V30 10 C 3.158135 0.850383 0.326078 0
M  V30 11 O 4.430079 0.937231 0.420397 0
M  V30 12 C 2.379287 1.958032 0.864635 0
M  V30 13 C 2.626087 3.160176 1.492191 0
M  V30 14 C 1.636533 4.012423 1.891420 0
M  V30 15 C 0.308394 3.684045 1.670559 0
M  V30 16 C 0.014513 2.488962 1.044780 0
M  V30 17 N -1.343934 2.123514 0.803602 0
M  V30 18 C -2.060201 2.458973 -0.379497 0
M  V30 19 O -1.389519 3.125458 -1.232324 0
M  V30 20 C -3.450176 2.062770 -0.581659 0
M  V30 21 C -4.229681 1.342889 0.301050 0
M  V30 22 C -5.536886 1.019011 0.013357 0
M  V30 23 C -6.132036 1.401982 -1.179271 0
M  V30 24 C -5.346404 2.123373 -2.060627 0
M  V30 25 C -4.039764 2.451867 -1.782570 0
M  V30 26 C 1.049006 1.661107 0.659848 0
M  V30 27 C 1.022143 0.375842 -0.001808 0
M  V30 28 O 0.001333 -0.241774 -0.361147 0
M  V30 29 C 3.115239 -4.322441 1.511672 0
M  V30 30 C 2.421478 -5.288272 2.202815 0
M  V30 31 H 0.928726 -7.026847 4.708985 0
M  V30 32 H 0.239077 -8.244402 3.622370 0
M  V30 33 H 1.863112 -7.653955 3.287410 0
M  V30 34 H -0.715682 -4.470704 1.268437 0
M  V30 35 H 0.554427 -2.818340 0.082516 0
M  V30 36 H 4.298822 -2.498687 0.172135 0
M  V30 37 H 2.224885 -1.665216 -1.611762 0
M  V30 38 H 3.826078 -0.990424 -1.398546 0
M  V30 39 H 3.658682 3.429002 1.670860 0
M  V30 40 H 1.848270 4.951656 2.382483 0
M  V30 41 H -0.462862 4.386344 2.001322 0
M  V30 42 H -1.808166 1.573952 1.570307 0
M  V30 43 H -3.757355 1.050116 1.225036 0
M  V30 44 H -6.053197 0.446964 0.788615 0
M  V30 45 H -7.164469 1.115451 -1.345008 0
M  V30 46 H -5.825912 2.410948 -2.979601 0
M  V30 47 H -3.537712 3.024678 -2.569548 0
M  V30 48 H 4.198268 -4.334397 1.622581 0
M  V30 49 H 2.958470 -6.003104 2.813019 0
M  V30 END ATOM
M  V30 BEGIN BOND
M  V30 1 1 1 2
M  V30 2 1 2 3
M  V30 3 2 3 4
M  V30 4 1 4 5
M  V30 5 2 5 6
M  V30 6 1 6 7
M  V30 7 1 7 8
M  V30 8 1 8 9
M  V30 9 1 9 10
M  V30 10 2 10 11
M  V30 11 1 10 12
M  V30 12 2 12 13
M  V30 13 1 13 14
M  V30 14 2 14 15
M  V30 15 1 15 16
M  V30 16 1 16 17
M  V30 17 1 17 18
M  V30 18 2 18 19
M  V30 19 1 18 20
M  V30 20 2 20 21
M  V30 21 1 21 22
M  V30 22 2 22 23
M  V30 23 1 23 24
M  V30 24 2 24 25
M  V30 25 2 16 26
M  V30 26 1 26 27
M  V30 27 2 27 28
M  V30 28 1 6 29
M  V30 29 2 29 30
M  V30 30 1 30 3
M  V30 31 1 27 9
M  V30 32 1 26 12
M  V30 33 1 25 20
M  V30 34 1 1 31
M  V30 35 1 1 32
M  V30 36 1 1 33
M  V30 37 1 4 34
M  V30 38 1 5 35
M  V30 39 1 7 36
M  V30 40 1 8 37
M  V30 41 1 8 38
M  V30 42 1 13 39
M  V30 43 1 14 40
M  V30 44 1 15 41
M  V30 45 1 17 42
M  V30 46 1 21 43
M  V30 47 1 22 44
M  V30 48 1 23 45
M  V30 49 1 24 46
M  V30 50 1 25 47
M  V30 51 1 29 48
M  V30 52 1 30 49
M  V30 END BOND
M  V30 END CTAB
M  END
>  <Dataset>  (149) 
ChEMBL_Kinases

>  <Ligand_Instance>  (149) 
nan

>  <PDB_ID>  (149) 
nan

>  <Standardized_SMILES>  (149) 
COc1ccc(NCN2C(=O)c3cccc(NC(=O)c4ccccc4)c3C2=O)cc1

>  <Name>  (149) 
nan

>  <Pocket>  (149) 
nan

>  <ATP_Site>  (149) 
nan

>  <Peripheral>  (149) 
nan

>  <Num_H_Atoms_ProtBoundConf>  (149) 
nan

>  <Num_Resolved_Atoms>  (149) 
nan

>  <Num_Not_Resolved_Atoms>  (149) 
nan

$$$$
CHEMBL5083023
     RDKit          3D

  0  0  0  0  0  0  0  0  0  0999 V3000
M  V30 BEGIN CTAB
M  V30 COUNTS 54 57 0 0 0
M  V30 BEGIN ATOM
M  V30 1 C 6.918480 -2.586110 5.175426 0
M  V30 2 C 6.829692 -3.415518 3.945117 0
M  V30 3 O 5.578494 -3.389757 3.293962 0
M  V30 4 C 4.984860 -2.270062 2.792753 0
M  V30 5 C 5.527471 -1.004073 2.852808 0
M  V30 6 C 4.858331 0.078601 2.318996 0
M  V30 7 N 5.388799 1.319951 2.376912 0
M  V30 8 C 4.723728 2.372116 1.850363 0
M  V30 9 N 3.532426 2.184480 1.267837 0
M  V30 10 C 2.930084 1.003823 1.162234 0
M  V30 11 N 1.664089 0.881165 0.530125 0
M  V30 12 C 1.035981 2.080382 -0.003074 0
M  V30 13 C -0.269279 1.829054 -0.632379 0
M  V30 14 C -1.376308 1.919195 0.216296 0
M  V30 15 C -2.674181 1.715279 -0.200304 0
M  V30 16 C -2.906698 1.403109 -1.531679 0
M  V30 17 N -4.256104 1.198781 -1.930409 0
M  V30 18 C -4.685029 -0.151610 -1.810916 0
M  V30 19 O -3.923768 -1.058139 -1.390215 0
M  V30 20 N -6.023391 -0.553433 -2.168251 0
M  V30 21 C -6.485823 -1.899481 -2.060352 0
M  V30 22 C -6.448987 -2.920726 -2.986494 0
M  V30 23 C -6.963928 -4.151382 -2.648427 0
M  V30 24 C -7.515117 -4.385893 -1.406148 0
M  V30 25 C -7.558637 -3.371796 -0.468421 0
M  V30 26 Cl -8.270336 -3.723314 1.096001 0
M  V30 27 C -7.036749 -2.129081 -0.814755 0
M  V30 28 C -1.824507 1.307523 -2.395313 0
M  V30 29 C -0.540879 1.517349 -1.946152 0
M  V30 30 C 3.629317 -0.050447 1.706775 0
M  V30 31 C 3.092109 -1.318649 1.649869 0
M  V30 32 C 3.739748 -2.418604 2.175570 0
M  V30 33 F 3.177869 -3.657215 2.100812 0
M  V30 34 H 6.009153 -1.984256 5.379475 0
M  V30 35 H 7.036533 -3.246693 6.055011 0
M  V30 36 H 7.759089 -1.871585 5.183627 0
M  V30 37 H 7.164957 -4.442747 4.170303 0
M  V30 38 H 7.583720 -3.004101 3.217949 0
M  V30 39 H 6.473781 -0.854772 3.315275 0
M  V30 40 H 5.128164 3.379627 1.883883 0
M  V30 41 H 1.107937 0.018296 0.393486 0
M  V30 42 H 0.939815 2.810356 0.818228 0
M  V30 43 H 1.681265 2.534336 -0.803666 0
M  V30 44 H -1.255478 2.162097 1.276013 0
M  V30 45 H -3.500629 1.799126 0.508800 0
M  V30 46 H -4.914040 1.941867 -2.286245 0
M  V30 47 H -6.692098 0.164933 -2.522957 0
M  V30 48 H -5.994914 -2.617704 -3.920457 0
M  V30 49 H -6.904753 -4.911764 -3.420669 0
M  V30 50 H -7.916043 -5.360436 -1.156276 0
M  V30 51 H -7.129765 -1.409236 0.012425 0
M  V30 52 H -2.008623 1.066188 -3.422939 0
M  V30 53 H 0.331069 1.453516 -2.581924 0
M  V30 54 H 2.140063 -1.506023 1.190791 0
M  V30 END ATOM
M  V30 BEGIN BOND
M  V30 1 1 1 2
M  V30 2 1 2 3
M  V30 3 1 3 4
M  V30 4 2 4 5
M  V30 5 1 5 6
M  V30 6 2 6 7
M  V30 7 1 7 8
M  V30 8 2 8 9
M  V30 9 1 9 10
M  V30 10 1 10 11
M  V30 11 1 11 12
M  V30 12 1 12 13
M  V30 13 2 13 14
M  V30 14 1 14 15
M  V30 15 2 15 16
M  V30 16 1 16 17
M  V30 17 1 17 18
M  V30 18 2 18 19
M  V30 19 1 18 20
M  V30 20 1 20 21
M  V30 21 2 21 22
M  V30 22 1 22 23
M  V30 23 2 23 24
M  V30 24 1 24 25
M  V30 25 1 25 26
M  V30 26 2 25 27
M  V30 27 1 16 28
M  V30 28 2 28 29
M  V30 29 2 10 30
M  V30 30 1 30 31
M  V30 31 2 31 32
M  V30 32 1 32 33
M  V30 33 1 32 4
M  V30 34 1 30 6
M  V30 35 1 29 13
M  V30 36 1 27 21
M  V30 37 1 1 34
M  V30 38 1 1 35
M  V30 39 1 1 36
M  V30 40 1 2 37
M  V30 41 1 2 38
M  V30 42 1 5 39
M  V30 43 1 8 40
M  V30 44 1 11 41
M  V30 45 1 12 42
M  V30 46 1 12 43
M  V30 47 1 14 44
M  V30 48 1 15 45
M  V30 49 1 17 46
M  V30 50 1 20 47
M  V30 51 1 22 48
M  V30 52 1 23 49
M  V30 53 1 24 50
M  V30 54 1 27 51
M  V30 55 1 28 52
M  V30 56 1 29 53
M  V30 57 1 31 54
M  V30 END BOND
M  V30 END CTAB
M  END
>  <Dataset>  (150) 
ChEMBL_Kinases

>  <Ligand_Instance>  (150) 
nan

>  <PDB_ID>  (150) 
nan

>  <Standardized_SMILES>  (150) 
CCOc1cc2ncnc(NCc3ccc(NC(=O)Nc4cccc(Cl)c4)cc3)c2cc1F

>  <Name>  (150) 
nan

>  <Pocket>  (150) 
nan

>  <ATP_Site>  (150) 
nan

>  <Peripheral>  (150) 
nan

>  <Num_H_Atoms_ProtBoundConf>  (150) 
nan

>  <Num_Resolved_Atoms>  (150) 
nan

>  <Num_Not_Resolved_Atoms>  (150) 
nan

$$$$
CHEMBL5083583
     RDKit          3D

  0  0  0  0  0  0  0  0  0  0999 V3000
M  V30 BEGIN CTAB
M  V30 COUNTS 68 72 0 0 0
M  V30 BEGIN ATOM
M  V30 1 C 2.528231 0.080336 5.212684 0
M  V30 2 C 2.444168 -1.391506 5.017296 0
M  V30 3 N 1.823025 -1.861018 3.849720 0
M  V30 4 C 0.450583 -1.695217 3.650274 0
M  V30 5 C 0.035472 -1.031355 2.366843 0
M  V30 6 N 1.109019 -0.814962 1.452692 0
M  V30 7 C 0.960931 -0.438667 0.082235 0
M  V30 8 C 1.364071 0.790752 -0.383140 0
M  V30 9 C 1.272223 1.113720 -1.720446 0
M  V30 10 N 1.607944 2.410711 -2.245329 0
M  V30 11 C 1.656596 3.526723 -1.349547 0
M  V30 12 C 2.286555 4.215658 -0.338776 0
M  V30 13 C 1.584299 5.361451 -0.050924 0
M  V30 14 C 2.014364 6.306881 0.999902 0
M  V30 15 N 0.533038 5.347173 -0.897746 0
M  V30 16 N 0.563924 4.268904 -1.670323 0
M  V30 17 N 0.775118 0.192936 -2.551540 0
M  V30 18 C 0.364406 -1.024748 -2.123282 0
M  V30 19 N -0.166281 -1.924187 -3.084559 0
M  V30 20 C -0.786662 -3.192977 -2.900144 0 CFG=1
M  V30 21 C 0.024434 -4.300033 -2.284288 0
M  V30 22 C -1.134358 -5.308627 -2.054761 0
M  V30 23 N -2.203142 -4.455372 -1.547646 0
M  V30 24 C -3.468786 -4.612012 -0.851195 0
M  V30 25 O -4.180041 -5.519573 -0.398006 0
M  V30 26 C -4.177810 -3.339762 -0.564312 0
M  V30 27 C -3.739955 -2.766546 0.622437 0
M  V30 28 C -4.242031 -1.529769 1.051058 0
M  V30 29 Cl -3.685172 -0.800942 2.562411 0
M  V30 30 C -5.188097 -0.878783 0.273619 0
M  V30 31 C -5.595068 -1.473927 -0.887685 0
M  V30 32 C -5.120317 -2.673951 -1.324771 0
M  V30 33 F -5.450633 -3.360605 -2.448839 0
M  V30 34 C -1.883852 -3.080830 -1.832567 0
M  V30 35 N 0.477213 -1.283115 -0.822497 0
M  V30 36 C 2.542409 -0.966405 1.756251 0
M  V30 37 C 2.615410 -2.157400 2.718927 0
M  V30 38 H 2.382207 0.697928 4.302540 0
M  V30 39 H 1.821016 0.415574 6.027876 0
M  V30 40 H 3.534002 0.334249 5.600438 0
M  V30 41 H 3.484749 -1.848893 5.086281 0
M  V30 42 H 1.915331 -1.810824 5.913960 0
M  V30 43 H -0.036869 -2.712873 3.738095 0
M  V30 44 H 0.015528 -1.108836 4.513244 0
M  V30 45 H -0.462183 -0.058833 2.580292 0
M  V30 46 H -0.760340 -1.651636 1.897663 0
M  V30 47 H 1.774613 1.559159 0.291652 0
M  V30 48 H 1.807823 2.476354 -3.278753 0
M  V30 49 H 3.173471 3.697844 -0.020364 0
M  V30 50 H 1.584223 6.052038 2.009630 0
M  V30 51 H 3.127291 6.302002 1.046937 0
M  V30 52 H 1.623936 7.323725 0.734508 0
M  V30 53 H -0.149102 6.163941 -0.831601 0
M  V30 54 H -0.101988 -1.627058 -4.112896 0
M  V30 55 H -1.257775 -3.565322 -3.818581 0
M  V30 56 H 0.397542 -3.999454 -1.296948 0
M  V30 57 H 0.763455 -4.728963 -2.956755 0
M  V30 58 H -1.415853 -5.640915 -3.099037 0
M  V30 59 H -0.854939 -6.127679 -1.402834 0
M  V30 60 H -2.996674 -3.221626 1.289538 0
M  V30 61 H -5.611264 0.089171 0.551294 0
M  V30 62 H -6.333219 -1.000629 -1.542653 0
M  V30 63 H -2.706356 -2.475578 -2.218381 0
M  V30 64 H -1.417334 -2.664195 -0.905659 0
M  V30 65 H 3.112704 -1.291167 0.852516 0
M  V30 66 H 3.012768 -0.076543 2.152898 0
M  V30 67 H 3.631615 -2.425549 3.003326 0
M  V30 68 H 2.113175 -2.989231 2.142513 0
M  V30 END ATOM
M  V30 BEGIN BOND
M  V30 1 1 1 2
M  V30 2 1 2 3
M  V30 3 1 3 4
M  V30 4 1 4 5
M  V30 5 1 5 6
M  V30 6 1 6 7
M  V30 7 2 7 8
M  V30 8 1 8 9
M  V30 9 1 9 10
M  V30 10 1 10 11
M  V30 11 1 11 12
M  V30 12 2 12 13
M  V30 13 1 13 14
M  V30 14 1 13 15
M  V30 15 1 15 16
M  V30 16 2 9 17
M  V30 17 1 17 18
M  V30 18 1 18 19
M  V30 19 1 19 20
M  V30 20 1 20 21
M  V30 21 1 21 22
M  V30 22 1 22 23
M  V30 23 1 23 24
M  V30 24 2 24 25
M  V30 25 1 24 26
M  V30 26 2 26 27
M  V30 27 1 27 28
M  V30 28 1 28 29
M  V30 29 2 28 30
M  V30 30 1 30 31
M  V30 31 2 31 32
M  V30 32 1 32 33
M  V30 33 1 23 34
M  V30 34 2 18 35
M  V30 35 1 6 36
M  V30 36 1 36 37
M  V30 37 1 37 3
M  V30 38 1 35 7
M  V30 39 2 16 11
M  V30 40 1 34 20
M  V30 41 1 32 26
M  V30 42 1 1 38
M  V30 43 1 1 39
M  V30 44 1 1 40
M  V30 45 1 2 41
M  V30 46 1 2 42
M  V30 47 1 4 43
M  V30 48 1 4 44
M  V30 49 1 5 45
M  V30 50 1 5 46
M  V30 51 1 8 47
M  V30 52 1 10 48
M  V30 53 1 12 49
M  V30 54 1 14 50
M  V30 55 1 14 51
M  V30 56 1 14 52
M  V30 57 1 15 53
M  V30 58 1 19 54
M  V30 59 1 20 55 CFG=3
M  V30 60 1 21 56
M  V30 61 1 21 57
M  V30 62 1 22 58
M  V30 63 1 22 59
M  V30 64 1 27 60
M  V30 65 1 30 61
M  V30 66 1 31 62
M  V30 67 1 34 63
M  V30 68 1 34 64
M  V30 69 1 36 65
M  V30 70 1 36 66
M  V30 71 1 37 67
M  V30 72 1 37 68
M  V30 END BOND
M  V30 END CTAB
M  END
>  <Dataset>  (151) 
ChEMBL_Kinases

>  <Ligand_Instance>  (151) 
nan

>  <PDB_ID>  (151) 
nan

>  <Standardized_SMILES>  (151) 
CCN1CCN(c2cc(Nc3cc(C)[nH]n3)nc(N[C@H]3CCN(C(=O)c4cc(Cl)ccc4F)C3)n2)CC1

>  <Name>  (151) 
nan

>  <Pocket>  (151) 
nan

>  <ATP_Site>  (151) 
nan

>  <Peripheral>  (151) 
nan

>  <Num_H_Atoms_ProtBoundConf>  (151) 
nan

>  <Num_Resolved_Atoms>  (151) 
nan

>  <Num_Not_Resolved_Atoms>  (151) 
nan

$$$$
CHEMBL378014
     RDKit          3D

  0  0  0  0  0  0  0  0  0  0999 V3000
M  V30 BEGIN CTAB
M  V30 COUNTS 45 47 0 0 0
M  V30 BEGIN ATOM
M  V30 1 N -0.655934 -1.840640 1.468297 0
M  V30 2 C 0.085972 -0.812046 2.103394 0
M  V30 3 N 1.312068 -0.638085 1.765758 0
M  V30 4 C 1.818768 -1.546368 0.738253 0
M  V30 5 C 2.620061 -0.739316 -0.262752 0
M  V30 6 C 3.133167 -1.680272 -1.320445 0
M  V30 7 C 4.203202 -1.130568 -2.197136 0
M  V30 8 C 4.572583 0.283485 -1.769855 0
M  V30 9 C 4.963181 0.158790 -0.314542 0
M  V30 10 C 3.707146 -0.043791 0.495358 0
M  V30 11 C -0.665146 -0.079829 3.087462 0
M  V30 12 C -0.010568 0.896273 3.732818 0
M  V30 13 O 1.270120 1.413374 3.691008 0
M  V30 14 N -0.618670 1.723619 4.757998 0
M  V30 15 S -2.295182 0.992489 4.761978 0
M  V30 16 C -2.010249 -0.199710 3.527415 0
M  V30 17 N -2.853552 -1.159006 2.959834 0
M  V30 18 C -3.744871 -0.756692 1.898944 0
M  V30 19 C -4.503071 -1.676761 1.163319 0
M  V30 20 C -5.347689 -1.245994 0.166039 0
M  V30 21 C -5.479554 0.101161 -0.146093 0
M  V30 22 C -4.738700 1.024017 0.570157 0
M  V30 23 Cl -4.830094 2.766699 0.261644 0
M  V30 24 C -3.886253 0.599147 1.575593 0
M  V30 25 H -0.636666 -2.874884 1.651525 0
M  V30 26 H -1.369716 -1.898628 0.708576 0
M  V30 27 H 1.044970 -2.156687 0.269110 0
M  V30 28 H 2.512138 -2.271366 1.258756 0
M  V30 29 H 1.967814 -0.002504 -0.746067 0
M  V30 30 H 2.240097 -1.901213 -1.980054 0
M  V30 31 H 3.394781 -2.658562 -0.873188 0
M  V30 32 H 3.958755 -1.159505 -3.271858 0
M  V30 33 H 5.115118 -1.763629 -2.027672 0
M  V30 34 H 3.730113 0.969682 -1.851831 0
M  V30 35 H 5.471924 0.572887 -2.374557 0
M  V30 36 H 5.552908 -0.793229 -0.216293 0
M  V30 37 H 5.578854 1.009301 0.003965 0
M  V30 38 H 3.945663 -0.518284 1.451470 0
M  V30 39 H 3.328625 0.990175 0.741722 0
M  V30 40 H 1.611704 1.788120 2.793580 0
M  V30 41 H -2.909290 -2.163194 3.228123 0
M  V30 42 H -4.401514 -2.737682 1.404671 0
M  V30 43 H -5.926520 -1.995001 -0.393079 0
M  V30 44 H -6.136793 0.461023 -0.925948 0
M  V30 45 H -3.290866 1.320198 2.154747 0
M  V30 END ATOM
M  V30 BEGIN BOND
M  V30 1 1 1 2
M  V30 2 2 2 3
M  V30 3 1 3 4
M  V30 4 1 4 5
M  V30 5 1 5 6
M  V30 6 1 6 7
M  V30 7 1 7 8
M  V30 8 1 8 9
M  V30 9 1 9 10
M  V30 10 1 2 11
M  V30 11 1 11 12
M  V30 12 1 12 13
M  V30 13 2 12 14
M  V30 14 1 14 15
M  V30 15 1 15 16
M  V30 16 1 16 17
M  V30 17 1 17 18
M  V30 18 2 18 19
M  V30 19 1 19 20
M  V30 20 2 20 21
M  V30 21 1 21 22
M  V30 22 1 22 23
M  V30 23 2 22 24
M  V30 24 1 10 5
M  V30 25 2 16 11
M  V30 26 1 24 18
M  V30 27 1 1 25
M  V30 28 1 1 26
M  V30 29 1 4 27
M  V30 30 1 4 28
M  V30 31 1 5 29
M  V30 32 1 6 30
M  V30 33 1 6 31
M  V30 34 1 7 32
M  V30 35 1 7 33
M  V30 36 1 8 34
M  V30 37 1 8 35
M  V30 38 1 9 36
M  V30 39 1 9 37
M  V30 40 1 10 38
M  V30 41 1 10 39
M  V30 42 1 13 40
M  V30 43 1 17 41
M  V30 44 1 19 42
M  V30 45 1 20 43
M  V30 46 1 21 44
M  V30 47 1 24 45
M  V30 END BOND
M  V30 END CTAB
M  END
>  <Dataset>  (152) 
ChEMBL_Kinases

>  <Ligand_Instance>  (152) 
nan

>  <PDB_ID>  (152) 
nan

>  <Standardized_SMILES>  (152) 
N/C(=N\CC1CCCCC1)c1c(O)nsc1Nc1cccc(Cl)c1

>  <Name>  (152) 
nan

>  <Pocket>  (152) 
nan

>  <ATP_Site>  (152) 
nan

>  <Peripheral>  (152) 
nan

>  <Num_H_Atoms_ProtBoundConf>  (152) 
nan

>  <Num_Resolved_Atoms>  (152) 
nan

>  <Num_Not_Resolved_Atoms>  (152) 
nan

$$$$
CHEMBL5083614
     RDKit          3D

  0  0  0  0  0  0  0  0  0  0999 V3000
M  V30 BEGIN CTAB
M  V30 COUNTS 67 71 0 0 0
M  V30 BEGIN ATOM
M  V30 1 C 5.201816 -5.145264 0.940591 0
M  V30 2 O 4.416049 -5.755891 1.852454 0
M  V30 3 C 3.353154 -5.108226 2.380199 0
M  V30 4 C 2.317607 -4.713955 1.390606 0
M  V30 5 N 2.738819 -3.783594 0.374525 0
M  V30 6 C 1.584684 -3.636865 -0.519800 0
M  V30 7 C 1.769302 -2.552838 -1.529474 0
M  V30 8 C 2.067550 -1.212458 -0.868455 0
M  V30 9 O 2.360774 -0.295930 -1.881282 0
M  V30 10 C 1.600360 0.839719 -2.119626 0
M  V30 11 N 0.533006 1.028526 -1.301076 0
M  V30 12 C -0.295146 2.086203 -1.414271 0
M  V30 13 C -1.413642 2.186026 -0.471213 0
M  V30 14 C -2.253018 3.269260 -0.612450 0
M  V30 15 C -3.287663 3.319095 0.293393 0
M  V30 16 C -3.530609 2.378969 1.305381 0
M  V30 17 N -4.640728 2.491281 2.168826 0
M  V30 18 S -5.987755 1.630158 2.731507 0
M  V30 19 O -6.766586 2.507934 3.691063 0
M  V30 20 O -6.944760 1.359000 1.581502 0
M  V30 21 C -5.639480 0.160422 3.580989 0
M  V30 22 C -5.897756 0.003219 4.947914 0
M  V30 23 C -5.633645 -1.116626 5.707728 0
M  V30 24 Cl -6.031422 -1.122704 7.416856 0
M  V30 25 C -5.058193 -2.194374 5.067824 0
M  V30 26 C -4.770771 -2.125361 3.722816 0
M  V30 27 C -5.066528 -0.968484 3.033642 0
M  V30 28 F -4.788363 -0.963749 1.708143 0
M  V30 29 C -2.613486 1.349735 1.331298 0
M  V30 30 C -1.540147 1.193880 0.478682 0
M  V30 31 N -0.064717 2.993958 -2.370003 0
M  V30 32 C 0.997369 2.847140 -3.218099 0
M  V30 33 N 1.493728 3.553270 -4.250178 0
M  V30 34 N 2.568146 2.959385 -4.742161 0
M  V30 35 C 2.831250 1.816867 -4.044235 0
M  V30 36 C 3.930685 0.837420 -4.242754 0
M  V30 37 C 1.837807 1.760432 -3.092268 0
M  V30 38 C 3.206363 -1.367193 0.095958 0
M  V30 39 C 2.997858 -2.520932 1.048643 0
M  V30 40 H 4.651876 -4.875434 0.028672 0
M  V30 41 H 5.636955 -4.214622 1.394817 0
M  V30 42 H 6.052821 -5.797957 0.597706 0
M  V30 43 H 3.654258 -4.151808 2.916978 0
M  V30 44 H 2.874211 -5.781359 3.176353 0
M  V30 45 H 1.932184 -5.667108 0.932956 0
M  V30 46 H 1.414937 -4.324186 1.945953 0
M  V30 47 H 1.511351 -4.594786 -1.075823 0
M  V30 48 H 0.652269 -3.523162 0.064009 0
M  V30 49 H 0.854233 -2.460310 -2.112994 0
M  V30 50 H 2.682454 -2.797186 -2.124696 0
M  V30 51 H 1.142456 -0.845841 -0.334130 0
M  V30 52 H -2.139031 4.026335 -1.352996 0
M  V30 53 H -3.996901 4.151498 0.243812 0
M  V30 54 H -4.510851 3.472113 2.565568 0
M  V30 55 H -6.357155 0.857971 5.468132 0
M  V30 56 H -4.848234 -3.067018 5.644167 0
M  V30 57 H -4.314856 -2.979484 3.215948 0
M  V30 58 H -2.704154 0.581373 2.084617 0
M  V30 59 H -0.858171 0.358888 0.555634 0
M  V30 60 H 1.097925 4.445545 -4.621547 0
M  V30 61 H 4.191604 0.705789 -5.328190 0
M  V30 62 H 3.548163 -0.162510 -3.923552 0
M  V30 63 H 4.806970 1.044456 -3.622875 0
M  V30 64 H 4.129004 -1.514090 -0.502090 0
M  V30 65 H 3.240737 -0.455967 0.728559 0
M  V30 66 H 2.167079 -2.298193 1.733192 0
M  V30 67 H 3.916714 -2.620614 1.633396 0
M  V30 END ATOM
M  V30 BEGIN BOND
M  V30 1 1 1 2
M  V30 2 1 2 3
M  V30 3 1 3 4
M  V30 4 1 4 5
M  V30 5 1 5 6
M  V30 6 1 6 7
M  V30 7 1 7 8
M  V30 8 1 8 9
M  V30 9 1 9 10
M  V30 10 2 10 11
M  V30 11 1 11 12
M  V30 12 1 12 13
M  V30 13 2 13 14
M  V30 14 1 14 15
M  V30 15 2 15 16
M  V30 16 1 16 17
M  V30 17 1 17 18
M  V30 18 2 18 19
M  V30 19 2 18 20
M  V30 20 1 18 21
M  V30 21 2 21 22
M  V30 22 1 22 23
M  V30 23 1 23 24
M  V30 24 2 23 25
M  V30 25 1 25 26
M  V30 26 2 26 27
M  V30 27 1 27 28
M  V30 28 1 16 29
M  V30 29 2 29 30
M  V30 30 2 12 31
M  V30 31 1 31 32
M  V30 32 1 32 33
M  V30 33 1 33 34
M  V30 34 2 34 35
M  V30 35 1 35 36
M  V30 36 1 35 37
M  V30 37 1 8 38
M  V30 38 1 38 39
M  V30 39 1 39 5
M  V30 40 1 37 10
M  V30 41 1 30 13
M  V30 42 2 37 32
M  V30 43 1 27 21
M  V30 44 1 1 40
M  V30 45 1 1 41
M  V30 46 1 1 42
M  V30 47 1 3 43
M  V30 48 1 3 44
M  V30 49 1 4 45
M  V30 50 1 4 46
M  V30 51 1 6 47
M  V30 52 1 6 48
M  V30 53 1 7 49
M  V30 54 1 7 50
M  V30 55 1 8 51
M  V30 56 1 14 52
M  V30 57 1 15 53
M  V30 58 1 17 54
M  V30 59 1 22 55
M  V30 60 1 25 56
M  V30 61 1 26 57
M  V30 62 1 29 58
M  V30 63 1 30 59
M  V30 64 1 33 60
M  V30 65 1 36 61
M  V30 66 1 36 62
M  V30 67 1 36 63
M  V30 68 1 38 64
M  V30 69 1 38 65
M  V30 70 1 39 66
M  V30 71 1 39 67
M  V30 END BOND
M  V30 END CTAB
M  END
>  <Dataset>  (153) 
ChEMBL_Kinases

>  <Ligand_Instance>  (153) 
nan

>  <PDB_ID>  (153) 
nan

>  <Standardized_SMILES>  (153) 
COCCN1CCC(Oc2nc(-c3ccc(NS(=O)(=O)c4cc(Cl)ccc4F)cc3)nc3[nH]nc(C)c23)CC1

>  <Name>  (153) 
nan

>  <Pocket>  (153) 
nan

>  <ATP_Site>  (153) 
nan

>  <Peripheral>  (153) 
nan

>  <Num_H_Atoms_ProtBoundConf>  (153) 
nan

>  <Num_Resolved_Atoms>  (153) 
nan

>  <Num_Not_Resolved_Atoms>  (153) 
nan

$$$$
CHEMBL5083625
     RDKit          3D

  0  0  0  0  0  0  0  0  0  0999 V3000
M  V30 BEGIN CTAB
M  V30 COUNTS 57 61 0 0 0
M  V30 BEGIN ATOM
M  V30 1 C 1.157303 -6.660512 1.285009 0
M  V30 2 C 1.499566 -5.446203 2.072630 0
M  V30 3 N 2.013084 -5.329160 3.326062 0
M  V30 4 N 2.165171 -4.055080 3.645003 0
M  V30 5 C 1.754690 -3.281676 2.606487 0
M  V30 6 N 1.713189 -1.933485 2.447947 0
M  V30 7 C 1.254832 -1.396795 1.302164 0
M  V30 8 C 1.205220 0.053091 1.119219 0
M  V30 9 C 0.734123 0.574205 -0.056133 0
M  V30 10 C 0.674102 1.955516 -0.261645 0
M  V30 11 C 1.113220 2.779489 0.778351 0
M  V30 12 N 1.008202 4.167816 0.462026 0
M  V30 13 S 0.346363 5.217374 1.675107 0
M  V30 14 O 0.371525 6.636027 1.156970 0
M  V30 15 O 1.216742 5.204306 2.891985 0
M  V30 16 C -1.286618 4.781650 2.067906 0
M  V30 17 C -1.694905 4.404845 3.348278 0
M  V30 18 C -3.017629 4.062500 3.619407 0
M  V30 19 Cl -3.478690 3.595070 5.250103 0
M  V30 20 C -3.958186 4.095164 2.593618 0
M  V30 21 C -3.557107 4.464434 1.339772 0
M  V30 22 C -2.232662 4.808257 1.063729 0
M  V30 23 F -1.944482 5.159651 -0.216937 0
M  V30 24 C 1.585062 2.237455 1.956420 0
M  V30 25 C 1.634170 0.874321 2.134460 0
M  V30 26 N 0.837319 -2.219497 0.313790 0
M  V30 27 C 0.870321 -3.560709 0.451186 0
M  V30 28 O 0.439083 -4.392875 -0.570489 0
M  V30 29 C -0.054521 -3.906349 -1.800747 0
M  V30 30 C -1.504945 -4.276729 -1.901391 0
M  V30 31 C -2.080241 -3.783266 -3.203103 0
M  V30 32 N -1.042416 -3.133643 -3.965375 0
M  V30 33 C 0.045052 -4.021611 -4.243385 0
M  V30 34 C 0.769542 -4.340235 -2.966740 0
M  V30 35 C 1.333366 -4.145489 1.610482 0
M  V30 36 H 1.598904 -6.650704 0.280881 0
M  V30 37 H 1.416160 -7.528863 1.909968 0
M  V30 38 H 0.039327 -6.681629 1.139691 0
M  V30 39 H 2.538727 -3.712189 4.545857 0
M  V30 40 H 0.410097 -0.134209 -0.819313 0
M  V30 41 H 0.293699 2.315016 -1.208160 0
M  V30 42 H 1.313187 4.557417 -0.460634 0
M  V30 43 H -0.916379 4.394696 4.122746 0
M  V30 44 H -4.966962 3.818586 2.868724 0
M  V30 45 H -4.364388 4.458431 0.609617 0
M  V30 46 H 1.899590 2.968557 2.695394 0
M  V30 47 H 2.007776 0.479411 3.065820 0
M  V30 48 H -0.000548 -2.788636 -1.713895 0
M  V30 49 H -2.004305 -3.812457 -1.017320 0
M  V30 50 H -1.597119 -5.388142 -1.801722 0
M  V30 51 H -2.888204 -3.059326 -2.984395 0
M  V30 52 H -2.496669 -4.665399 -3.747085 0
M  V30 53 H -1.363879 -2.542378 -4.737228 0
M  V30 54 H -0.315096 -4.965774 -4.712066 0
M  V30 55 H 0.775865 -3.506907 -4.907721 0
M  V30 56 H 1.763007 -3.826795 -2.874659 0
M  V30 57 H 1.030377 -5.430311 -2.895574 0
M  V30 END ATOM
M  V30 BEGIN BOND
M  V30 1 1 1 2
M  V30 2 2 2 3
M  V30 3 1 3 4
M  V30 4 1 4 5
M  V30 5 2 5 6
M  V30 6 1 6 7
M  V30 7 1 7 8
M  V30 8 2 8 9
M  V30 9 1 9 10
M  V30 10 2 10 11
M  V30 11 1 11 12
M  V30 12 1 12 13
M  V30 13 2 13 14
M  V30 14 2 13 15
M  V30 15 1 13 16
M  V30 16 2 16 17
M  V30 17 1 17 18
M  V30 18 1 18 19
M  V30 19 2 18 20
M  V30 20 1 20 21
M  V30 21 2 21 22
M  V30 22 1 22 23
M  V30 23 1 11 24
M  V30 24 2 24 25
M  V30 25 2 7 26
M  V30 26 1 26 27
M  V30 27 1 27 28
M  V30 28 1 28 29
M  V30 29 1 29 30
M  V30 30 1 30 31
M  V30 31 1 31 32
M  V30 32 1 32 33
M  V30 33 1 33 34
M  V30 34 2 27 35
M  V30 35 1 35 2
M  V30 36 1 35 5
M  V30 37 1 25 8
M  V30 38 1 34 29
M  V30 39 1 22 16
M  V30 40 1 1 36
M  V30 41 1 1 37
M  V30 42 1 1 38
M  V30 43 1 4 39
M  V30 44 1 9 40
M  V30 45 1 10 41
M  V30 46 1 12 42
M  V30 47 1 17 43
M  V30 48 1 20 44
M  V30 49 1 21 45
M  V30 50 1 24 46
M  V30 51 1 25 47
M  V30 52 1 29 48
M  V30 53 1 30 49
M  V30 54 1 30 50
M  V30 55 1 31 51
M  V30 56 1 31 52
M  V30 57 1 32 53
M  V30 58 1 33 54
M  V30 59 1 33 55
M  V30 60 1 34 56
M  V30 61 1 34 57
M  V30 END BOND
M  V30 END CTAB
M  END
>  <Dataset>  (154) 
ChEMBL_Kinases

>  <Ligand_Instance>  (154) 
nan

>  <PDB_ID>  (154) 
nan

>  <Standardized_SMILES>  (154) 
Cc1n[nH]c2nc(-c3ccc(NS(=O)(=O)c4cc(Cl)ccc4F)cc3)nc(OC3CCNCC3)c12

>  <Name>  (154) 
nan

>  <Pocket>  (154) 
nan

>  <ATP_Site>  (154) 
nan

>  <Peripheral>  (154) 
nan

>  <Num_H_Atoms_ProtBoundConf>  (154) 
nan

>  <Num_Resolved_Atoms>  (154) 
nan

>  <Num_Not_Resolved_Atoms>  (154) 
nan

$$$$
CHEMBL3780089
     RDKit          3D

  0  0  0  0  0  0  0  0  0  0999 V3000
M  V30 BEGIN CTAB
M  V30 COUNTS 79 83 0 0 0
M  V30 BEGIN ATOM
M  V30 1 C 7.307221 -8.591405 4.288211 0
M  V30 2 N 6.586274 -7.902454 3.250092 0
M  V30 3 C 6.157927 -6.561146 3.352132 0
M  V30 4 O 6.447550 -5.977094 4.435483 0
M  V30 5 C 5.432152 -5.949225 2.240774 0
M  V30 6 C 5.007927 -4.624744 2.342384 0
M  V30 7 C 4.313254 -4.039709 1.276993 0
M  V30 8 C 3.813240 -2.636028 1.279917 0
M  V30 9 C 4.804754 -1.663752 0.760705 0
M  V30 10 O 4.306074 -0.373584 0.769037 0
M  V30 11 C 3.273328 0.087061 0.032769 0
M  V30 12 C 2.422661 -0.428077 -0.912869 0
M  V30 13 C 1.411089 0.244917 -1.554260 0
M  V30 14 C 1.209383 1.568185 -1.236411 0
M  V30 15 N 0.149415 2.216443 -1.930991 0
M  V30 16 C -1.138417 2.123702 -1.289150 0
M  V30 17 O -1.134377 1.471833 -0.189711 0
M  V30 18 N -2.383836 2.677778 -1.757826 0
M  V30 19 C -3.537089 2.451617 -0.953098 0
M  V30 20 C -4.215870 3.048165 0.088331 0
M  V30 21 C -5.302000 2.261443 0.404962 0
M  V30 22 C -6.260540 2.598790 1.486801 0
M  V30 23 C -5.919758 3.881293 2.183912 0
M  V30 24 C -7.620863 2.779778 0.817748 0
M  V30 25 C -6.364450 1.461637 2.477702 0
M  V30 26 N -5.279398 1.224170 -0.418574 0
M  V30 27 N -4.227344 1.311719 -1.248108 0
M  V30 28 C -4.026158 0.271775 -2.227186 0
M  V30 29 C -4.800141 0.273871 -3.386332 0
M  V30 30 C -4.599726 -0.735288 -4.330633 0
M  V30 31 C -3.646438 -1.710904 -4.103643 0
M  V30 32 C -3.523803 -2.740026 -5.189729 0
M  V30 33 C -2.868580 -1.718151 -2.945081 0
M  V30 34 C -3.082009 -0.715593 -2.028388 0
M  V30 35 C 2.024181 2.157242 -0.296103 0
M  V30 36 C 1.740905 3.482724 -0.050938 0
M  V30 37 C 2.502586 4.161574 0.875136 0
M  V30 38 C 3.523925 3.514959 1.535188 0
M  V30 39 C 3.737209 2.189574 1.228471 0
M  V30 40 C 3.042058 1.438258 0.333787 0
M  V30 41 C 4.085429 -4.828790 0.165017 0
M  V30 42 C 4.512516 -6.132740 0.086111 0
M  V30 43 N 5.174167 -6.642714 1.137512 0
M  V30 44 H 8.073596 -7.961295 4.792502 0
M  V30 45 H 7.858413 -9.481638 3.866788 0
M  V30 46 H 6.665372 -8.982809 5.088488 0
M  V30 47 H 6.374766 -8.432730 2.381504 0
M  V30 48 H 5.191829 -4.011360 3.222536 0
M  V30 49 H 2.899263 -2.636805 0.688738 0
M  V30 50 H 3.585212 -2.311730 2.343856 0
M  V30 51 H 5.033740 -1.986394 -0.307823 0
M  V30 52 H 5.803612 -1.747436 1.253897 0
M  V30 53 H 2.593414 -1.442562 -1.175349 0
M  V30 54 H 0.818626 -0.270163 -2.270793 0
M  V30 55 H 0.141511 2.745430 -2.820657 0
M  V30 56 H -2.292888 3.198283 -2.668903 0
M  V30 57 H -3.810043 3.976160 0.460579 0
M  V30 58 H -6.276048 3.897849 3.234916 0
M  V30 59 H -4.818480 3.983186 2.225050 0
M  V30 60 H -6.302532 4.777604 1.625068 0
M  V30 61 H -8.018258 1.773534 0.579676 0
M  V30 62 H -8.329345 3.325864 1.468523 0
M  V30 63 H -7.421498 3.284312 -0.151501 0
M  V30 64 H -5.352615 1.079525 2.713701 0
M  V30 65 H -6.814298 1.862355 3.402211 0
M  V30 66 H -7.051098 0.688420 2.083689 0
M  V30 67 H -5.544737 1.067186 -3.525075 0
M  V30 68 H -5.208218 -0.728402 -5.235787 0
M  V30 69 H -3.306266 -2.243866 -6.174103 0
M  V30 70 H -2.709419 -3.453291 -5.003665 0
M  V30 71 H -4.474556 -3.288355 -5.225575 0
M  V30 72 H -2.149893 -2.516290 -2.852262 0
M  V30 73 H -2.464538 -0.740753 -1.133574 0
M  V30 74 H 0.950623 4.018248 -0.548935 0
M  V30 75 H 2.369562 5.198563 1.145118 0
M  V30 76 H 4.161356 4.008259 2.281275 0
M  V30 77 H 4.559690 1.694297 1.769525 0
M  V30 78 H 3.557495 -4.436697 -0.683603 0
M  V30 79 H 4.372673 -6.809868 -0.746378 0
M  V30 END ATOM
M  V30 BEGIN BOND
M  V30 1 1 1 2
M  V30 2 1 2 3
M  V30 3 2 3 4
M  V30 4 1 3 5
M  V30 5 2 5 6
M  V30 6 1 6 7
M  V30 7 1 7 8
M  V30 8 1 8 9
M  V30 9 1 9 10
M  V30 10 1 10 11
M  V30 11 2 11 12
M  V30 12 1 12 13
M  V30 13 2 13 14
M  V30 14 1 14 15
M  V30 15 1 15 16
M  V30 16 2 16 17
M  V30 17 1 16 18
M  V30 18 1 18 19
M  V30 19 2 19 20
M  V30 20 1 20 21
M  V30 21 1 21 22
M  V30 22 1 22 23
M  V30 23 1 22 24
M  V30 24 1 22 25
M  V30 25 2 21 26
M  V30 26 1 26 27
M  V30 27 1 27 28
M  V30 28 2 28 29
M  V30 29 1 29 30
M  V30 30 2 30 31
M  V30 31 1 31 32
M  V30 32 1 31 33
M  V30 33 2 33 34
M  V30 34 1 14 35
M  V30 35 2 35 36
M  V30 36 1 36 37
M  V30 37 2 37 38
M  V30 38 1 38 39
M  V30 39 2 39 40
M  V30 40 2 7 41
M  V30 41 1 41 42
M  V30 42 2 42 43
M  V30 43 1 43 5
M  V30 44 1 40 11
M  V30 45 1 27 19
M  V30 46 1 34 28
M  V30 47 1 40 35
M  V30 48 1 1 44
M  V30 49 1 1 45
M  V30 50 1 1 46
M  V30 51 1 2 47
M  V30 52 1 6 48
M  V30 53 1 8 49
M  V30 54 1 8 50
M  V30 55 1 9 51
M  V30 56 1 9 52
M  V30 57 1 12 53
M  V30 58 1 13 54
M  V30 59 1 15 55
M  V30 60 1 18 56
M  V30 61 1 20 57
M  V30 62 1 23 58
M  V30 63 1 23 59
M  V30 64 1 23 60
M  V30 65 1 24 61
M  V30 66 1 24 62
M  V30 67 1 24 63
M  V30 68 1 25 64
M  V30 69 1 25 65
M  V30 70 1 25 66
M  V30 71 1 29 67
M  V30 72 1 30 68
M  V30 73 1 32 69
M  V30 74 1 32 70
M  V30 75 1 32 71
M  V30 76 1 33 72
M  V30 77 1 34 73
M  V30 78 1 36 74
M  V30 79 1 37 75
M  V30 80 1 38 76
M  V30 81 1 39 77
M  V30 82 1 41 78
M  V30 83 1 42 79
M  V30 END BOND
M  V30 END CTAB
M  END
>  <Dataset>  (155) 
ChEMBL_Kinases

>  <Ligand_Instance>  (155) 
nan

>  <PDB_ID>  (155) 
nan

>  <Standardized_SMILES>  (155) 
CNC(=O)c1cc(CCOc2ccc(NC(=O)Nc3cc(C(C)(C)C)nn3-c3ccc(C)cc3)c3ccccc23)ccn1

>  <Name>  (155) 
nan

>  <Pocket>  (155) 
nan

>  <ATP_Site>  (155) 
nan

>  <Peripheral>  (155) 
nan

>  <Num_H_Atoms_ProtBoundConf>  (155) 
nan

>  <Num_Resolved_Atoms>  (155) 
nan

>  <Num_Not_Resolved_Atoms>  (155) 
nan

$$$$
CHEMBL3780055
     RDKit          3D

  0  0  0  0  0  0  0  0  0  0999 V3000
M  V30 BEGIN CTAB
M  V30 COUNTS 38 40 0 0 0
M  V30 BEGIN ATOM
M  V30 1 C -2.213306 -5.103754 3.844451 0
M  V30 2 O -2.697837 -4.011873 3.102586 0
M  V30 3 C -1.873947 -3.409131 2.161834 0
M  V30 4 C -0.590881 -3.849960 1.932019 0
M  V30 5 C 0.237906 -3.239267 0.982069 0
M  V30 6 C -0.227702 -2.169484 0.251130 0
M  V30 7 N 0.638648 -1.596699 -0.706459 0
M  V30 8 C 1.925704 -2.264059 -0.838249 0
M  V30 9 C 0.513439 -0.443872 -1.569524 0
M  V30 10 N 0.555089 0.822035 -0.907855 0
M  V30 11 C -0.246181 1.819979 -0.299526 0
M  V30 12 O -1.468895 1.664447 -0.278205 0
M  V30 13 C 0.546104 2.923076 0.226676 0
M  V30 14 C 0.070914 4.044403 0.873582 0
M  V30 15 C 0.995253 4.973880 1.294387 0
M  V30 16 C 2.328643 4.733838 1.048057 0
M  V30 17 C 2.738428 3.593608 0.396676 0
M  V30 18 C 1.864305 2.623275 -0.050572 0
M  V30 19 C 1.901125 1.338994 -0.746955 0
M  V30 20 O 3.055044 0.934835 -1.066348 0
M  V30 21 C -1.517323 -1.777089 0.526849 0
M  V30 22 C -2.372426 -2.340299 1.447403 0
M  V30 23 H -2.029795 -5.990113 3.187477 0
M  V30 24 H -1.249024 -4.822171 4.288811 0
M  V30 25 H -2.975131 -5.393222 4.602553 0
M  V30 26 H -0.247085 -4.689994 2.516662 0
M  V30 27 H 1.220337 -3.694545 0.912113 0
M  V30 28 H 2.536755 -1.932155 -1.670204 0
M  V30 29 H 1.673036 -3.344182 -1.041454 0
M  V30 30 H 2.436875 -2.247797 0.145198 0
M  V30 31 H -0.527706 -0.497293 -2.031962 0
M  V30 32 H 1.173360 -0.512131 -2.455614 0
M  V30 33 H -0.968350 4.209475 1.053688 0
M  V30 34 H 0.692190 5.862285 1.800493 0
M  V30 35 H 3.061894 5.470906 1.381721 0
M  V30 36 H 3.807493 3.409747 0.203808 0
M  V30 37 H -1.921613 -0.951427 -0.032728 0
M  V30 38 H -3.370621 -1.965400 1.597593 0
M  V30 END ATOM
M  V30 BEGIN BOND
M  V30 1 1 1 2
M  V30 2 1 2 3
M  V30 3 2 3 4
M  V30 4 1 4 5
M  V30 5 2 5 6
M  V30 6 1 6 7
M  V30 7 1 7 8
M  V30 8 1 7 9
M  V30 9 1 9 10
M  V30 10 1 10 11
M  V30 11 2 11 12
M  V30 12 1 11 13
M  V30 13 2 13 14
M  V30 14 1 14 15
M  V30 15 2 15 16
M  V30 16 1 16 17
M  V30 17 2 17 18
M  V30 18 1 18 19
M  V30 19 2 19 20
M  V30 20 1 6 21
M  V30 21 2 21 22
M  V30 22 1 22 3
M  V30 23 1 19 10
M  V30 24 1 18 13
M  V30 25 1 1 23
M  V30 26 1 1 24
M  V30 27 1 1 25
M  V30 28 1 4 26
M  V30 29 1 5 27
M  V30 30 1 8 28
M  V30 31 1 8 29
M  V30 32 1 8 30
M  V30 33 1 9 31
M  V30 34 1 9 32
M  V30 35 1 14 33
M  V30 36 1 15 34
M  V30 37 1 16 35
M  V30 38 1 17 36
M  V30 39 1 21 37
M  V30 40 1 22 38
M  V30 END BOND
M  V30 END CTAB
M  END
>  <Dataset>  (156) 
ChEMBL_Kinases

>  <Ligand_Instance>  (156) 
nan

>  <PDB_ID>  (156) 
nan

>  <Standardized_SMILES>  (156) 
COc1ccc(N(C)CN2C(=O)c3ccccc3C2=O)cc1

>  <Name>  (156) 
nan

>  <Pocket>  (156) 
nan

>  <ATP_Site>  (156) 
nan

>  <Peripheral>  (156) 
nan

>  <Num_H_Atoms_ProtBoundConf>  (156) 
nan

>  <Num_Resolved_Atoms>  (156) 
nan

>  <Num_Not_Resolved_Atoms>  (156) 
nan

$$$$
CHEMBL3779994
     RDKit          3D

  0  0  0  0  0  0  0  0  0  0999 V3000
M  V30 BEGIN CTAB
M  V30 COUNTS 32 34 0 0 0
M  V30 BEGIN ATOM
M  V30 1 O 0.266758 -2.963009 0.522586 0
M  V30 2 C 1.181179 -2.115768 0.453535 0
M  V30 3 C 2.382790 -2.064639 1.267649 0
M  V30 4 C 2.779312 -2.915099 2.277930 0
M  V30 5 C 3.969953 -2.671893 2.919782 0
M  V30 6 C 4.726306 -1.578717 2.524817 0
M  V30 7 C 4.289001 -0.743079 1.498108 0
M  V30 8 C 3.099699 -0.967165 0.840870 0
M  V30 9 C 2.333266 -0.352626 -0.231541 0
M  V30 10 O 2.828986 0.693193 -0.772294 0
M  V30 11 N 1.104016 -1.068303 -0.496489 0
M  V30 12 C 0.252983 -0.545270 -1.523072 0
M  V30 13 N -0.690842 0.445336 -1.110796 0
M  V30 14 C -1.867944 0.556254 -0.328495 0
M  V30 15 C -2.568700 1.745924 -0.079445 0
M  V30 16 C -3.705679 1.687595 0.685983 0
M  V30 17 C -4.211720 0.529640 1.232350 0
M  V30 18 O -5.372689 0.607276 1.989168 0
M  V30 19 C -3.526913 -0.643706 0.990727 0
M  V30 20 C -2.382420 -0.598965 0.222574 0
M  V30 21 H 2.178144 -3.765778 2.576280 0
M  V30 22 H 4.368589 -3.264122 3.710745 0
M  V30 23 H 5.674162 -1.349943 3.005709 0
M  V30 24 H 4.877023 0.112385 1.186264 0
M  V30 25 H 0.854822 -0.161522 -2.361163 0
M  V30 26 H -0.342213 -1.427014 -1.936618 0
M  V30 27 H -0.455983 1.414402 -1.498516 0
M  V30 28 H -2.166683 2.650786 -0.510675 0
M  V30 29 H -4.163385 2.653222 0.814389 0
M  V30 30 H -6.057615 -0.140743 1.965574 0
M  V30 31 H -3.974259 -1.514406 1.445970 0
M  V30 32 H -1.982059 -1.588544 0.125471 0
M  V30 END ATOM
M  V30 BEGIN BOND
M  V30 1 2 1 2
M  V30 2 1 2 3
M  V30 3 2 3 4
M  V30 4 1 4 5
M  V30 5 2 5 6
M  V30 6 1 6 7
M  V30 7 2 7 8
M  V30 8 1 8 9
M  V30 9 2 9 10
M  V30 10 1 9 11
M  V30 11 1 11 12
M  V30 12 1 12 13
M  V30 13 1 13 14
M  V30 14 2 14 15
M  V30 15 1 15 16
M  V30 16 2 16 17
M  V30 17 1 17 18
M  V30 18 1 17 19
M  V30 19 2 19 20
M  V30 20 1 11 2
M  V30 21 1 20 14
M  V30 22 1 8 3
M  V30 23 1 4 21
M  V30 24 1 5 22
M  V30 25 1 6 23
M  V30 26 1 7 24
M  V30 27 1 12 25
M  V30 28 1 12 26
M  V30 29 1 13 27
M  V30 30 1 15 28
M  V30 31 1 16 29
M  V30 32 1 18 30
M  V30 33 1 19 31
M  V30 34 1 20 32
M  V30 END BOND
M  V30 END CTAB
M  END
>  <Dataset>  (157) 
ChEMBL_Kinases

>  <Ligand_Instance>  (157) 
nan

>  <PDB_ID>  (157) 
nan

>  <Standardized_SMILES>  (157) 
O=C1c2ccccc2C(=O)N1CNc1ccc(O)cc1

>  <Name>  (157) 
nan

>  <Pocket>  (157) 
nan

>  <ATP_Site>  (157) 
nan

>  <Peripheral>  (157) 
nan

>  <Num_H_Atoms_ProtBoundConf>  (157) 
nan

>  <Num_Resolved_Atoms>  (157) 
nan

>  <Num_Not_Resolved_Atoms>  (157) 
nan

$$$$
CHEMBL3779984
     RDKit          3D

  0  0  0  0  0  0  0  0  0  0999 V3000
M  V30 BEGIN CTAB
M  V30 COUNTS 50 52 0 0 0
M  V30 BEGIN ATOM
M  V30 1 C 0.770127 -6.010770 1.137200 0
M  V30 2 C 0.561693 -4.548161 0.933707 0
M  V30 3 C 0.107955 -3.991070 -0.242172 0
M  V30 4 C -0.070407 -2.618787 -0.384033 0
M  V30 5 C 0.215985 -1.769358 0.691666 0
M  V30 6 C -0.012717 -0.371509 0.351032 0
M  V30 7 C 0.922694 0.509413 -0.138247 0
M  V30 8 C 2.289033 0.139933 -0.400418 0
M  V30 9 O 3.411562 0.465731 -0.796401 0
M  V30 10 C 3.093715 -1.092817 -0.263942 0
M  V30 11 F 4.379783 -0.787658 -0.738726 0
M  V30 12 N 0.478584 1.742953 -0.384417 0
M  V30 13 C 1.041776 2.980628 -0.850147 0
M  V30 14 C 1.490808 3.923314 0.206224 0
M  V30 15 C 2.549740 3.472751 1.134739 0
M  V30 16 O 3.764992 3.154877 0.563453 0
M  V30 17 C -0.846244 1.673524 -0.035113 0
M  V30 18 N -1.831603 2.582797 -0.062887 0
M  V30 19 C -3.067586 2.249924 0.331461 0
M  V30 20 N -3.396904 0.999932 0.774980 0
M  V30 21 C -2.410943 0.052858 0.814183 0
M  V30 22 N -2.820457 -1.218893 1.287368 0
M  V30 23 C -2.584141 -2.104387 2.411247 0
M  V30 24 C -3.778088 -1.953343 0.461063 0
M  V30 25 C -1.144787 0.405595 0.406984 0
M  V30 26 C 0.677349 -2.336034 1.887441 0
M  V30 27 C 0.839253 -3.698863 1.983791 0
M  V30 28 H 1.824161 -6.302613 1.045776 0
M  V30 29 H 0.423571 -6.350603 2.136351 0
M  V30 30 H 0.115905 -6.545269 0.405952 0
M  V30 31 H -0.090323 -4.714690 -1.024799 0
M  V30 32 H -0.432879 -2.303725 -1.358823 0
M  V30 33 H 3.168881 -1.406360 0.811750 0
M  V30 34 H 2.684193 -1.890763 -0.903761 0
M  V30 35 H 0.264907 3.506611 -1.450085 0
M  V30 36 H 1.847550 2.752012 -1.591227 0
M  V30 37 H 1.899369 4.827137 -0.329857 0
M  V30 38 H 0.614630 4.282341 0.787822 0
M  V30 39 H 2.767164 4.339254 1.826614 0
M  V30 40 H 2.247750 2.658384 1.821789 0
M  V30 41 H 4.230400 2.517738 1.158362 0
M  V30 42 H -3.779813 3.061122 0.266303 0
M  V30 43 H -2.205478 -3.087048 2.117113 0
M  V30 44 H -3.539137 -2.180568 2.987146 0
M  V30 45 H -1.883356 -1.599538 3.140239 0
M  V30 46 H -4.693757 -2.224452 1.017075 0
M  V30 47 H -3.233025 -2.855628 0.072287 0
M  V30 48 H -4.025459 -1.368215 -0.445202 0
M  V30 49 H 0.861727 -1.580431 2.638403 0
M  V30 50 H 1.203369 -4.028714 2.960001 0
M  V30 END ATOM
M  V30 BEGIN BOND
M  V30 1 1 1 2
M  V30 2 2 2 3
M  V30 3 1 3 4
M  V30 4 2 4 5
M  V30 5 1 5 6
M  V30 6 2 6 7
M  V30 7 1 7 8
M  V30 8 2 8 9
M  V30 9 1 8 10
M  V30 10 1 10 11
M  V30 11 1 7 12
M  V30 12 1 12 13
M  V30 13 1 13 14
M  V30 14 1 14 15
M  V30 15 1 15 16
M  V30 16 1 12 17
M  V30 17 2 17 18
M  V30 18 1 18 19
M  V30 19 2 19 20
M  V30 20 1 20 21
M  V30 21 1 21 22
M  V30 22 1 22 23
M  V30 23 1 22 24
M  V30 24 2 21 25
M  V30 25 1 5 26
M  V30 26 2 26 27
M  V30 27 1 27 2
M  V30 28 1 25 6
M  V30 29 1 25 17
M  V30 30 1 1 28
M  V30 31 1 1 29
M  V30 32 1 1 30
M  V30 33 1 3 31
M  V30 34 1 4 32
M  V30 35 1 10 33
M  V30 36 1 10 34
M  V30 37 1 13 35
M  V30 38 1 13 36
M  V30 39 1 14 37
M  V30 40 1 14 38
M  V30 41 1 15 39
M  V30 42 1 15 40
M  V30 43 1 16 41
M  V30 44 1 19 42
M  V30 45 1 23 43
M  V30 46 1 23 44
M  V30 47 1 23 45
M  V30 48 1 24 46
M  V30 49 1 24 47
M  V30 50 1 24 48
M  V30 51 1 26 49
M  V30 52 1 27 50
M  V30 END BOND
M  V30 END CTAB
M  END
>  <Dataset>  (158) 
ChEMBL_Kinases

>  <Ligand_Instance>  (158) 
nan

>  <PDB_ID>  (158) 
nan

>  <Standardized_SMILES>  (158) 
Cc1ccc(-c2c(C(=O)CF)n(CCCO)c3ncnc(N(C)C)c23)cc1

>  <Name>  (158) 
nan

>  <Pocket>  (158) 
nan

>  <ATP_Site>  (158) 
nan

>  <Peripheral>  (158) 
nan

>  <Num_H_Atoms_ProtBoundConf>  (158) 
nan

>  <Num_Resolved_Atoms>  (158) 
nan

>  <Num_Not_Resolved_Atoms>  (158) 
nan

$$$$
CHEMBL377991
     RDKit          3D

  0  0  0  0  0  0  0  0  0  0999 V3000
M  V30 BEGIN CTAB
M  V30 COUNTS 42 43 0 0 0
M  V30 BEGIN ATOM
M  V30 1 C 0.722370 -6.885377 0.463043 0
M  V30 2 C 1.080822 -5.405693 0.576510 0
M  V30 3 O 1.551326 -5.101179 1.875175 0
M  V30 4 C 1.954610 -3.836867 2.278849 0
M  V30 5 N 1.926697 -2.782434 1.444001 0
M  V30 6 C 2.327396 -1.570348 1.875448 0
M  V30 7 C 2.348120 -0.351202 1.072844 0
M  V30 8 O 2.739553 0.746802 1.556536 0
M  V30 9 N 1.941109 -0.311891 -0.274132 0
M  V30 10 C 1.919262 0.832091 -1.163847 0
M  V30 11 C 0.783479 1.755141 -0.904768 0
M  V30 12 C 0.745028 2.839129 -0.054404 0
M  V30 13 C -0.392952 3.596380 0.064483 0
M  V30 14 C -1.540783 3.320993 -0.646725 0
M  V30 15 S -2.991626 4.292034 -0.491355 0
M  V30 16 C -4.048065 3.613149 0.774180 0
M  V30 17 O -2.624137 5.694237 -0.042809 0
M  V30 18 O -3.787946 4.335324 -1.763960 0
M  V30 19 C -1.490046 2.233678 -1.494374 0
M  V30 20 C -0.360121 1.438832 -1.646601 0
M  V30 21 C 2.762345 -1.472559 3.204502 0
M  V30 22 C 2.794776 -2.542786 4.065467 0
M  V30 23 C 2.374353 -3.784599 3.591412 0
M  V30 24 C 2.396122 -4.925230 4.465345 0
M  V30 25 N 2.394792 -5.831751 5.150905 0
M  V30 26 H 0.878733 -7.188736 -0.589895 0
M  V30 27 H -0.371430 -7.029539 0.666335 0
M  V30 28 H 1.341806 -7.501144 1.146336 0
M  V30 29 H 1.930504 -5.245475 -0.145118 0
M  V30 30 H 0.260316 -4.766419 0.234738 0
M  V30 31 H 1.611927 -1.237771 -0.677648 0
M  V30 32 H 2.902548 1.354141 -0.971448 0
M  V30 33 H 1.961330 0.502281 -2.210340 0
M  V30 34 H 1.661261 3.022918 0.482703 0
M  V30 35 H -0.366165 4.425784 0.739187 0
M  V30 36 H -3.417884 3.240806 1.621953 0
M  V30 37 H -4.819020 4.314061 1.099412 0
M  V30 38 H -4.574221 2.722798 0.364659 0
M  V30 39 H -2.404562 2.034438 -2.044787 0
M  V30 40 H -0.489847 0.620703 -2.355965 0
M  V30 41 H 3.099205 -0.522996 3.616616 0
M  V30 42 H 3.133908 -2.434267 5.079254 0
M  V30 END ATOM
M  V30 BEGIN BOND
M  V30 1 1 1 2
M  V30 2 1 2 3
M  V30 3 1 3 4
M  V30 4 2 4 5
M  V30 5 1 5 6
M  V30 6 1 6 7
M  V30 7 2 7 8
M  V30 8 1 7 9
M  V30 9 1 9 10
M  V30 10 1 10 11
M  V30 11 2 11 12
M  V30 12 1 12 13
M  V30 13 2 13 14
M  V30 14 1 14 15
M  V30 15 1 15 16
M  V30 16 2 15 17
M  V30 17 2 15 18
M  V30 18 1 14 19
M  V30 19 2 19 20
M  V30 20 2 6 21
M  V30 21 1 21 22
M  V30 22 2 22 23
M  V30 23 1 23 24
M  V30 24 3 24 25
M  V30 25 1 23 4
M  V30 26 1 20 11
M  V30 27 1 1 26
M  V30 28 1 1 27
M  V30 29 1 1 28
M  V30 30 1 2 29
M  V30 31 1 2 30
M  V30 32 1 9 31
M  V30 33 1 10 32
M  V30 34 1 10 33
M  V30 35 1 12 34
M  V30 36 1 13 35
M  V30 37 1 16 36
M  V30 38 1 16 37
M  V30 39 1 16 38
M  V30 40 1 19 39
M  V30 41 1 20 40
M  V30 42 1 21 41
M  V30 43 1 22 42
M  V30 END BOND
M  V30 END CTAB
M  END
>  <Dataset>  (159) 
ChEMBL_Kinases

>  <Ligand_Instance>  (159) 
nan

>  <PDB_ID>  (159) 
nan

>  <Standardized_SMILES>  (159) 
CCOc1nc(C(=O)NCc2ccc(S(C)(=O)=O)cc2)ccc1C#N

>  <Name>  (159) 
nan

>  <Pocket>  (159) 
nan

>  <ATP_Site>  (159) 
nan

>  <Peripheral>  (159) 
nan

>  <Num_H_Atoms_ProtBoundConf>  (159) 
nan

>  <Num_Resolved_Atoms>  (159) 
nan

>  <Num_Not_Resolved_Atoms>  (159) 
nan

$$$$
CHEMBL377979
     RDKit          3D

  0  0  0  0  0  0  0  0  0  0999 V3000
M  V30 BEGIN CTAB
M  V30 COUNTS 63 67 0 0 0
M  V30 BEGIN ATOM
M  V30 1 C -0.138092 -1.694215 6.657936 0
M  V30 2 C 1.008573 -0.969799 6.025605 0
M  V30 3 C 2.230321 -1.898816 6.112415 0
M  V30 4 N 0.758615 -0.729498 4.654055 0
M  V30 5 C -0.386018 0.028848 4.304385 0
M  V30 6 C -0.844374 -0.339674 2.887291 0
M  V30 7 C 0.229103 -1.273367 2.315448 0
M  V30 8 N -0.071366 -1.791099 1.034723 0
M  V30 9 C -0.288634 -1.065793 -0.163209 0
M  V30 10 N -0.250982 0.262854 -0.277387 0
M  V30 11 C -0.452087 0.939330 -1.439054 0
M  V30 12 C -0.390017 2.389429 -1.379472 0
M  V30 13 C 0.497853 3.189432 -2.060450 0
M  V30 14 C 0.568196 4.558700 -1.976260 0
M  V30 15 C -0.313198 5.224521 -1.145268 0
M  V30 16 C -1.225460 4.494453 -0.435383 0
M  V30 17 C -1.256127 3.116942 -0.555161 0
M  V30 18 Cl -2.469075 2.276624 0.385951 0
M  V30 19 C -0.712829 0.201985 -2.572842 0
M  V30 20 C -0.758509 -1.171783 -2.486296 0
M  V30 21 N -0.545836 -1.743842 -1.293781 0
M  V30 22 N -1.040670 -2.025552 -3.585166 0
M  V30 23 C -1.061287 -3.450803 -3.367803 0
M  V30 24 C -2.291685 -3.973548 -2.986649 0
M  V30 25 Cl -3.704025 -2.949684 -2.789581 0
M  V30 26 C -2.487426 -5.315801 -2.738659 0
M  V30 27 C -1.368673 -6.128256 -2.893784 0
M  V30 28 C -0.144265 -5.635501 -3.269141 0
M  V30 29 C 0.025519 -4.287186 -3.511632 0
M  V30 30 Cl 1.546914 -3.569528 -3.994260 0
M  V30 31 C -1.299197 -1.468729 -4.868883 0
M  V30 32 O -1.547203 -2.218543 -5.840139 0
M  V30 33 N -1.247978 -0.049988 -4.926942 0
M  V30 34 C -0.944571 0.883671 -3.858864 0
M  V30 35 C 1.546703 -0.486638 2.377855 0
M  V30 36 C 1.896592 -0.343198 3.860968 0
M  V30 37 H -0.751670 -2.298091 5.957681 0
M  V30 38 H 0.269682 -2.401744 7.414720 0
M  V30 39 H -0.739938 -0.968701 7.261794 0
M  V30 40 H 1.263784 -0.081630 6.630835 0
M  V30 41 H 3.167751 -1.318655 6.086808 0
M  V30 42 H 2.152227 -2.548192 7.020153 0
M  V30 43 H 2.260273 -2.613124 5.263751 0
M  V30 44 H -0.109308 1.103922 4.275866 0
M  V30 45 H -1.228167 -0.047898 5.013504 0
M  V30 46 H -0.906055 0.549306 2.248343 0
M  V30 47 H -1.780315 -0.925359 2.926128 0
M  V30 48 H 0.347701 -2.053452 3.097709 0
M  V30 49 H -0.136226 -2.851262 0.992490 0
M  V30 50 H 1.215936 2.733837 -2.717591 0
M  V30 51 H 1.292135 5.125922 -2.540783 0
M  V30 52 H -0.264900 6.288534 -1.074880 0
M  V30 53 H -1.912150 5.022718 0.211423 0
M  V30 54 H -3.413686 -5.773394 -2.442713 0
M  V30 55 H -1.436845 -7.181580 -2.720639 0
M  V30 56 H 0.710666 -6.261470 -3.387769 0
M  V30 57 H -1.451778 0.404308 -5.850951 0
M  V30 58 H -0.095405 1.492069 -4.223030 0
M  V30 59 H -1.875654 1.520225 -3.756452 0
M  V30 60 H 2.320173 -1.082120 1.888826 0
M  V30 61 H 1.434808 0.546588 1.994887 0
M  V30 62 H 2.743913 -0.994439 4.124869 0
M  V30 63 H 2.198774 0.695169 4.124749 0
M  V30 END ATOM
M  V30 BEGIN BOND
M  V30 1 1 1 2
M  V30 2 1 2 3
M  V30 3 1 2 4
M  V30 4 1 4 5
M  V30 5 1 5 6
M  V30 6 1 6 7
M  V30 7 1 7 8
M  V30 8 1 8 9
M  V30 9 2 9 10
M  V30 10 1 10 11
M  V30 11 1 11 12
M  V30 12 2 12 13
M  V30 13 1 13 14
M  V30 14 2 14 15
M  V30 15 1 15 16
M  V30 16 2 16 17
M  V30 17 1 17 18
M  V30 18 2 11 19
M  V30 19 1 19 20
M  V30 20 2 20 21
M  V30 21 1 20 22
M  V30 22 1 22 23
M  V30 23 2 23 24
M  V30 24 1 24 25
M  V30 25 1 24 26
M  V30 26 2 26 27
M  V30 27 1 27 28
M  V30 28 2 28 29
M  V30 29 1 29 30
M  V30 30 1 22 31
M  V30 31 2 31 32
M  V30 32 1 31 33
M  V30 33 1 33 34
M  V30 34 1 7 35
M  V30 35 1 35 36
M  V30 36 1 36 4
M  V30 37 1 21 9
M  V30 38 1 29 23
M  V30 39 1 17 12
M  V30 40 1 34 19
M  V30 41 1 1 37
M  V30 42 1 1 38
M  V30 43 1 1 39
M  V30 44 1 2 40
M  V30 45 1 3 41
M  V30 46 1 3 42
M  V30 47 1 3 43
M  V30 48 1 5 44
M  V30 49 1 5 45
M  V30 50 1 6 46
M  V30 51 1 6 47
M  V30 52 1 7 48
M  V30 53 1 8 49
M  V30 54 1 13 50
M  V30 55 1 14 51
M  V30 56 1 15 52
M  V30 57 1 16 53
M  V30 58 1 26 54
M  V30 59 1 27 55
M  V30 60 1 28 56
M  V30 61 1 33 57
M  V30 62 1 34 58
M  V30 63 1 34 59
M  V30 64 1 35 60
M  V30 65 1 35 61
M  V30 66 1 36 62
M  V30 67 1 36 63
M  V30 END BOND
M  V30 END CTAB
M  END
>  <Dataset>  (160) 
ChEMBL_Kinases

>  <Ligand_Instance>  (160) 
nan

>  <PDB_ID>  (160) 
nan

>  <Standardized_SMILES>  (160) 
CC(C)N1CCC(Nc2nc(-c3ccccc3Cl)c3c(n2)N(c2c(Cl)cccc2Cl)C(=O)NC3)CC1

>  <Name>  (160) 
nan

>  <Pocket>  (160) 
nan

>  <ATP_Site>  (160) 
nan

>  <Peripheral>  (160) 
nan

>  <Num_H_Atoms_ProtBoundConf>  (160) 
nan

>  <Num_Resolved_Atoms>  (160) 
nan

>  <Num_Not_Resolved_Atoms>  (160) 
nan

$$$$
CHEMBL377928
     RDKit          3D

  0  0  0  0  0  0  0  0  0  0999 V3000
M  V30 BEGIN CTAB
M  V30 COUNTS 27 28 0 0 0
M  V30 BEGIN ATOM
M  V30 1 N -2.937024 -2.623973 3.418500 0
M  V30 2 C -1.912552 -3.421666 2.841486 0
M  V30 3 O -1.816805 -4.661347 3.036517 0
M  V30 4 C -0.934659 -2.770757 1.988929 0
M  V30 5 N -0.854524 -1.470461 1.652639 0
M  V30 6 C 0.204999 -1.269502 0.836670 0
M  V30 7 C 0.604464 0.026619 0.268290 0
M  V30 8 C -0.090697 1.197637 0.525235 0
M  V30 9 C 0.374534 2.354034 -0.061236 0
M  V30 10 C 1.477312 2.427040 -0.881346 0
M  V30 11 C 1.941435 3.700123 -1.491931 0
M  V30 12 F 1.760328 4.770859 -0.648351 0
M  V30 13 F 1.263191 3.933060 -2.677835 0
M  V30 14 F 3.286250 3.570604 -1.856127 0
M  V30 15 C 2.165786 1.241283 -1.130266 0
M  V30 16 C 1.712679 0.077475 -0.551056 0
M  V30 17 O 0.795135 -2.448444 0.657999 0
M  V30 18 C 0.128517 -3.363597 1.339899 0
M  V30 19 N 0.404391 -4.763407 1.437710 0
M  V30 20 H -3.734732 -2.401457 2.773722 0
M  V30 21 H -3.233995 -2.136902 4.287947 0
M  V30 22 H -0.960767 1.164261 1.167105 0
M  V30 23 H -0.135865 3.298337 0.109359 0
M  V30 24 H 3.046257 1.236693 -1.771619 0
M  V30 25 H 2.247469 -0.865863 -0.739656 0
M  V30 26 H -0.114009 -5.590671 1.045868 0
M  V30 27 H 1.158541 -5.354341 1.899781 0
M  V30 END ATOM
M  V30 BEGIN BOND
M  V30 1 1 1 2
M  V30 2 2 2 3
M  V30 3 1 2 4
M  V30 4 1 4 5
M  V30 5 2 5 6
M  V30 6 1 6 7
M  V30 7 2 7 8
M  V30 8 1 8 9
M  V30 9 2 9 10
M  V30 10 1 10 11
M  V30 11 1 11 12
M  V30 12 1 11 13
M  V30 13 1 11 14
M  V30 14 1 10 15
M  V30 15 2 15 16
M  V30 16 1 6 17
M  V30 17 1 17 18
M  V30 18 1 18 19
M  V30 19 2 18 4
M  V30 20 1 16 7
M  V30 21 1 1 20
M  V30 22 1 1 21
M  V30 23 1 8 22
M  V30 24 1 9 23
M  V30 25 1 15 24
M  V30 26 1 16 25
M  V30 27 1 19 26
M  V30 28 1 19 27
M  V30 END BOND
M  V30 END CTAB
M  END
>  <Dataset>  (161) 
ChEMBL_Kinases

>  <Ligand_Instance>  (161) 
nan

>  <PDB_ID>  (161) 
nan

>  <Standardized_SMILES>  (161) 
NC(=O)c1nc(-c2ccc(C(F)(F)F)cc2)oc1N

>  <Name>  (161) 
nan

>  <Pocket>  (161) 
nan

>  <ATP_Site>  (161) 
nan

>  <Peripheral>  (161) 
nan

>  <Num_H_Atoms_ProtBoundConf>  (161) 
nan

>  <Num_Resolved_Atoms>  (161) 
nan

>  <Num_Not_Resolved_Atoms>  (161) 
nan

$$$$
CHEMBL3780219
     RDKit          3D

  0  0  0  0  0  0  0  0  0  0999 V3000
M  V30 BEGIN CTAB
M  V30 COUNTS 66 69 0 0 0
M  V30 BEGIN ATOM
M  V30 1 C 2.512290 0.998263 5.265719 0
M  V30 2 N 2.091451 1.462449 4.006174 0
M  V30 3 C 1.682583 1.941870 2.747807 0
M  V30 4 N 2.113635 3.038769 2.117463 0
M  V30 5 C 1.739189 3.500319 0.934130 0
M  V30 6 N 2.337838 4.692558 0.465938 0
M  V30 7 C 2.078292 5.309484 -0.777300 0
M  V30 8 C 2.698082 6.486920 -1.128702 0
M  V30 9 C 2.506916 7.149904 -2.316681 0
M  V30 10 C 1.637644 6.626239 -3.248877 0
M  V30 11 C 1.439822 7.349234 -4.527838 0
M  V30 12 C 0.977078 5.447290 -2.970742 0
M  V30 13 N 0.077771 4.892755 -3.919916 0
M  V30 14 C 1.228216 4.851035 -1.756489 0
M  V30 15 N 0.825505 2.724926 0.374106 0
M  V30 16 C 0.290264 1.608509 0.856769 0
M  V30 17 C 0.730122 1.194533 2.089852 0
M  V30 18 C 0.092274 -0.032114 2.531121 0
M  V30 19 O 0.242790 -0.710002 3.571635 0
M  V30 20 N -0.895503 -0.740162 1.805722 0
M  V30 21 C -1.478015 -1.937061 2.300714 0
M  V30 22 C -0.970344 -3.191090 2.042916 0
M  V30 23 C -1.613164 -4.297802 2.567191 0
M  V30 24 N -0.930316 -5.512502 2.182788 0
M  V30 25 C -1.526304 -5.884685 0.927231 0
M  V30 26 O -2.421323 -5.060121 0.583637 0
M  V30 27 C -1.118391 -7.086932 0.161688 0
M  V30 28 C -0.165167 -8.018267 0.519636 0
M  V30 29 C 0.077522 -9.074779 -0.336745 0
M  V30 30 C -0.613011 -9.203046 -1.523628 0
M  V30 31 C -1.571309 -8.276512 -1.894388 0
M  V30 32 C -2.315483 -8.418279 -3.182264 0
M  V30 33 F -3.255726 -9.394074 -3.037838 0
M  V30 34 F -2.889575 -7.169512 -3.452271 0
M  V30 35 F -1.377199 -8.667431 -4.163658 0
M  V30 36 C -1.816607 -7.220041 -1.042576 0
M  V30 37 C -2.749846 -4.214091 3.344707 0
M  V30 38 C -3.253425 -2.933588 3.597823 0
M  V30 39 C -2.611219 -1.826837 3.073766 0
M  V30 40 C -3.209884 -0.502595 3.391226 0
M  V30 41 H 3.559353 0.627274 5.350134 0
M  V30 42 H 1.854291 0.082685 5.496525 0
M  V30 43 H 2.275540 1.653261 6.151810 0
M  V30 44 H 2.810318 2.235909 4.232905 0
M  V30 45 H 3.037758 5.179482 1.074398 0
M  V30 46 H 3.399860 6.972987 -0.455308 0
M  V30 47 H 3.017132 8.075607 -2.550404 0
M  V30 48 H 1.051194 8.368208 -4.254901 0
M  V30 49 H 0.618065 6.897302 -5.133610 0
M  V30 50 H 2.370187 7.401632 -5.128962 0
M  V30 51 H -0.819499 5.265813 -4.290017 0
M  V30 52 H 0.090652 3.993948 -4.469673 0
M  V30 53 H 0.683757 3.933864 -1.598716 0
M  V30 54 H -0.416336 1.247820 0.130897 0
M  V30 55 H -1.234105 -0.393512 0.858596 0
M  V30 56 H -0.086132 -3.188829 1.432265 0
M  V30 57 H -0.164176 -6.137116 2.572296 0
M  V30 58 H 0.298357 -7.797453 1.471424 0
M  V30 59 H 0.841205 -9.747026 0.035168 0
M  V30 60 H -0.372347 -10.057556 -2.150910 0
M  V30 61 H -2.580754 -6.519135 -1.384045 0
M  V30 62 H -3.146404 -5.165087 3.687915 0
M  V30 63 H -4.143816 -2.905771 4.210875 0
M  V30 64 H -3.066044 0.188457 2.539248 0
M  V30 65 H -4.287090 -0.588758 3.639883 0
M  V30 66 H -2.631657 -0.101841 4.269596 0
M  V30 END ATOM
M  V30 BEGIN BOND
M  V30 1 1 1 2
M  V30 2 1 2 3
M  V30 3 2 3 4
M  V30 4 1 4 5
M  V30 5 1 5 6
M  V30 6 1 6 7
M  V30 7 2 7 8
M  V30 8 1 8 9
M  V30 9 2 9 10
M  V30 10 1 10 11
M  V30 11 1 10 12
M  V30 12 1 12 13
M  V30 13 2 12 14
M  V30 14 2 5 15
M  V30 15 1 15 16
M  V30 16 2 16 17
M  V30 17 1 17 18
M  V30 18 2 18 19
M  V30 19 1 18 20
M  V30 20 1 20 21
M  V30 21 2 21 22
M  V30 22 1 22 23
M  V30 23 1 23 24
M  V30 24 1 24 25
M  V30 25 2 25 26
M  V30 26 1 25 27
M  V30 27 2 27 28
M  V30 28 1 28 29
M  V30 29 2 29 30
M  V30 30 1 30 31
M  V30 31 1 31 32
M  V30 32 1 32 33
M  V30 33 1 32 34
M  V30 34 1 32 35
M  V30 35 2 31 36
M  V30 36 2 23 37
M  V30 37 1 37 38
M  V30 38 2 38 39
M  V30 39 1 39 40
M  V30 40 1 17 3
M  V30 41 1 39 21
M  V30 42 1 14 7
M  V30 43 1 36 27
M  V30 44 1 1 41
M  V30 45 1 1 42
M  V30 46 1 1 43
M  V30 47 1 2 44
M  V30 48 1 6 45
M  V30 49 1 8 46
M  V30 50 1 9 47
M  V30 51 1 11 48
M  V30 52 1 11 49
M  V30 53 1 11 50
M  V30 54 1 13 51
M  V30 55 1 13 52
M  V30 56 1 14 53
M  V30 57 1 16 54
M  V30 58 1 20 55
M  V30 59 1 22 56
M  V30 60 1 24 57
M  V30 61 1 28 58
M  V30 62 1 29 59
M  V30 63 1 30 60
M  V30 64 1 36 61
M  V30 65 1 37 62
M  V30 66 1 38 63
M  V30 67 1 40 64
M  V30 68 1 40 65
M  V30 69 1 40 66
M  V30 END BOND
M  V30 END CTAB
M  END
>  <Dataset>  (162) 
ChEMBL_Kinases

>  <Ligand_Instance>  (162) 
nan

>  <PDB_ID>  (162) 
nan

>  <Standardized_SMILES>  (162) 
CNc1nc(Nc2ccc(C)c(N)c2)ncc1C(=O)Nc1cc(NC(=O)c2cccc(C(F)(F)F)c2)ccc1C

>  <Name>  (162) 
nan

>  <Pocket>  (162) 
nan

>  <ATP_Site>  (162) 
nan

>  <Peripheral>  (162) 
nan

>  <Num_H_Atoms_ProtBoundConf>  (162) 
nan

>  <Num_Resolved_Atoms>  (162) 
nan

>  <Num_Not_Resolved_Atoms>  (162) 
nan

$$$$
CHEMBL5083027
     RDKit          3D

  0  0  0  0  0  0  0  0  0  0999 V3000
M  V30 BEGIN CTAB
M  V30 COUNTS 42 44 0 0 0
M  V30 BEGIN ATOM
M  V30 1 C 0.749181 -5.135398 2.208556 0
M  V30 2 O 1.392669 -4.075271 1.581494 0
M  V30 3 C 1.047355 -3.951925 0.249124 0
M  V30 4 C 1.820953 -2.754117 -0.319388 0 CFG=1
M  V30 5 C 1.530710 -2.517305 -1.758991 0
M  V30 6 C 0.470216 -1.516972 -2.035815 0
M  V30 7 C -0.191462 -0.940761 -0.802049 0
M  V30 8 N 0.904465 -0.482898 0.042255 0
M  V30 9 C 1.287510 0.836268 0.419240 0
M  V30 10 C 2.532804 1.231656 -0.011105 0
M  V30 11 C 3.120380 2.456196 0.219060 0
M  V30 12 N 2.339702 3.293343 0.941725 0
M  V30 13 C 1.122793 2.916079 1.366250 0
M  V30 14 S -0.134497 3.847349 2.359099 0
M  V30 15 C -1.298918 2.528817 2.366898 0
M  V30 16 C -2.605150 2.646090 3.043037 0
M  V30 17 N -2.967819 3.842119 3.717137 0
M  V30 18 O -3.383052 1.660296 3.004403 0
M  V30 19 C -0.741170 1.518499 1.676751 0
M  V30 20 N -1.503557 0.317624 1.545241 0
M  V30 21 C 0.508387 1.706908 1.155429 0
M  V30 22 C 1.724838 -1.568208 0.576568 0
M  V30 23 H 1.016583 -6.069353 1.703545 0
M  V30 24 H 0.996920 -5.132108 3.273008 0
M  V30 25 H -0.357017 -4.939721 2.140114 0
M  V30 26 H -0.024359 -3.894445 0.066762 0
M  V30 27 H 1.391108 -4.886241 -0.275610 0
M  V30 28 H 2.892730 -3.115418 -0.284858 0
M  V30 29 H 2.464841 -2.248632 -2.329240 0
M  V30 30 H 1.247198 -3.515304 -2.206238 0
M  V30 31 H -0.321051 -1.898950 -2.696471 0
M  V30 32 H 0.904939 -0.624114 -2.574217 0
M  V30 33 H -0.828324 -1.665319 -0.298451 0
M  V30 34 H -0.752105 -0.034906 -1.114098 0
M  V30 35 H 3.168415 0.548359 -0.600136 0
M  V30 36 H 4.068113 2.810105 -0.086350 0
M  V30 37 H -2.670841 3.681729 4.720247 0
M  V30 38 H -3.404707 4.800645 3.613470 0
M  V30 39 H -1.339000 -0.537291 2.124316 0
M  V30 40 H -2.299318 0.121508 0.885317 0
M  V30 41 H 2.727109 -1.189286 0.863217 0
M  V30 42 H 1.257317 -1.862194 1.562469 0
M  V30 END ATOM
M  V30 BEGIN BOND
M  V30 1 1 1 2
M  V30 2 1 2 3
M  V30 3 1 3 4
M  V30 4 1 4 5
M  V30 5 1 5 6
M  V30 6 1 6 7
M  V30 7 1 7 8
M  V30 8 1 8 9
M  V30 9 2 9 10
M  V30 10 1 10 11
M  V30 11 2 11 12
M  V30 12 1 12 13
M  V30 13 1 13 14
M  V30 14 1 14 15
M  V30 15 1 15 16
M  V30 16 1 16 17
M  V30 17 2 16 18
M  V30 18 2 15 19
M  V30 19 1 19 20
M  V30 20 1 19 21
M  V30 21 1 8 22
M  V30 22 1 22 4
M  V30 23 1 21 9
M  V30 24 2 21 13
M  V30 25 1 1 23
M  V30 26 1 1 24
M  V30 27 1 1 25
M  V30 28 1 3 26
M  V30 29 1 3 27
M  V30 30 1 4 28 CFG=3
M  V30 31 1 5 29
M  V30 32 1 5 30
M  V30 33 1 6 31
M  V30 34 1 6 32
M  V30 35 1 7 33
M  V30 36 1 7 34
M  V30 37 1 10 35
M  V30 38 1 11 36
M  V30 39 1 17 37
M  V30 40 1 17 38
M  V30 41 1 20 39
M  V30 42 1 20 40
M  V30 43 1 22 41
M  V30 44 1 22 42
M  V30 END BOND
M  V30 END CTAB
M  END
>  <Dataset>  (163) 
ChEMBL_Kinases

>  <Ligand_Instance>  (163) 
nan

>  <PDB_ID>  (163) 
nan

>  <Standardized_SMILES>  (163) 
COC[C@H]1CCCN(c2ccnc3sc(C(N)=O)c(N)c23)C1

>  <Name>  (163) 
nan

>  <Pocket>  (163) 
nan

>  <ATP_Site>  (163) 
nan

>  <Peripheral>  (163) 
nan

>  <Num_H_Atoms_ProtBoundConf>  (163) 
nan

>  <Num_Resolved_Atoms>  (163) 
nan

>  <Num_Not_Resolved_Atoms>  (163) 
nan

$$$$
CHEMBL5083033
     RDKit          3D

  0  0  0  0  0  0  0  0  0  0999 V3000
M  V30 BEGIN CTAB
M  V30 COUNTS 31 33 0 0 0
M  V30 BEGIN ATOM
M  V30 1 C -2.660778 -3.036906 3.904017 0
M  V30 2 N -1.220897 -2.740611 3.901471 0
M  V30 3 C -0.829447 -1.703198 2.966316 0
M  V30 4 C -0.110982 -1.817779 1.803903 0
M  V30 5 C 0.047247 -0.681800 1.055366 0
M  V30 6 C 0.877662 -0.729223 -0.156869 0
M  V30 7 C 1.122654 -1.900624 -0.839594 0
M  V30 8 C 1.829101 -1.964024 -2.049190 0
M  V30 9 C 2.308389 -0.780787 -2.591379 0
M  V30 10 O 2.993617 -0.526239 -3.703685 0
M  V30 11 C 3.238083 0.735484 -3.823722 0
M  V30 12 C 2.681187 1.359275 -2.730457 0
M  V30 13 C 2.070453 0.415194 -1.909867 0
M  V30 14 C 1.365928 0.459078 -0.703927 0
M  V30 15 C -0.496752 0.507856 1.472298 0
M  V30 16 C -1.220329 0.606598 2.662662 0
M  V30 17 N -1.785037 1.835306 3.168398 0
M  V30 18 N -1.368648 -0.539624 3.390937 0
M  V30 19 H -3.171512 -2.452557 3.103080 0
M  V30 20 H -2.895392 -4.099534 3.807317 0
M  V30 21 H -3.086284 -2.666070 4.867494 0
M  V30 22 H -0.830915 -3.374982 4.608780 0
M  V30 23 H 0.253338 -2.777353 1.591206 0
M  V30 24 H 0.769111 -2.835829 -0.448259 0
M  V30 25 H 1.985661 -2.930577 -2.529339 0
M  V30 26 H 3.794136 1.210035 -4.652945 0
M  V30 27 H 2.720917 2.415002 -2.564459 0
M  V30 28 H 1.246274 1.414443 -0.265500 0
M  V30 29 H -0.411714 1.447120 0.935108 0
M  V30 30 H -2.504580 2.305316 2.573966 0
M  V30 31 H -1.555852 2.322697 4.072335 0
M  V30 END ATOM
M  V30 BEGIN BOND
M  V30 1 1 1 2
M  V30 2 1 2 3
M  V30 3 2 3 4
M  V30 4 1 4 5
M  V30 5 1 5 6
M  V30 6 2 6 7
M  V30 7 1 7 8
M  V30 8 2 8 9
M  V30 9 1 9 10
M  V30 10 1 10 11
M  V30 11 2 11 12
M  V30 12 1 12 13
M  V30 13 2 13 14
M  V30 14 2 5 15
M  V30 15 1 15 16
M  V30 16 1 16 17
M  V30 17 2 16 18
M  V30 18 1 18 3
M  V30 19 1 14 6
M  V30 20 1 13 9
M  V30 21 1 1 19
M  V30 22 1 1 20
M  V30 23 1 1 21
M  V30 24 1 2 22
M  V30 25 1 4 23
M  V30 26 1 7 24
M  V30 27 1 8 25
M  V30 28 1 11 26
M  V30 29 1 12 27
M  V30 30 1 14 28
M  V30 31 1 15 29
M  V30 32 1 17 30
M  V30 33 1 17 31
M  V30 END BOND
M  V30 END CTAB
M  END
>  <Dataset>  (164) 
ChEMBL_Kinases

>  <Ligand_Instance>  (164) 
nan

>  <PDB_ID>  (164) 
nan

>  <Standardized_SMILES>  (164) 
CNc1cc(-c2ccc3occc3c2)cc(N)n1

>  <Name>  (164) 
nan

>  <Pocket>  (164) 
nan

>  <ATP_Site>  (164) 
nan

>  <Peripheral>  (164) 
nan

>  <Num_H_Atoms_ProtBoundConf>  (164) 
nan

>  <Num_Resolved_Atoms>  (164) 
nan

>  <Num_Not_Resolved_Atoms>  (164) 
nan

$$$$
CHEMBL3702301
     RDKit          3D

  0  0  0  0  0  0  0  0  0  0999 V3000
M  V30 BEGIN CTAB
M  V30 COUNTS 52 54 0 0 0
M  V30 BEGIN ATOM
M  V30 1 C -1.048388 -2.674174 2.566471 0
M  V30 2 C 0.086223 -3.074499 1.693723 0
M  V30 3 C 1.129689 -3.839534 2.209255 0
M  V30 4 C 1.405400 -4.392483 3.509541 0
M  V30 5 N 0.741102 -4.378183 4.756659 0
M  V30 6 O 2.431207 -5.067792 3.754585 0
M  V30 7 S 2.301849 -4.116763 0.854834 0
M  V30 8 C 1.280375 -3.160783 -0.337799 0
M  V30 9 N 1.532496 -2.911872 -1.656653 0
M  V30 10 C 0.667569 -2.188734 -2.382828 0
M  V30 11 N -0.392342 -1.773528 -1.704693 0
M  V30 12 C -0.654332 -2.003623 -0.429208 0
M  V30 13 N -1.871324 -1.432894 0.029895 0
M  V30 14 C -2.710313 -0.683758 -0.843507 0
M  V30 15 C -4.017898 -0.900666 -1.238626 0
M  V30 16 C -4.685960 -0.063361 -2.104937 0
M  V30 17 C -4.040166 1.033515 -2.603222 0
M  V30 18 N -2.769360 1.251399 -2.223956 0
M  V30 19 C -2.091061 0.447817 -1.377023 0
M  V30 20 O -0.763811 0.791309 -1.061751 0
M  V30 21 C -0.242140 1.946258 -1.652255 0
M  V30 22 C 0.842917 1.620458 -2.664045 0
M  V30 23 C 0.142195 3.051692 -0.746738 0
M  V30 24 C 1.186878 2.791026 0.271077 0
M  V30 25 N 0.863520 1.769794 1.199665 0
M  V30 26 S 2.108585 1.502872 2.367934 0
M  V30 27 C 3.554930 0.986124 1.456320 0
M  V30 28 O 1.745458 0.449101 3.345717 0
M  V30 29 O 2.411926 2.806032 3.033399 0
M  V30 30 C 0.183708 -2.736304 0.381052 0
M  V30 31 H -2.006891 -3.140366 2.263173 0
M  V30 32 H -0.856175 -3.093929 3.574217 0
M  V30 33 H -1.101443 -1.577541 2.738567 0
M  V30 34 H 0.830925 -3.822368 5.635863 0
M  V30 35 H -0.016631 -4.831295 5.297328 0
M  V30 36 H 0.957256 -2.055482 -3.389664 0
M  V30 37 H -2.473269 -1.321883 0.840260 0
M  V30 38 H -4.432570 -1.799833 -0.781982 0
M  V30 39 H -5.696590 -0.372195 -2.311533 0
M  V30 40 H -4.587945 1.671658 -3.279683 0
M  V30 41 H -1.086423 2.351481 -2.289835 0
M  V30 42 H 0.808308 2.344182 -3.511914 0
M  V30 43 H 0.775883 0.621109 -3.091871 0
M  V30 44 H 1.812815 1.827707 -2.144005 0
M  V30 45 H -0.771662 3.527071 -0.320483 0
M  V30 46 H 0.557049 3.863905 -1.421324 0
M  V30 47 H 2.175687 2.511106 -0.194260 0
M  V30 48 H 1.406801 3.779191 0.774531 0
M  V30 49 H 0.455466 0.907063 0.848098 0
M  V30 50 H 4.063357 0.122196 1.961179 0
M  V30 51 H 3.284447 0.595682 0.443263 0
M  V30 52 H 4.237088 1.835029 1.311256 0
M  V30 END ATOM
M  V30 BEGIN BOND
M  V30 1 1 1 2
M  V30 2 2 2 3
M  V30 3 1 3 4
M  V30 4 1 4 5
M  V30 5 2 4 6
M  V30 6 1 3 7
M  V30 7 1 7 8
M  V30 8 2 8 9
M  V30 9 1 9 10
M  V30 10 2 10 11
M  V30 11 1 11 12
M  V30 12 1 12 13
M  V30 13 1 13 14
M  V30 14 2 14 15
M  V30 15 1 15 16
M  V30 16 2 16 17
M  V30 17 1 17 18
M  V30 18 2 18 19
M  V30 19 1 19 20
M  V30 20 1 20 21
M  V30 21 1 21 22
M  V30 22 1 21 23
M  V30 23 1 23 24
M  V30 24 1 24 25
M  V30 25 1 25 26
M  V30 26 1 26 27
M  V30 27 2 26 28
M  V30 28 2 26 29
M  V30 29 2 12 30
M  V30 30 1 30 2
M  V30 31 1 30 8
M  V30 32 1 19 14
M  V30 33 1 1 31
M  V30 34 1 1 32
M  V30 35 1 1 33
M  V30 36 1 5 34
M  V30 37 1 5 35
M  V30 38 1 10 36
M  V30 39 1 13 37
M  V30 40 1 15 38
M  V30 41 1 16 39
M  V30 42 1 17 40
M  V30 43 1 21 41
M  V30 44 1 22 42
M  V30 45 1 22 43
M  V30 46 1 22 44
M  V30 47 1 23 45
M  V30 48 1 23 46
M  V30 49 1 24 47
M  V30 50 1 24 48
M  V30 51 1 25 49
M  V30 52 1 27 50
M  V30 53 1 27 51
M  V30 54 1 27 52
M  V30 END BOND
M  V30 END CTAB
M  END
>  <Dataset>  (165) 
ChEMBL_Kinases

>  <Ligand_Instance>  (165) 
nan

>  <PDB_ID>  (165) 
nan

>  <Standardized_SMILES>  (165) 
Cc1c(C(N)=O)sc2ncnc(Nc3cccnc3OC(C)CCNS(C)(=O)=O)c12

>  <Name>  (165) 
nan

>  <Pocket>  (165) 
nan

>  <ATP_Site>  (165) 
nan

>  <Peripheral>  (165) 
nan

>  <Num_H_Atoms_ProtBoundConf>  (165) 
nan

>  <Num_Resolved_Atoms>  (165) 
nan

>  <Num_Not_Resolved_Atoms>  (165) 
nan

$$$$
CHEMBL5083053
     RDKit          3D

  0  0  0  0  0  0  0  0  0  0999 V3000
M  V30 BEGIN CTAB
M  V30 COUNTS 26 28 0 0 0
M  V30 BEGIN ATOM
M  V30 1 N -0.423561 -4.158005 3.292725 0
M  V30 2 C -0.899912 -2.887598 2.867547 0
M  V30 3 C -0.056054 -2.243498 1.957251 0
M  V30 4 C -0.445001 -1.003951 1.494869 0
M  V30 5 C 0.397605 -0.264133 0.529407 0
M  V30 6 C 1.760810 -0.458751 0.624580 0
M  V30 7 C 2.525772 0.234123 -0.273788 0
M  V30 8 C 2.023962 1.081347 -1.228999 0
M  V30 9 O 2.502422 1.841551 -2.179277 0
M  V30 10 C 1.571221 2.471150 -2.833715 0
M  V30 11 C 0.328963 2.113443 -2.285511 0
M  V30 12 C 0.652476 1.218442 -1.255210 0
M  V30 13 C -0.237736 0.565257 -0.392010 0
M  V30 14 C -1.632412 -0.380409 1.897388 0
M  V30 15 C -2.420233 -1.086152 2.807276 0
M  V30 16 N -2.045118 -2.297903 3.262742 0
M  V30 17 H -0.362499 -4.007734 4.337881 0
M  V30 18 H -0.362404 -4.013759 4.319657 0
M  V30 19 H 0.873306 -2.675839 1.610655 0
M  V30 20 H 2.172124 -1.118281 1.366652 0
M  V30 21 H 3.620630 0.128902 -0.258264 0
M  V30 22 H 1.508522 3.169309 -3.656428 0
M  V30 23 H -0.689533 2.417842 -2.544346 0
M  V30 24 H -1.296401 0.699248 -0.445846 0
M  V30 25 H -1.929070 0.586322 1.532434 0
M  V30 26 H -3.361922 -0.667854 3.170473 0
M  V30 END ATOM
M  V30 BEGIN BOND
M  V30 1 1 1 2
M  V30 2 2 2 3
M  V30 3 1 3 4
M  V30 4 1 4 5
M  V30 5 2 5 6
M  V30 6 1 6 7
M  V30 7 2 7 8
M  V30 8 1 8 9
M  V30 9 1 9 10
M  V30 10 2 10 11
M  V30 11 1 11 12
M  V30 12 2 12 13
M  V30 13 2 4 14
M  V30 14 1 14 15
M  V30 15 2 15 16
M  V30 16 1 16 2
M  V30 17 1 13 5
M  V30 18 1 12 8
M  V30 19 1 1 17
M  V30 20 1 1 18
M  V30 21 1 3 19
M  V30 22 1 6 20
M  V30 23 1 7 21
M  V30 24 1 10 22
M  V30 25 1 11 23
M  V30 26 1 13 24
M  V30 27 1 14 25
M  V30 28 1 15 26
M  V30 END BOND
M  V30 END CTAB
M  END
>  <Dataset>  (166) 
ChEMBL_Kinases

>  <Ligand_Instance>  (166) 
nan

>  <PDB_ID>  (166) 
nan

>  <Standardized_SMILES>  (166) 
Nc1cc(-c2ccc3occc3c2)ccn1

>  <Name>  (166) 
nan

>  <Pocket>  (166) 
nan

>  <ATP_Site>  (166) 
nan

>  <Peripheral>  (166) 
nan

>  <Num_H_Atoms_ProtBoundConf>  (166) 
nan

>  <Num_Resolved_Atoms>  (166) 
nan

>  <Num_Not_Resolved_Atoms>  (166) 
nan

$$$$
CHEMBL508307
     RDKit          3D

  0  0  0  0  0  0  0  0  0  0999 V3000
M  V30 BEGIN CTAB
M  V30 COUNTS 72 76 0 0 0
M  V30 BEGIN ATOM
M  V30 1 C -4.001506 -3.732947 -3.517049 0
M  V30 2 C -2.645588 -3.865712 -4.059311 0
M  V30 3 O -1.986306 -4.572237 -3.233112 0
M  V30 4 N -1.690659 -3.591695 -5.064298 0
M  V30 5 C -0.377264 -4.118156 -4.941318 0
M  V30 6 C 0.697479 -3.062780 -4.877039 0
M  V30 7 N 0.298681 -1.823540 -5.472859 0
M  V30 8 C 1.084390 -0.649456 -5.595347 0
M  V30 9 O 1.572060 -1.662921 -5.047300 0
M  V30 10 C 2.277123 0.184641 -5.442764 0
M  V30 11 C 2.608084 0.341333 -3.985833 0
M  V30 12 C 2.128560 1.490952 -3.396145 0
M  V30 13 C 2.337969 1.725057 -2.058901 0
M  V30 14 C 3.032908 0.831981 -1.235417 0
M  V30 15 N 3.154043 1.167400 0.129463 0
M  V30 16 C 3.649046 0.352037 1.185690 0
M  V30 17 N 4.261981 -0.860190 1.001284 0
M  V30 18 C 4.643740 -1.598209 2.049474 0
M  V30 19 C 4.463768 -1.223310 3.352844 0
M  V30 20 F 4.767702 -1.810515 4.525913 0
M  V30 21 C 3.844671 0.001708 3.537342 0
M  V30 22 N 3.436223 0.724613 4.725792 0
M  V30 23 C 2.013012 0.528605 4.885739 0
M  V30 24 C 1.291822 -0.443349 4.225873 0
M  V30 25 C -0.094939 -0.624606 4.333322 0
M  V30 26 C -0.788678 0.254209 5.177703 0
M  V30 27 C -2.223310 0.007779 5.224787 0
M  V30 28 O -2.736170 -0.950688 4.615890 0
M  V30 29 N -2.943291 0.941210 6.005056 0
M  V30 30 C -4.374822 0.748322 6.079342 0
M  V30 31 C -5.100223 0.008349 6.980472 0
M  V30 32 C -6.462763 0.014482 6.799099 0
M  V30 33 C -7.128055 0.691530 5.804387 0
M  V30 34 C -6.379984 1.435053 4.900510 0
M  V30 35 C -5.008102 1.453646 5.050392 0
M  V30 36 Cl -4.150256 2.434377 3.844110 0
M  V30 37 C -0.083744 1.226215 5.842681 0
M  V30 38 C 1.281148 1.379343 5.716518 0
M  V30 39 N 3.469248 0.728455 2.466565 0
M  V30 40 C 3.485556 -0.290133 -1.882207 0
M  V30 41 C 3.298031 -0.562179 -3.218318 0
M  V30 42 C -0.995050 -1.541976 -6.061436 0
M  V30 43 C -1.766086 -2.817551 -6.308812 0
M  V30 44 H -3.954186 -3.272193 -2.492651 0
M  V30 45 H -4.693429 -3.126878 -4.155113 0
M  V30 46 H -4.454258 -4.736442 -3.361373 0
M  V30 47 H -0.218343 -4.800309 -5.828343 0
M  V30 48 H -0.274851 -4.752124 -4.046438 0
M  V30 49 H 1.031894 -2.898286 -3.820124 0
M  V30 50 H 1.566234 -3.489034 -5.419772 0
M  V30 51 H 2.050308 1.185329 -5.893334 0
M  V30 52 H 3.186130 -0.153620 -5.969967 0
M  V30 53 H 1.576738 2.234784 -3.977151 0
M  V30 54 H 1.937872 2.647553 -1.649488 0
M  V30 55 H 2.858643 2.126808 0.429154 0
M  V30 56 H 5.134091 -2.566502 1.961538 0
M  V30 57 H 3.899324 1.327152 5.463153 0
M  V30 58 H 1.805667 -1.137970 3.569634 0
M  V30 59 H -0.562433 -1.430326 3.763537 0
M  V30 60 H -2.665026 1.769245 6.561432 0
M  V30 61 H -4.508671 -0.490809 7.726366 0
M  V30 62 H -7.027883 -0.577485 7.525946 0
M  V30 63 H -8.202363 0.661623 5.708472 0
M  V30 64 H -6.892432 1.977447 4.107326 0
M  V30 65 H -0.651831 1.883638 6.483948 0
M  V30 66 H 1.797885 2.147619 6.252758 0
M  V30 67 H 4.030261 -1.014181 -1.302688 0
M  V30 68 H 3.659753 -1.440751 -3.698531 0
M  V30 69 H -1.607657 -0.897284 -5.389478 0
M  V30 70 H -0.920520 -1.036830 -7.043802 0
M  V30 71 H -1.345451 -3.366265 -7.165027 0
M  V30 72 H -2.833641 -2.561186 -6.532130 0
M  V30 END ATOM
M  V30 BEGIN BOND
M  V30 1 1 1 2
M  V30 2 2 2 3
M  V30 3 1 2 4
M  V30 4 1 4 5
M  V30 5 1 5 6
M  V30 6 1 6 7
M  V30 7 1 7 8
M  V30 8 2 8 9
M  V30 9 1 8 10
M  V30 10 1 10 11
M  V30 11 2 11 12
M  V30 12 1 12 13
M  V30 13 2 13 14
M  V30 14 1 14 15
M  V30 15 1 15 16
M  V30 16 2 16 17
M  V30 17 1 17 18
M  V30 18 2 18 19
M  V30 19 1 19 20
M  V30 20 1 19 21
M  V30 21 1 21 22
M  V30 22 1 22 23
M  V30 23 2 23 24
M  V30 24 1 24 25
M  V30 25 2 25 26
M  V30 26 1 26 27
M  V30 27 2 27 28
M  V30 28 1 27 29
M  V30 29 1 29 30
M  V30 30 2 30 31
M  V30 31 1 31 32
M  V30 32 2 32 33
M  V30 33 1 33 34
M  V30 34 2 34 35
M  V30 35 1 35 36
M  V30 36 1 26 37
M  V30 37 2 37 38
M  V30 38 2 21 39
M  V30 39 1 14 40
M  V30 40 2 40 41
M  V30 41 1 7 42
M  V30 42 1 42 43
M  V30 43 1 43 4
M  V30 44 1 41 11
M  V30 45 1 39 16
M  V30 46 1 38 23
M  V30 47 1 35 30
M  V30 48 1 1 44
M  V30 49 1 1 45
M  V30 50 1 1 46
M  V30 51 1 5 47
M  V30 52 1 5 48
M  V30 53 1 6 49
M  V30 54 1 6 50
M  V30 55 1 10 51
M  V30 56 1 10 52
M  V30 57 1 12 53
M  V30 58 1 13 54
M  V30 59 1 15 55
M  V30 60 1 18 56
M  V30 61 1 22 57
M  V30 62 1 24 58
M  V30 63 1 25 59
M  V30 64 1 29 60
M  V30 65 1 31 61
M  V30 66 1 32 62
M  V30 67 1 33 63
M  V30 68 1 34 64
M  V30 69 1 37 65
M  V30 70 1 38 66
M  V30 71 1 40 67
M  V30 72 1 41 68
M  V30 73 1 42 69
M  V30 74 1 42 70
M  V30 75 1 43 71
M  V30 76 1 43 72
M  V30 END BOND
M  V30 END CTAB
M  END
>  <Dataset>  (167) 
ChEMBL_Kinases

>  <Ligand_Instance>  (167) 
nan

>  <PDB_ID>  (167) 
nan

>  <Standardized_SMILES>  (167) 
CC(=O)N1CCN(C(=O)Cc2ccc(Nc3ncc(F)c(Nc4ccc(C(=O)Nc5ccccc5Cl)cc4)n3)cc2)CC1

>  <Name>  (167) 
nan

>  <Pocket>  (167) 
nan

>  <ATP_Site>  (167) 
nan

>  <Peripheral>  (167) 
nan

>  <Num_H_Atoms_ProtBoundConf>  (167) 
nan

>  <Num_Resolved_Atoms>  (167) 
nan

>  <Num_Not_Resolved_Atoms>  (167) 
nan

$$$$
CHEMBL5083143
     RDKit          3D

  0  0  0  0  0  0  0  0  0  0999 V3000
M  V30 BEGIN CTAB
M  V30 COUNTS 53 58 0 0 0
M  V30 BEGIN ATOM
M  V30 1 C -0.933137 -8.249251 0.868370 0
M  V30 2 C -0.714880 -7.060368 1.572024 0
M  V30 3 C 0.272070 -6.259928 1.048887 0
M  V30 4 C 1.036836 -6.519207 -0.068750 0
M  V30 5 C 2.008639 -5.641705 -0.511576 0
M  V30 6 C 2.161479 -4.432628 0.285564 0
M  V30 7 C 2.995297 -4.247655 1.378367 0
M  V30 8 O 2.853101 -3.010394 1.838238 0
M  V30 9 C 1.966322 -2.375703 1.099404 0
M  V30 10 C 1.453814 -1.078207 1.146396 0
M  V30 11 C 0.497493 -0.659760 0.214128 0
M  V30 12 C 0.025818 0.715458 0.351508 0
M  V30 13 C 0.832622 1.729189 0.826291 0
M  V30 14 C 0.373066 3.027221 0.952272 0
M  V30 15 C -0.911832 3.376262 0.611132 0
M  V30 16 N -1.387330 4.705439 0.738853 0
M  V30 17 C -0.670461 5.861041 1.189797 0
M  V30 18 C -1.238044 6.443924 2.464250 0
M  V30 19 N -2.600394 6.862594 2.234558 0
M  V30 20 C -3.391986 5.859244 1.599281 0
M  V30 21 C -2.721500 5.169657 0.435362 0
M  V30 22 C -1.722233 2.371904 0.136995 0
M  V30 23 C -1.263099 1.076559 0.011540 0
M  V30 24 C 0.063426 -1.541212 -0.754781 0
M  V30 25 N 0.569539 -2.795152 -0.787227 0
M  V30 26 C 1.489189 -3.222387 0.096722 0
M  V30 27 C 2.717327 -6.000624 -1.643150 0
M  V30 28 C 2.445122 -7.194386 -2.286721 0
M  V30 29 N 1.477654 -8.019575 -1.806776 0
M  V30 30 C 0.758987 -7.717737 -0.709402 0
M  V30 31 C -0.221452 -8.590814 -0.252784 0
M  V30 32 H -1.716210 -8.906108 1.266161 0
M  V30 33 H -1.271028 -6.789388 2.451592 0
M  V30 34 H 0.443495 -5.326581 1.601098 0
M  V30 35 H 3.654734 -5.012886 1.778439 0
M  V30 36 H 1.856123 -0.446716 1.949595 0
M  V30 37 H 1.844807 1.450664 1.094507 0
M  V30 38 H 1.093995 3.718985 1.331842 0
M  V30 39 H -0.679216 6.693009 0.451042 0
M  V30 40 H 0.390814 5.593681 1.345907 0
M  V30 41 H -0.649036 7.354025 2.702576 0
M  V30 42 H -1.158884 5.763283 3.327392 0
M  V30 43 H -3.035136 7.078133 3.155025 0
M  V30 44 H -4.276641 6.399488 1.151855 0
M  V30 45 H -3.831693 5.135518 2.320519 0
M  V30 46 H -2.638181 5.941340 -0.386512 0
M  V30 47 H -3.414553 4.369522 0.102715 0
M  V30 48 H -2.747314 2.503551 -0.166825 0
M  V30 49 H -1.890765 0.270243 -0.361681 0
M  V30 50 H -0.681539 -1.180267 -1.463263 0
M  V30 51 H 3.462392 -5.287588 -1.949971 0
M  V30 52 H 3.047878 -7.391039 -3.161086 0
M  V30 53 H -0.439429 -9.526650 -0.752099 0
M  V30 END ATOM
M  V30 BEGIN BOND
M  V30 1 2 1 2
M  V30 2 1 2 3
M  V30 3 2 3 4
M  V30 4 1 4 5
M  V30 5 1 5 6
M  V30 6 2 6 7
M  V30 7 1 7 8
M  V30 8 1 8 9
M  V30 9 2 9 10
M  V30 10 1 10 11
M  V30 11 1 11 12
M  V30 12 2 12 13
M  V30 13 1 13 14
M  V30 14 2 14 15
M  V30 15 1 15 16
M  V30 16 1 16 17
M  V30 17 1 17 18
M  V30 18 1 18 19
M  V30 19 1 19 20
M  V30 20 1 20 21
M  V30 21 1 15 22
M  V30 22 2 22 23
M  V30 23 2 11 24
M  V30 24 1 24 25
M  V30 25 2 25 26
M  V30 26 2 5 27
M  V30 27 1 27 28
M  V30 28 2 28 29
M  V30 29 1 29 30
M  V30 30 2 30 31
M  V30 31 1 31 1
M  V30 32 1 30 4
M  V30 33 1 26 6
M  V30 34 1 26 9
M  V30 35 1 23 12
M  V30 36 1 21 16
M  V30 37 1 1 32
M  V30 38 1 2 33
M  V30 39 1 3 34
M  V30 40 1 7 35
M  V30 41 1 10 36
M  V30 42 1 13 37
M  V30 43 1 14 38
M  V30 44 1 17 39
M  V30 45 1 17 40
M  V30 46 1 18 41
M  V30 47 1 18 42
M  V30 48 1 19 43
M  V30 49 1 20 44
M  V30 50 1 20 45
M  V30 51 1 21 46
M  V30 52 1 21 47
M  V30 53 1 22 48
M  V30 54 1 23 49
M  V30 55 1 24 50
M  V30 56 1 27 51
M  V30 57 1 28 52
M  V30 58 1 31 53
M  V30 END BOND
M  V30 END CTAB
M  END
>  <Dataset>  (168) 
ChEMBL_Kinases

>  <Ligand_Instance>  (168) 
nan

>  <PDB_ID>  (168) 
nan

>  <Standardized_SMILES>  (168) 
c1ccc2c(-c3coc4cc(-c5ccc(N6CCNCC6)cc5)cnc34)ccnc2c1

>  <Name>  (168) 
nan

>  <Pocket>  (168) 
nan

>  <ATP_Site>  (168) 
nan

>  <Peripheral>  (168) 
nan

>  <Num_H_Atoms_ProtBoundConf>  (168) 
nan

>  <Num_Resolved_Atoms>  (168) 
nan

>  <Num_Not_Resolved_Atoms>  (168) 
nan

$$$$
CHEMBL5083185
     RDKit          3D

  0  0  0  0  0  0  0  0  0  0999 V3000
M  V30 BEGIN CTAB
M  V30 COUNTS 37 39 0 0 0
M  V30 BEGIN ATOM
M  V30 1 C 0.763234 -5.638677 1.989634 0
M  V30 2 C 1.484703 -4.654906 1.566413 0
M  V30 3 C 1.697386 -3.372937 0.961598 0
M  V30 4 O 2.965845 -3.336177 1.046578 0
M  V30 5 N 1.030174 -2.283129 0.383925 0
M  V30 6 C 1.913858 -1.181880 0.046851 0
M  V30 7 O 3.149380 -1.523355 -0.034190 0
M  V30 8 C 1.504994 0.221639 -0.193196 0
M  V30 9 C 0.699868 0.849938 0.881321 0
M  V30 10 C 0.776964 2.335467 0.810688 0
M  V30 11 C -0.186600 2.967815 0.025777 0
M  V30 12 C -0.112581 4.335517 -0.036871 0
M  V30 13 C 0.840077 5.075022 0.620688 0
M  V30 14 C 1.793889 4.423027 1.399914 0
M  V30 15 C 1.756333 3.040009 1.491516 0
M  V30 16 Cl 2.947414 2.169613 2.469451 0
M  V30 17 S -1.038805 0.395425 0.980083 0
M  V30 18 C -1.299834 -1.308154 0.466911 0
M  V30 19 C -2.618417 -1.595172 0.273131 0
M  V30 20 C -2.987881 -2.880995 -0.139949 0
M  V30 21 C -2.059014 -3.899488 -0.367209 0
M  V30 22 C -0.720654 -3.631042 -0.177605 0
M  V30 23 C -0.403868 -2.350369 0.230703 0
M  V30 24 H -0.334763 -5.727380 1.952082 0
M  V30 25 H -0.316164 -5.812927 1.994861 0
M  V30 26 H 2.038460 -5.459974 1.996466 0
M  V30 27 H 0.948677 0.291535 -1.150369 0
M  V30 28 H 2.423754 0.826864 -0.335821 0
M  V30 29 H 1.118035 0.598118 1.891269 0
M  V30 30 H -0.954554 2.415881 -0.508183 0
M  V30 31 H -0.857569 4.838645 -0.644965 0
M  V30 32 H 0.833687 6.151983 0.522345 0
M  V30 33 H 2.559992 4.984949 1.931542 0
M  V30 34 H -3.386086 -0.853973 0.430673 0
M  V30 35 H -4.039621 -3.144305 -0.304426 0
M  V30 36 H -2.385218 -4.879648 -0.685887 0
M  V30 37 H 0.052554 -4.343384 -0.342777 0
M  V30 END ATOM
M  V30 BEGIN BOND
M  V30 1 2 1 2
M  V30 2 1 2 3
M  V30 3 2 3 4
M  V30 4 1 3 5
M  V30 5 1 5 6
M  V30 6 2 6 7
M  V30 7 1 6 8
M  V30 8 1 8 9
M  V30 9 1 9 10
M  V30 10 2 10 11
M  V30 11 1 11 12
M  V30 12 2 12 13
M  V30 13 1 13 14
M  V30 14 2 14 15
M  V30 15 1 15 16
M  V30 16 1 9 17
M  V30 17 1 17 18
M  V30 18 2 18 19
M  V30 19 1 19 20
M  V30 20 2 20 21
M  V30 21 1 21 22
M  V30 22 2 22 23
M  V30 23 1 23 5
M  V30 24 1 15 10
M  V30 25 1 23 18
M  V30 26 1 1 24
M  V30 27 1 1 25
M  V30 28 1 2 26
M  V30 29 1 8 27
M  V30 30 1 8 28
M  V30 31 1 9 29
M  V30 32 1 11 30
M  V30 33 1 12 31
M  V30 34 1 13 32
M  V30 35 1 14 33
M  V30 36 1 19 34
M  V30 37 1 20 35
M  V30 38 1 21 36
M  V30 39 1 22 37
M  V30 END BOND
M  V30 END CTAB
M  END
>  <Dataset>  (169) 
ChEMBL_Kinases

>  <Ligand_Instance>  (169) 
nan

>  <PDB_ID>  (169) 
nan

>  <Standardized_SMILES>  (169) 
C=CC(=O)N1C(=O)CC(c2ccccc2Cl)Sc2ccccc21

>  <Name>  (169) 
nan

>  <Pocket>  (169) 
nan

>  <ATP_Site>  (169) 
nan

>  <Peripheral>  (169) 
nan

>  <Num_H_Atoms_ProtBoundConf>  (169) 
nan

>  <Num_Resolved_Atoms>  (169) 
nan

>  <Num_Not_Resolved_Atoms>  (169) 
nan

$$$$
CHEMBL5083242
     RDKit          3D

  0  0  0  0  0  0  0  0  0  0999 V3000
M  V30 BEGIN CTAB
M  V30 COUNTS 30 32 0 0 0
M  V30 BEGIN ATOM
M  V30 1 C 3.018516 -0.728897 2.161972 0
M  V30 2 O 1.723459 -0.494372 1.643689 0
M  V30 3 C 1.171725 -1.464492 0.830408 0
M  V30 4 N 1.840084 -2.610271 0.529249 0
M  V30 5 C 1.258433 -3.523820 -0.269146 0
M  V30 6 C 2.122680 -4.730161 -0.505024 0
M  V30 7 N 0.030850 -3.366643 -0.796922 0
M  V30 8 C -0.699340 -2.263403 -0.550226 0
M  V30 9 N -1.915035 -1.825953 -0.920526 0
M  V30 10 C -2.061726 -0.626229 -0.329978 0
M  V30 11 C -0.937732 -0.278685 0.429212 0
M  V30 12 C -0.933100 0.985392 1.154620 0
M  V30 13 C -1.267355 2.120083 0.402375 0
M  V30 14 C -1.329915 3.408952 0.905069 0
M  V30 15 N -1.044233 3.565311 2.221123 0
M  V30 16 C -0.720427 2.496105 2.968739 0
M  V30 17 C -0.658022 1.216317 2.471625 0
M  V30 18 C -0.078695 -1.345738 0.270354 0
M  V30 19 H 3.021096 -1.502411 2.965124 0
M  V30 20 H 3.707315 -1.130504 1.386716 0
M  V30 21 H 3.486044 0.164703 2.605796 0
M  V30 22 H 1.543338 -5.461122 -1.066544 0
M  V30 23 H 2.469079 -5.095802 0.481164 0
M  V30 24 H 3.026467 -4.383817 -1.075212 0
M  V30 25 H -2.584244 -2.326311 -1.535015 0
M  V30 26 H -2.987900 -0.057845 -0.482033 0
M  V30 27 H -1.502119 2.020978 -0.661540 0
M  V30 28 H -1.595928 4.233690 0.259336 0
M  V30 29 H -0.490024 2.615541 4.028324 0
M  V30 30 H -0.410415 0.372263 3.060173 0
M  V30 END ATOM
M  V30 BEGIN BOND
M  V30 1 1 1 2
M  V30 2 1 2 3
M  V30 3 2 3 4
M  V30 4 1 4 5
M  V30 5 1 5 6
M  V30 6 2 5 7
M  V30 7 1 7 8
M  V30 8 1 8 9
M  V30 9 1 9 10
M  V30 10 2 10 11
M  V30 11 1 11 12
M  V30 12 2 12 13
M  V30 13 1 13 14
M  V30 14 2 14 15
M  V30 15 1 15 16
M  V30 16 2 16 17
M  V30 17 1 11 18
M  V30 18 1 18 3
M  V30 19 2 18 8
M  V30 20 1 17 12
M  V30 21 1 1 19
M  V30 22 1 1 20
M  V30 23 1 1 21
M  V30 24 1 6 22
M  V30 25 1 6 23
M  V30 26 1 6 24
M  V30 27 1 9 25
M  V30 28 1 10 26
M  V30 29 1 13 27
M  V30 30 1 14 28
M  V30 31 1 16 29
M  V30 32 1 17 30
M  V30 END BOND
M  V30 END CTAB
M  END
>  <Dataset>  (170) 
ChEMBL_Kinases

>  <Ligand_Instance>  (170) 
nan

>  <PDB_ID>  (170) 
nan

>  <Standardized_SMILES>  (170) 
COc1nc(C)nc2[nH]cc(-c3ccncc3)c12

>  <Name>  (170) 
nan

>  <Pocket>  (170) 
nan

>  <ATP_Site>  (170) 
nan

>  <Peripheral>  (170) 
nan

>  <Num_H_Atoms_ProtBoundConf>  (170) 
nan

>  <Num_Resolved_Atoms>  (170) 
nan

>  <Num_Not_Resolved_Atoms>  (170) 
nan

$$$$
CHEMBL5083285
     RDKit          3D

  0  0  0  0  0  0  0  0  0  0999 V3000
M  V30 BEGIN CTAB
M  V30 COUNTS 60 63 0 0 0
M  V30 BEGIN ATOM
M  V30 1 C 4.493908 -3.673394 5.159699 0
M  V30 2 N 4.375469 -3.117211 3.787290 0
M  V30 3 C 5.598662 -2.422868 3.555385 0
M  V30 4 C 3.167315 -2.396702 3.784522 0
M  V30 5 C 2.614680 -1.806147 2.578298 0
M  V30 6 C 3.495946 -0.781752 1.916241 0
M  V30 7 N 2.841829 -0.233874 0.722751 0
M  V30 8 C 3.262996 0.775214 -0.220635 0
M  V30 9 O 4.379325 1.240723 0.071062 0
M  V30 10 C 2.246822 0.987076 -1.287704 0
M  V30 11 C 0.924856 1.058730 -0.898286 0
M  V30 12 C -0.128027 1.213442 -1.754674 0
M  V30 13 C -1.505409 1.227151 -1.295443 0
M  V30 14 C -2.575756 1.303268 -2.162395 0
M  V30 15 C -3.888506 1.303493 -1.753396 0
M  V30 16 C -4.205973 1.225716 -0.416352 0
M  V30 17 N -5.484363 1.190155 0.253237 0
M  V30 18 S -6.346931 -0.071592 -0.494210 0
M  V30 19 O -7.710637 -0.139122 0.166714 0
M  V30 20 O -6.600870 0.107991 -1.948701 0
M  V30 21 C -5.512818 -1.620399 -0.288241 0
M  V30 22 C -5.077253 -2.356525 -1.373615 0
M  V30 23 C -4.411797 -3.564736 -1.287980 0
M  V30 24 C -4.158735 -4.081684 -0.016265 0
M  V30 25 C -4.580478 -3.370647 1.063667 0
M  V30 26 Cl -4.236050 -4.063169 2.654730 0
M  V30 27 C -5.238972 -2.176150 0.969743 0
M  V30 28 Cl -5.767904 -1.288811 2.391563 0
M  V30 29 C -3.162095 1.149368 0.524272 0
M  V30 30 C -1.878703 1.154396 0.023542 0
M  V30 31 N 0.196578 1.298279 -3.052141 0
M  V30 32 C 1.464721 1.235935 -3.488623 0
M  V30 33 N 2.082960 1.294235 -4.704818 0
M  V30 34 N 3.396533 1.184348 -4.595807 0
M  V30 35 C 3.725594 1.045807 -3.292531 0
M  V30 36 C 2.531411 1.079660 -2.631067 0
M  V30 37 H 3.827256 -4.524283 5.274244 0
M  V30 38 H 5.520537 -4.020197 5.342546 0
M  V30 39 H 4.196605 -2.893252 5.881160 0
M  V30 40 H 5.500264 -1.337817 3.791158 0
M  V30 41 H 6.349901 -2.773386 4.328658 0
M  V30 42 H 6.108311 -2.639335 2.596459 0
M  V30 43 H 2.378565 -3.100828 4.205691 0
M  V30 44 H 3.189577 -1.590098 4.587396 0
M  V30 45 H 1.697261 -1.202278 2.896141 0
M  V30 46 H 2.168374 -2.516880 1.843499 0
M  V30 47 H 4.498830 -1.163926 1.664445 0
M  V30 48 H 3.623093 0.059575 2.615599 0
M  V30 49 H 1.889446 -0.693407 0.563564 0
M  V30 50 H 0.758606 0.983153 0.159228 0
M  V30 51 H -2.423941 1.370916 -3.241960 0
M  V30 52 H -4.754097 1.368646 -2.390321 0
M  V30 53 H -5.660149 1.892942 1.032879 0
M  V30 54 H -5.303605 -1.897136 -2.348843 0
M  V30 55 H -4.102403 -4.077396 -2.209588 0
M  V30 56 H -3.634837 -5.028103 0.046751 0
M  V30 57 H -3.319252 1.084448 1.615741 0
M  V30 58 H -1.098002 1.093454 0.788541 0
M  V30 59 H 1.504847 1.416950 -5.589339 0
M  V30 60 H 4.713157 0.933070 -2.848609 0
M  V30 END ATOM
M  V30 BEGIN BOND
M  V30 1 1 1 2
M  V30 2 1 2 3
M  V30 3 1 2 4
M  V30 4 1 4 5
M  V30 5 1 5 6
M  V30 6 1 6 7
M  V30 7 1 7 8
M  V30 8 2 8 9
M  V30 9 1 8 10
M  V30 10 2 10 11
M  V30 11 1 11 12
M  V30 12 1 12 13
M  V30 13 2 13 14
M  V30 14 1 14 15
M  V30 15 2 15 16
M  V30 16 1 16 17
M  V30 17 1 17 18
M  V30 18 2 18 19
M  V30 19 2 18 20
M  V30 20 1 18 21
M  V30 21 2 21 22
M  V30 22 1 22 23
M  V30 23 2 23 24
M  V30 24 1 24 25
M  V30 25 1 25 26
M  V30 26 2 25 27
M  V30 27 1 27 28
M  V30 28 1 16 29
M  V30 29 2 29 30
M  V30 30 2 12 31
M  V30 31 1 31 32
M  V30 32 1 32 33
M  V30 33 1 33 34
M  V30 34 2 34 35
M  V30 35 1 35 36
M  V30 36 1 36 10
M  V30 37 1 30 13
M  V30 38 2 36 32
M  V30 39 1 27 21
M  V30 40 1 1 37
M  V30 41 1 1 38
M  V30 42 1 1 39
M  V30 43 1 3 40
M  V30 44 1 3 41
M  V30 45 1 3 42
M  V30 46 1 4 43
M  V30 47 1 4 44
M  V30 48 1 5 45
M  V30 49 1 5 46
M  V30 50 1 6 47
M  V30 51 1 6 48
M  V30 52 1 7 49
M  V30 53 1 11 50
M  V30 54 1 14 51
M  V30 55 1 15 52
M  V30 56 1 17 53
M  V30 57 1 22 54
M  V30 58 1 23 55
M  V30 59 1 24 56
M  V30 60 1 29 57
M  V30 61 1 30 58
M  V30 62 1 33 59
M  V30 63 1 35 60
M  V30 END BOND
M  V30 END CTAB
M  END
>  <Dataset>  (171) 
ChEMBL_Kinases

>  <Ligand_Instance>  (171) 
nan

>  <PDB_ID>  (171) 
nan

>  <Standardized_SMILES>  (171) 
CN(C)CCCNC(=O)c1cc(-c2ccc(NS(=O)(=O)c3cccc(Cl)c3Cl)cc2)nc2[nH]ncc12

>  <Name>  (171) 
nan

>  <Pocket>  (171) 
nan

>  <ATP_Site>  (171) 
nan

>  <Peripheral>  (171) 
nan

>  <Num_H_Atoms_ProtBoundConf>  (171) 
nan

>  <Num_Resolved_Atoms>  (171) 
nan

>  <Num_Not_Resolved_Atoms>  (171) 
nan

$$$$
CHEMBL5083318
     RDKit          3D

  0  0  0  0  0  0  0  0  0  0999 V3000
M  V30 BEGIN CTAB
M  V30 COUNTS 68 72 0 0 0
M  V30 BEGIN ATOM
M  V30 1 C 2.951552 -1.136521 3.942521 0
M  V30 2 C 4.283813 -1.771784 3.753714 0
M  V30 3 N 5.021714 -1.429218 2.620791 0
M  V30 4 C 5.540091 -0.105696 2.493017 0
M  V30 5 C 5.080505 0.561471 1.201233 0
M  V30 6 N 4.022507 -0.289445 0.628935 0
M  V30 7 C 2.647773 0.015212 0.470814 0
M  V30 8 C 2.072567 1.230512 0.724775 0
M  V30 9 C 0.715479 1.382702 0.574516 0
M  V30 10 N 0.026468 2.606229 0.813752 0
M  V30 11 C -0.008734 3.384322 -0.377115 0
M  V30 12 C 1.002565 4.328238 -0.558817 0
M  V30 13 C 0.747439 4.942921 -1.774143 0
M  V30 14 C 1.492061 6.035962 -2.488895 0
M  V30 15 N -0.369439 4.385232 -2.291310 0
M  V30 16 N -0.828042 3.454637 -1.465583 0
M  V30 17 N -0.032706 0.314080 0.174715 0
M  V30 18 C 0.528190 -0.884791 -0.076424 0
M  V30 19 N -0.231855 -2.018419 -0.444512 0
M  V30 20 C -1.633882 -2.112746 -0.543952 0 CFG=1
M  V30 21 C -2.323931 -1.180968 -1.507527 0
M  V30 22 C -3.622203 -1.943692 -1.800950 0
M  V30 23 N -3.575638 -3.166215 -0.990042 0
M  V30 24 C -4.440679 -4.025348 -0.210934 0
M  V30 25 O -3.876539 -5.040969 0.328693 0
M  V30 26 C -5.827758 -4.076511 0.160574 0
M  V30 27 C -5.959011 -3.755139 1.520639 0
M  V30 28 C -7.207717 -3.721502 2.165232 0
M  V30 29 C -8.308140 -4.025220 1.380380 0
M  V30 30 Cl -9.905552 -4.003633 2.117193 0
M  V30 31 C -8.218205 -4.343382 0.046300 0
M  V30 32 C -6.982100 -4.363897 -0.539185 0
M  V30 33 C -2.130403 -3.440071 -1.108714 0
M  V30 34 N 1.862817 -0.994582 0.079627 0
M  V30 35 C 4.557680 -1.597140 0.213793 0
M  V30 36 C 5.046125 -2.262722 1.489785 0
M  V30 37 H 2.411181 -1.771494 4.703651 0
M  V30 38 H 2.302673 -1.132086 3.066329 0
M  V30 39 H 3.022599 -0.140002 4.468041 0
M  V30 40 H 4.099428 -2.887589 3.735557 0
M  V30 41 H 4.868200 -1.593992 4.696083 0
M  V30 42 H 6.645286 -0.169165 2.454689 0
M  V30 43 H 5.261970 0.469108 3.371590 0
M  V30 44 H 5.914817 0.526141 0.473535 0
M  V30 45 H 4.783777 1.596100 1.328672 0
M  V30 46 H 2.688156 2.046422 1.035454 0
M  V30 47 H -0.329515 2.730338 1.782356 0
M  V30 48 H 1.845351 4.600195 0.053776 0
M  V30 49 H 0.971875 6.992809 -2.289203 0
M  V30 50 H 2.508627 6.124772 -2.039701 0
M  V30 51 H 1.636684 5.809121 -3.544921 0
M  V30 52 H -0.916784 4.545675 -3.191021 0
M  V30 53 H 0.288455 -2.916166 -0.677892 0
M  V30 54 H -2.146779 -1.934153 0.447349 0
M  V30 55 H -2.509791 -0.188614 -1.058982 0
M  V30 56 H -1.716608 -1.092897 -2.457903 0
M  V30 57 H -4.446469 -1.275516 -1.425287 0
M  V30 58 H -3.773972 -2.144124 -2.861427 0
M  V30 59 H -5.152178 -3.504581 2.217367 0
M  V30 60 H -7.337365 -3.475336 3.205494 0
M  V30 61 H -9.044544 -4.585548 -0.604810 0
M  V30 62 H -6.738586 -4.598099 -1.581479 0
M  V30 63 H -1.806686 -4.303363 -0.538213 0
M  V30 64 H -1.913745 -3.456057 -2.184764 0
M  V30 65 H 5.436011 -1.421506 -0.472803 0
M  V30 66 H 3.750278 -2.158363 -0.259183 0
M  V30 67 H 6.066417 -2.669199 1.290374 0
M  V30 68 H 4.397203 -3.155603 1.669145 0
M  V30 END ATOM
M  V30 BEGIN BOND
M  V30 1 1 1 2
M  V30 2 1 2 3
M  V30 3 1 3 4
M  V30 4 1 4 5
M  V30 5 1 5 6
M  V30 6 1 6 7
M  V30 7 2 7 8
M  V30 8 1 8 9
M  V30 9 1 9 10
M  V30 10 1 10 11
M  V30 11 1 11 12
M  V30 12 2 12 13
M  V30 13 1 13 14
M  V30 14 1 13 15
M  V30 15 1 15 16
M  V30 16 2 9 17
M  V30 17 1 17 18
M  V30 18 1 18 19
M  V30 19 1 19 20
M  V30 20 1 20 21
M  V30 21 1 21 22
M  V30 22 1 22 23
M  V30 23 1 23 24
M  V30 24 2 24 25
M  V30 25 1 24 26
M  V30 26 2 26 27
M  V30 27 1 27 28
M  V30 28 2 28 29
M  V30 29 1 29 30
M  V30 30 1 29 31
M  V30 31 2 31 32
M  V30 32 1 23 33
M  V30 33 2 18 34
M  V30 34 1 6 35
M  V30 35 1 35 36
M  V30 36 1 36 3
M  V30 37 1 34 7
M  V30 38 2 16 11
M  V30 39 1 33 20
M  V30 40 1 32 26
M  V30 41 1 1 37
M  V30 42 1 1 38
M  V30 43 1 1 39
M  V30 44 1 2 40
M  V30 45 1 2 41
M  V30 46 1 4 42
M  V30 47 1 4 43
M  V30 48 1 5 44
M  V30 49 1 5 45
M  V30 50 1 8 46
M  V30 51 1 10 47
M  V30 52 1 12 48
M  V30 53 1 14 49
M  V30 54 1 14 50
M  V30 55 1 14 51
M  V30 56 1 15 52
M  V30 57 1 19 53
M  V30 58 1 20 54 CFG=1
M  V30 59 1 21 55
M  V30 60 1 21 56
M  V30 61 1 22 57
M  V30 62 1 22 58
M  V30 63 1 27 59
M  V30 64 1 28 60
M  V30 65 1 31 61
M  V30 66 1 32 62
M  V30 67 1 33 63
M  V30 68 1 33 64
M  V30 69 1 35 65
M  V30 70 1 35 66
M  V30 71 1 36 67
M  V30 72 1 36 68
M  V30 END BOND
M  V30 END CTAB
M  END
>  <Dataset>  (172) 
ChEMBL_Kinases

>  <Ligand_Instance>  (172) 
nan

>  <PDB_ID>  (172) 
nan

>  <Standardized_SMILES>  (172) 
CCN1CCN(c2cc(Nc3cc(C)[nH]n3)nc(N[C@H]3CCN(C(=O)c4ccc(Cl)cc4)C3)n2)CC1

>  <Name>  (172) 
nan

>  <Pocket>  (172) 
nan

>  <ATP_Site>  (172) 
nan

>  <Peripheral>  (172) 
nan

>  <Num_H_Atoms_ProtBoundConf>  (172) 
nan

>  <Num_Resolved_Atoms>  (172) 
nan

>  <Num_Not_Resolved_Atoms>  (172) 
nan

$$$$
CHEMBL3780781
     RDKit          3D

  0  0  0  0  0  0  0  0  0  0999 V3000
M  V30 BEGIN CTAB
M  V30 COUNTS 31 33 0 0 0
M  V30 BEGIN ATOM
M  V30 1 O -0.513039 -2.906225 1.049303 0
M  V30 2 C 0.574740 -2.382245 0.703825 0
M  V30 3 C 1.906373 -2.515679 1.279360 0
M  V30 4 C 2.277036 -3.275820 2.374163 0
M  V30 5 C 3.595634 -3.256814 2.748495 0
M  V30 6 C 4.484620 -2.489878 2.025972 0
M  V30 7 C 4.054300 -1.752322 0.942320 0
M  V30 8 C 2.742870 -1.729151 0.515646 0
M  V30 9 C 1.939548 -1.107916 -0.530325 0
M  V30 10 O 2.577727 -0.339537 -1.330881 0
M  V30 11 N 0.553892 -1.517405 -0.419679 0
M  V30 12 C -0.304596 -0.934134 -1.405373 0
M  V30 13 N -0.866996 0.348636 -1.049022 0
M  V30 14 C -1.783428 0.909794 -0.156948 0
M  V30 15 C -2.075499 2.276209 -0.057829 0
M  V30 16 C -3.012545 2.673760 0.857467 0
M  V30 17 C -3.695462 1.820935 1.695723 0
M  V30 18 F -4.600179 2.341005 2.559037 0
M  V30 19 C -3.410768 0.474000 1.601147 0
M  V30 20 C -2.468419 0.058298 0.682834 0
M  V30 21 H 1.553198 -3.866572 2.918889 0
M  V30 22 H 3.911967 -3.831196 3.586719 0
M  V30 23 H 5.523660 -2.483344 2.331845 0
M  V30 24 H 4.766755 -1.140902 0.367452 0
M  V30 25 H -1.206834 -1.634014 -1.450975 0
M  V30 26 H 0.129207 -0.916826 -2.415570 0
M  V30 27 H -0.441640 1.114143 -1.664996 0
M  V30 28 H -1.537954 2.953493 -0.718512 0
M  V30 29 H -3.164158 3.745152 0.854672 0
M  V30 30 H -3.977866 -0.143144 2.283646 0
M  V30 31 H -2.377506 -1.016612 0.737060 0
M  V30 END ATOM
M  V30 BEGIN BOND
M  V30 1 2 1 2
M  V30 2 1 2 3
M  V30 3 2 3 4
M  V30 4 1 4 5
M  V30 5 2 5 6
M  V30 6 1 6 7
M  V30 7 2 7 8
M  V30 8 1 8 9
M  V30 9 2 9 10
M  V30 10 1 9 11
M  V30 11 1 11 12
M  V30 12 1 12 13
M  V30 13 1 13 14
M  V30 14 2 14 15
M  V30 15 1 15 16
M  V30 16 2 16 17
M  V30 17 1 17 18
M  V30 18 1 17 19
M  V30 19 2 19 20
M  V30 20 1 11 2
M  V30 21 1 20 14
M  V30 22 1 8 3
M  V30 23 1 4 21
M  V30 24 1 5 22
M  V30 25 1 6 23
M  V30 26 1 7 24
M  V30 27 1 12 25
M  V30 28 1 12 26
M  V30 29 1 13 27
M  V30 30 1 15 28
M  V30 31 1 16 29
M  V30 32 1 19 30
M  V30 33 1 20 31
M  V30 END BOND
M  V30 END CTAB
M  END
>  <Dataset>  (173) 
ChEMBL_Kinases

>  <Ligand_Instance>  (173) 
nan

>  <PDB_ID>  (173) 
nan

>  <Standardized_SMILES>  (173) 
O=C1c2ccccc2C(=O)N1CNc1ccc(F)cc1

>  <Name>  (173) 
nan

>  <Pocket>  (173) 
nan

>  <ATP_Site>  (173) 
nan

>  <Peripheral>  (173) 
nan

>  <Num_H_Atoms_ProtBoundConf>  (173) 
nan

>  <Num_Resolved_Atoms>  (173) 
nan

>  <Num_Not_Resolved_Atoms>  (173) 
nan

$$$$
CHEMBL5083531
     RDKit          3D

  0  0  0  0  0  0  0  0  0  0999 V3000
M  V30 BEGIN CTAB
M  V30 COUNTS 131 133 0 0 0
M  V30 BEGIN ATOM
M  V30 1 C 7.861808 6.921511 3.291014 0
M  V30 2 O 7.122400 6.936796 2.130804 0
M  V30 3 C 5.893671 6.410837 1.840411 0
M  V30 4 O 5.855776 6.000576 3.035243 0
M  V30 5 C 5.404504 6.610286 0.458458 0 CFG=2
M  V30 6 C 5.061880 7.988672 0.070431 0
M  V30 7 C 6.037049 9.075383 0.096874 0
M  V30 8 C 7.275141 8.920339 -0.731279 0
M  V30 9 C 6.344009 9.630244 1.438256 0
M  V30 10 N 4.152623 5.837945 0.224064 0
M  V30 11 C 4.129430 4.472416 -0.143498 0
M  V30 12 O 5.241673 3.860858 -0.250518 0
M  V30 13 C 2.927619 3.577303 -0.450407 0 CFG=2
M  V30 14 C 3.286202 3.026278 -1.842182 0
M  V30 15 C 2.986635 4.228671 -2.701625 0
M  V30 16 C 1.706981 4.842724 -2.196539 0 CFG=1
M  V30 17 O 0.562208 4.433587 -2.844779 0
M  V30 18 C 0.497908 3.116474 -3.178093 0
M  V30 19 C -0.781674 2.748052 -3.901077 0
M  V30 20 N -0.647711 1.294458 -4.214588 0
M  V30 21 C -0.546521 0.223205 -3.313067 0
M  V30 22 O -0.629485 0.708953 -2.171765 0
M  V30 23 C -0.438506 -0.915337 -2.370785 0
M  V30 24 C -0.577823 -0.512236 -0.954608 0
M  V30 25 C -0.520453 -1.645609 0.062771 0 CFG=2
M  V30 26 N -1.523724 -2.582569 -0.300705 0
M  V30 27 C -1.123335 -3.929408 -0.321857 0
M  V30 28 O 0.054340 -4.232324 -0.016071 0
M  V30 29 C -2.064467 -4.989349 -0.698444 0
M  V30 30 C -1.758014 -6.342843 -0.569199 0
M  V30 31 C -2.634900 -7.370894 -0.950316 0
M  V30 32 O -2.052396 -8.569808 -0.702483 0
M  V30 33 C -2.500276 -9.868817 -0.918172 0
M  V30 34 C -2.749736 -10.203046 -2.353269 0
M  V30 35 N -3.213858 -11.600108 -2.400111 0
M  V30 36 C -3.462949 -11.987313 -3.781972 0
M  V30 37 C -2.176915 -12.463083 -1.871355 0
M  V30 38 C -3.835192 -6.961420 -1.467713 0
M  V30 39 C -4.187981 -5.643276 -1.617331 0
M  V30 40 O -5.419285 -5.321419 -2.153438 0
M  V30 41 C -6.287950 -6.359893 -2.532068 0
M  V30 42 C -7.577794 -5.853409 -3.116891 0
M  V30 43 C -8.326213 -4.984904 -2.138251 0
M  V30 44 C -8.442631 -7.075580 -3.376833 0
M  V30 45 C -3.289240 -4.668084 -1.226338 0
M  V30 46 C -0.895448 -1.008302 1.409470 0
M  V30 47 O -1.827376 -1.092580 2.227539 0
M  V30 48 N -0.157288 -0.035046 2.135475 0
M  V30 49 C -0.413206 0.752984 3.356321 0 CFG=1
M  V30 50 C 0.563363 0.285198 4.399529 0
M  V30 51 O 1.891601 0.439632 4.030919 0
M  V30 52 C -0.232026 2.213160 3.012255 0
M  V30 53 O -0.691589 3.164202 3.676730 0
M  V30 54 N 0.419758 2.973857 2.007629 0
M  V30 55 C 0.450213 4.406069 1.640341 0 CFG=1
M  V30 56 C 1.280472 5.120514 2.722355 0 CFG=1
M  V30 57 C 2.542139 4.399903 3.058834 0
M  V30 58 O 1.464369 6.446336 2.506526 0
M  V30 59 P 0.846286 7.416765 3.746689 0
M  V30 60 O 2.039399 8.158449 4.348097 0
M  V30 61 O -0.267782 8.537735 3.193245 0
M  V30 62 O 0.212845 6.448729 4.979581 0
M  V30 63 C 0.930215 4.637870 0.323367 0
M  V30 64 O 0.314358 5.558155 -0.253274 0
M  V30 65 N 1.797078 4.407105 -0.790733 0
M  V30 66 H 7.214636 7.072087 4.174361 0
M  V30 67 H 8.638611 7.751456 3.245905 0
M  V30 68 H 8.450741 5.976394 3.317418 0
M  V30 69 H 6.141631 6.063991 -0.175393 0
M  V30 70 H 4.178871 8.280964 0.738272 0
M  V30 71 H 4.543287 7.910787 -0.942243 0
M  V30 72 H 5.488978 9.956649 -0.449719 0
M  V30 73 H 7.100060 8.813912 -1.815518 0
M  V30 74 H 7.954023 8.144337 -0.324490 0
M  V30 75 H 7.833045 9.896324 -0.608122 0
M  V30 76 H 6.136330 10.752890 1.493962 0
M  V30 77 H 7.408820 9.565880 1.732503 0
M  V30 78 H 5.712917 9.212453 2.238476 0
M  V30 79 H 3.190366 6.237850 0.312760 0
M  V30 80 H 2.790487 2.793706 0.266402 0
M  V30 81 H 4.385858 2.784820 -1.859040 0
M  V30 82 H 2.712407 2.132160 -2.011536 0
M  V30 83 H 2.927124 3.869097 -3.745707 0
M  V30 84 H 3.833589 4.965848 -2.662190 0
M  V30 85 H 1.753736 5.940287 -2.292380 0
M  V30 86 H 0.470739 2.563954 -2.203186 0
M  V30 87 H 1.354980 2.722757 -3.780162 0
M  V30 88 H -0.934186 3.300515 -4.812018 0
M  V30 89 H -1.678182 2.816491 -3.260718 0
M  V30 90 H -0.565314 0.392778 -4.747957 0
M  V30 91 H 0.523862 -1.440483 -2.593066 0
M  V30 92 H -1.237548 -1.649809 -2.673700 0
M  V30 93 H -1.610990 -0.079576 -0.802070 0
M  V30 94 H 0.122575 0.305937 -0.619605 0
M  V30 95 H 0.501294 -1.991984 0.156970 0
M  V30 96 H -2.479872 -2.242281 -0.522646 0
M  V30 97 H -0.751079 -6.473776 -0.130761 0
M  V30 98 H -1.832493 -10.629798 -0.449877 0
M  V30 99 H -3.479949 -9.971648 -0.360743 0
M  V30 100 H -1.775988 -10.130643 -2.896287 0
M  V30 101 H -3.532345 -9.598062 -2.799814 0
M  V30 102 H -4.561450 -12.029320 -3.924342 0
M  V30 103 H -3.011318 -12.978943 -4.019532 0
M  V30 104 H -3.032166 -11.234186 -4.489680 0
M  V30 105 H -2.071390 -13.343068 -2.527745 0
M  V30 106 H -2.513547 -12.742577 -0.831470 0
M  V30 107 H -1.187060 -11.955552 -1.877096 0
M  V30 108 H -4.477529 -7.771593 -1.734886 0
M  V30 109 H -6.520977 -6.939795 -1.615680 0
M  V30 110 H -5.813129 -7.073565 -3.231524 0
M  V30 111 H -7.425182 -5.343419 -4.097728 0
M  V30 112 H -9.264014 -4.645916 -2.619332 0
M  V30 113 H -7.687783 -4.110432 -1.854043 0
M  V30 114 H -8.611177 -5.574627 -1.249164 0
M  V30 115 H -9.173833 -7.202465 -2.525438 0
M  V30 116 H -9.052571 -7.007921 -4.275380 0
M  V30 117 H -7.831979 -8.022730 -3.336141 0
M  V30 118 H -3.637629 -3.665687 -1.370431 0
M  V30 119 H 0.722471 0.062938 1.619689 0
M  V30 120 H -1.421406 0.574832 3.713579 0
M  V30 121 H 0.377494 -0.802487 4.520518 0
M  V30 122 H 0.363619 0.745764 5.393295 0
M  V30 123 H 2.042875 1.261650 3.532554 0
M  V30 124 H 0.898590 2.165874 1.583773 0
M  V30 125 H -0.570039 4.774311 1.819243 0
M  V30 126 H 0.653565 5.059164 3.674472 0
M  V30 127 H 3.452735 4.884730 2.673169 0
M  V30 128 H 2.498807 3.403865 2.552555 0
M  V30 129 H 2.713189 4.288592 4.152740 0
M  V30 130 H -0.211679 8.734754 2.238336 0
M  V30 131 H -0.556348 6.926641 5.357772 0
M  V30 END ATOM
M  V30 BEGIN BOND
M  V30 1 1 1 2
M  V30 2 1 2 3
M  V30 3 2 3 4
M  V30 4 1 3 5
M  V30 5 1 5 6
M  V30 6 1 6 7
M  V30 7 1 7 8
M  V30 8 1 7 9
M  V30 9 1 5 10
M  V30 10 1 10 11
M  V30 11 2 11 12
M  V30 12 1 11 13
M  V30 13 1 13 14
M  V30 14 1 14 15
M  V30 15 1 15 16
M  V30 16 1 16 17
M  V30 17 1 17 18
M  V30 18 1 18 19
M  V30 19 1 19 20
M  V30 20 1 20 21
M  V30 21 2 21 22
M  V30 22 1 21 23
M  V30 23 1 23 24
M  V30 24 1 24 25
M  V30 25 1 25 26
M  V30 26 1 26 27
M  V30 27 2 27 28
M  V30 28 1 27 29
M  V30 29 2 29 30
M  V30 30 1 30 31
M  V30 31 1 31 32
M  V30 32 1 32 33
M  V30 33 1 33 34
M  V30 34 1 34 35
M  V30 35 1 35 36
M  V30 36 1 35 37
M  V30 37 2 31 38
M  V30 38 1 38 39
M  V30 39 1 39 40
M  V30 40 1 40 41
M  V30 41 1 41 42
M  V30 42 1 42 43
M  V30 43 1 42 44
M  V30 44 2 39 45
M  V30 45 1 25 46
M  V30 46 2 46 47
M  V30 47 1 46 48
M  V30 48 1 48 49
M  V30 49 1 49 50
M  V30 50 1 50 51
M  V30 51 1 49 52
M  V30 52 2 52 53
M  V30 53 1 52 54
M  V30 54 1 54 55
M  V30 55 1 55 56
M  V30 56 1 56 57
M  V30 57 1 56 58
M  V30 58 1 58 59
M  V30 59 2 59 60
M  V30 60 1 59 61
M  V30 61 1 59 62
M  V30 62 1 55 63
M  V30 63 2 63 64
M  V30 64 1 63 65
M  V30 65 1 65 13
M  V30 66 1 65 16
M  V30 67 1 45 29
M  V30 68 1 1 66
M  V30 69 1 1 67
M  V30 70 1 1 68
M  V30 71 1 5 69 CFG=3
M  V30 72 1 6 70
M  V30 73 1 6 71
M  V30 74 1 7 72
M  V30 75 1 8 73
M  V30 76 1 8 74
M  V30 77 1 8 75
M  V30 78 1 9 76
M  V30 79 1 9 77
M  V30 80 1 9 78
M  V30 81 1 10 79
M  V30 82 1 13 80 CFG=1
M  V30 83 1 14 81
M  V30 84 1 14 82
M  V30 85 1 15 83
M  V30 86 1 15 84
M  V30 87 1 16 85 CFG=1
M  V30 88 1 18 86
M  V30 89 1 18 87
M  V30 90 1 19 88
M  V30 91 1 19 89
M  V30 92 1 20 90
M  V30 93 1 23 91
M  V30 94 1 23 92
M  V30 95 1 24 93
M  V30 96 1 24 94
M  V30 97 1 25 95 CFG=1
M  V30 98 1 26 96
M  V30 99 1 30 97
M  V30 100 1 33 98
M  V30 101 1 33 99
M  V30 102 1 34 100
M  V30 103 1 34 101
M  V30 104 1 36 102
M  V30 105 1 36 103
M  V30 106 1 36 104
M  V30 107 1 37 105
M  V30 108 1 37 106
M  V30 109 1 37 107
M  V30 110 1 38 108
M  V30 111 1 41 109
M  V30 112 1 41 110
M  V30 113 1 42 111
M  V30 114 1 43 112
M  V30 115 1 43 113
M  V30 116 1 43 114
M  V30 117 1 44 115
M  V30 118 1 44 116
M  V30 119 1 44 117
M  V30 120 1 45 118
M  V30 121 1 48 119
M  V30 122 1 49 120 CFG=1
M  V30 123 1 50 121
M  V30 124 1 50 122
M  V30 125 1 51 123
M  V30 126 1 54 124
M  V30 127 1 55 125 CFG=3
M  V30 128 1 56 126 CFG=1
M  V30 129 1 57 127
M  V30 130 1 57 128
M  V30 131 1 57 129
M  V30 132 1 61 130
M  V30 133 1 62 131
M  V30 END BOND
M  V30 END CTAB
M  END
>  <Dataset>  (174) 
ChEMBL_Kinases

>  <Ligand_Instance>  (174) 
nan

>  <PDB_ID>  (174) 
nan

>  <Standardized_SMILES>  (174) 
COC(=O)[C@H](CC(C)C)NC(=O)[C@@H]1CC[C@H]2OCCNC(=O)CC[C@H](NC(=O)c3cc(OCCN(C)C)cc(OCC(C)C)c3)C(=O)N[C@@H](CO)C(=O)N[C@@H]([C@@H](C)OP(=O)(O)O)C(=O)N21

>  <Name>  (174) 
nan

>  <Pocket>  (174) 
nan

>  <ATP_Site>  (174) 
nan

>  <Peripheral>  (174) 
nan

>  <Num_H_Atoms_ProtBoundConf>  (174) 
nan

>  <Num_Resolved_Atoms>  (174) 
nan

>  <Num_Not_Resolved_Atoms>  (174) 
nan

$$$$
CHEMBL3702302
     RDKit          3D

  0  0  0  0  0  0  0  0  0  0999 V3000
M  V30 BEGIN CTAB
M  V30 COUNTS 69 71 0 0 0
M  V30 BEGIN ATOM
M  V30 1 C -1.575422 1.055893 -1.574167 0
M  V30 2 C -1.649549 0.259629 -0.314605 0
M  V30 3 C -1.113374 0.808946 0.807943 0
M  V30 4 C -0.422010 2.067113 1.018036 0
M  V30 5 O -0.079822 3.035244 0.272715 0
M  V30 6 N 0.007484 2.374896 2.331741 0
M  V30 7 C 0.715780 3.604844 2.717025 0
M  V30 8 C 2.030250 3.767725 2.051068 0
M  V30 9 C 2.846278 4.963747 2.388166 0
M  V30 10 N 2.211554 6.205224 2.083515 0
M  V30 11 C 3.237382 7.294578 2.132288 0
M  V30 12 C 1.182066 6.585888 3.069411 0
M  V30 13 S -1.457938 -0.387078 2.092586 0
M  V30 14 C -2.302468 -1.540979 1.011795 0
M  V30 15 N -2.884174 -2.726967 1.281522 0
M  V30 16 C -3.488984 -3.448106 0.335248 0
M  V30 17 N -3.448745 -2.884206 -0.844680 0
M  V30 18 C -2.894942 -1.728901 -1.170821 0
M  V30 19 N -3.048399 -1.491095 -2.561709 0
M  V30 20 C -2.519467 -0.913570 -3.743758 0
M  V30 21 C -3.021726 0.107644 -4.522440 0
M  V30 22 C -2.339376 0.551131 -5.630542 0
M  V30 23 C -1.142670 -0.044308 -5.951135 0
M  V30 24 N -0.653726 -1.049146 -5.184591 0
M  V30 25 C -1.298808 -1.522948 -4.074005 0
M  V30 26 O -0.426532 -2.464942 -3.719731 0
M  V30 27 C -0.270972 -3.446730 -2.788020 0
M  V30 28 C 0.957937 -3.060172 -1.946519 0
M  V30 29 C 0.051865 -4.801548 -3.411893 0
M  V30 30 C 0.196227 -5.875818 -2.381315 0
M  V30 31 N 1.249143 -5.686627 -1.425637 0
M  V30 32 S 1.296531 -7.004632 -0.286820 0
M  V30 33 C -0.208476 -7.081205 0.612153 0
M  V30 34 O 1.568217 -8.280313 -1.045873 0
M  V30 35 O 2.437220 -6.822816 0.661214 0
M  V30 36 C -2.267427 -0.953568 -0.235017 0
M  V30 37 H -1.235186 2.115205 -1.387173 0
M  V30 38 H -2.589951 1.218865 -1.995721 0
M  V30 39 H -0.812180 0.640401 -2.228113 0
M  V30 40 H -0.188183 1.676469 3.110471 0
M  V30 41 H 0.015489 4.464693 2.504391 0
M  V30 42 H 0.874755 3.562896 3.801529 0
M  V30 43 H 1.956105 3.655324 0.918518 0
M  V30 44 H 2.695924 2.866965 2.308336 0
M  V30 45 H 3.862807 4.922272 1.899228 0
M  V30 46 H 3.117339 4.895293 3.490973 0
M  V30 47 H 2.937521 7.980356 1.329336 0
M  V30 48 H 4.239147 6.872992 1.970406 0
M  V30 49 H 3.147789 7.795432 3.109157 0
M  V30 50 H 0.250437 6.736529 2.509304 0
M  V30 51 H 1.489735 7.593001 3.493096 0
M  V30 52 H 1.117092 5.909790 3.916260 0
M  V30 53 H -3.896636 -4.359575 0.729172 0
M  V30 54 H -3.911790 -1.848918 -3.084328 0
M  V30 55 H -3.972585 0.422511 -4.082464 0
M  V30 56 H -2.876904 1.351698 -6.118169 0
M  V30 57 H -0.778461 0.459349 -6.853988 0
M  V30 58 H -1.126859 -3.653777 -2.116220 0
M  V30 59 H 1.901016 -3.379156 -2.377788 0
M  V30 60 H 0.993659 -1.948566 -1.830640 0
M  V30 61 H 0.792618 -3.448422 -0.925861 0
M  V30 62 H -0.643408 -5.059628 -4.212803 0
M  V30 63 H 1.069586 -4.708262 -3.894305 0
M  V30 64 H 0.437800 -6.837739 -2.934687 0
M  V30 65 H -0.777065 -6.064377 -1.837469 0
M  V30 66 H 2.199591 -5.666692 -1.883710 0
M  V30 67 H 0.002114 -6.892851 1.683171 0
M  V30 68 H -0.748568 -8.057185 0.471864 0
M  V30 69 H -0.938066 -6.297725 0.319194 0
M  V30 END ATOM
M  V30 BEGIN BOND
M  V30 1 1 1 2
M  V30 2 2 2 3
M  V30 3 1 3 4
M  V30 4 2 4 5
M  V30 5 1 4 6
M  V30 6 1 6 7
M  V30 7 1 7 8
M  V30 8 1 8 9
M  V30 9 1 9 10
M  V30 10 1 10 11
M  V30 11 1 10 12
M  V30 12 1 3 13
M  V30 13 1 13 14
M  V30 14 2 14 15
M  V30 15 1 15 16
M  V30 16 2 16 17
M  V30 17 1 17 18
M  V30 18 1 18 19
M  V30 19 1 19 20
M  V30 20 2 20 21
M  V30 21 1 21 22
M  V30 22 2 22 23
M  V30 23 1 23 24
M  V30 24 2 24 25
M  V30 25 1 25 26
M  V30 26 1 26 27
M  V30 27 1 27 28
M  V30 28 1 27 29
M  V30 29 1 29 30
M  V30 30 1 30 31
M  V30 31 1 31 32
M  V30 32 1 32 33
M  V30 33 2 32 34
M  V30 34 2 32 35
M  V30 35 2 18 36
M  V30 36 1 36 2
M  V30 37 1 36 14
M  V30 38 1 25 20
M  V30 39 1 1 37
M  V30 40 1 1 38
M  V30 41 1 1 39
M  V30 42 1 6 40
M  V30 43 1 7 41
M  V30 44 1 7 42
M  V30 45 1 8 43
M  V30 46 1 8 44
M  V30 47 1 9 45
M  V30 48 1 9 46
M  V30 49 1 11 47
M  V30 50 1 11 48
M  V30 51 1 11 49
M  V30 52 1 12 50
M  V30 53 1 12 51
M  V30 54 1 12 52
M  V30 55 1 16 53
M  V30 56 1 19 54
M  V30 57 1 21 55
M  V30 58 1 22 56
M  V30 59 1 23 57
M  V30 60 1 27 58
M  V30 61 1 28 59
M  V30 62 1 28 60
M  V30 63 1 28 61
M  V30 64 1 29 62
M  V30 65 1 29 63
M  V30 66 1 30 64
M  V30 67 1 30 65
M  V30 68 1 31 66
M  V30 69 1 33 67
M  V30 70 1 33 68
M  V30 71 1 33 69
M  V30 END BOND
M  V30 END CTAB
M  END
>  <Dataset>  (175) 
ChEMBL_Kinases

>  <Ligand_Instance>  (175) 
nan

>  <PDB_ID>  (175) 
nan

>  <Standardized_SMILES>  (175) 
Cc1c(C(=O)NCCCN(C)C)sc2ncnc(Nc3cccnc3OC(C)CCNS(C)(=O)=O)c12

>  <Name>  (175) 
nan

>  <Pocket>  (175) 
nan

>  <ATP_Site>  (175) 
nan

>  <Peripheral>  (175) 
nan

>  <Num_H_Atoms_ProtBoundConf>  (175) 
nan

>  <Num_Resolved_Atoms>  (175) 
nan

>  <Num_Not_Resolved_Atoms>  (175) 
nan

$$$$
CHEMBL5083393
     RDKit          3D

  0  0  0  0  0  0  0  0  0  0999 V3000
M  V30 BEGIN CTAB
M  V30 COUNTS 56 60 0 0 0
M  V30 BEGIN ATOM
M  V30 1 O 2.596441 -0.819884 1.886137 0
M  V30 2 C 2.693395 0.357923 1.395565 0
M  V30 3 N 3.673196 1.218014 1.930604 0
M  V30 4 C 4.351999 0.459085 2.978760 0
M  V30 5 C 5.427404 1.256067 3.638537 0
M  V30 6 C 6.477698 1.692197 2.702626 0
M  V30 7 C 7.523082 2.434564 3.211034 0
M  V30 8 C 8.371109 2.717290 2.136456 0
M  V30 9 N 7.837539 2.159923 1.043988 0
M  V30 10 N 6.724353 1.563031 1.404947 0
M  V30 11 C 1.720446 0.578042 0.330243 0
M  V30 12 C 0.397804 0.145685 0.490546 0
M  V30 13 C -0.578237 0.316891 -0.466148 0
M  V30 14 C -1.946590 -0.142959 -0.263947 0
M  V30 15 C -2.407173 -0.784771 0.865245 0
M  V30 16 C -3.715666 -1.203073 1.020422 0
M  V30 17 C -4.636959 -0.985275 0.015554 0
M  V30 18 N -5.982897 -1.406685 0.165944 0
M  V30 19 S -6.473732 -2.932086 0.754498 0
M  V30 20 O -7.929083 -3.011776 1.023629 0
M  V30 21 O -5.790576 -3.146911 2.100529 0
M  V30 22 C -5.914528 -4.265033 -0.258081 0
M  V30 23 C -5.163045 -4.128504 -1.400711 0
M  V30 24 C -4.772539 -5.231958 -2.123938 0
M  V30 25 C -5.121307 -6.502198 -1.726362 0
M  V30 26 C -5.871454 -6.637660 -0.585721 0
M  V30 27 Cl -6.298848 -8.269813 -0.108252 0
M  V30 28 C -6.275649 -5.528804 0.158773 0
M  V30 29 Cl -7.233546 -5.893196 1.594240 0
M  V30 30 C -4.223307 -0.336293 -1.156761 0
M  V30 31 C -2.891812 0.059183 -1.248281 0
M  V30 32 N -0.238043 0.933936 -1.616435 0
M  V30 33 C 1.017340 1.380284 -1.848037 0
M  V30 34 N 1.598205 2.010514 -2.884631 0
M  V30 35 N 2.881895 2.220497 -2.581329 0
M  V30 36 C 3.157165 1.733566 -1.349600 0
M  V30 37 C 1.977368 1.197530 -0.875813 0
M  V30 38 H 3.681368 2.151432 1.471970 0
M  V30 39 H 4.786428 -0.472789 2.564803 0
M  V30 40 H 3.618734 0.153075 3.763814 0
M  V30 41 H 5.921661 0.664545 4.429224 0
M  V30 42 H 4.995309 2.203347 4.070248 0
M  V30 43 H 7.827970 2.827005 4.175802 0
M  V30 44 H 9.308480 3.269278 2.061933 0
M  V30 45 H 8.078174 2.086651 0.027089 0
M  V30 46 H 0.190023 -0.340165 1.433387 0
M  V30 47 H -1.716320 -0.970779 1.666555 0
M  V30 48 H -3.975740 -1.700686 1.952713 0
M  V30 49 H -6.751616 -0.741192 -0.100046 0
M  V30 50 H -4.906667 -3.112819 -1.683852 0
M  V30 51 H -4.180853 -5.092806 -3.020863 0
M  V30 52 H -4.809416 -7.360356 -2.300935 0
M  V30 53 H -4.927426 -0.153409 -1.959697 0
M  V30 54 H -2.621219 0.560669 -2.182850 0
M  V30 55 H 1.044880 2.251305 -3.742415 0
M  V30 56 H 4.098290 1.764487 -0.858263 0
M  V30 END ATOM
M  V30 BEGIN BOND
M  V30 1 2 1 2
M  V30 2 1 2 3
M  V30 3 1 3 4
M  V30 4 1 4 5
M  V30 5 1 5 6
M  V30 6 1 6 7
M  V30 7 2 7 8
M  V30 8 1 8 9
M  V30 9 1 9 10
M  V30 10 1 2 11
M  V30 11 2 11 12
M  V30 12 1 12 13
M  V30 13 1 13 14
M  V30 14 2 14 15
M  V30 15 1 15 16
M  V30 16 2 16 17
M  V30 17 1 17 18
M  V30 18 1 18 19
M  V30 19 2 19 20
M  V30 20 2 19 21
M  V30 21 1 19 22
M  V30 22 2 22 23
M  V30 23 1 23 24
M  V30 24 2 24 25
M  V30 25 1 25 26
M  V30 26 1 26 27
M  V30 27 2 26 28
M  V30 28 1 28 29
M  V30 29 1 17 30
M  V30 30 2 30 31
M  V30 31 2 13 32
M  V30 32 1 32 33
M  V30 33 1 33 34
M  V30 34 1 34 35
M  V30 35 2 35 36
M  V30 36 1 36 37
M  V30 37 2 10 6
M  V30 38 1 37 11
M  V30 39 1 31 14
M  V30 40 2 37 33
M  V30 41 1 28 22
M  V30 42 1 3 38
M  V30 43 1 4 39
M  V30 44 1 4 40
M  V30 45 1 5 41
M  V30 46 1 5 42
M  V30 47 1 7 43
M  V30 48 1 8 44
M  V30 49 1 9 45
M  V30 50 1 12 46
M  V30 51 1 15 47
M  V30 52 1 16 48
M  V30 53 1 18 49
M  V30 54 1 23 50
M  V30 55 1 24 51
M  V30 56 1 25 52
M  V30 57 1 30 53
M  V30 58 1 31 54
M  V30 59 1 34 55
M  V30 60 1 36 56
M  V30 END BOND
M  V30 END CTAB
M  END
>  <Dataset>  (176) 
ChEMBL_Kinases

>  <Ligand_Instance>  (176) 
nan

>  <PDB_ID>  (176) 
nan

>  <Standardized_SMILES>  (176) 
O=C(NCCc1cc[nH]n1)c1cc(-c2ccc(NS(=O)(=O)c3cccc(Cl)c3Cl)cc2)nc2[nH]ncc12

>  <Name>  (176) 
nan

>  <Pocket>  (176) 
nan

>  <ATP_Site>  (176) 
nan

>  <Peripheral>  (176) 
nan

>  <Num_H_Atoms_ProtBoundConf>  (176) 
nan

>  <Num_Resolved_Atoms>  (176) 
nan

>  <Num_Not_Resolved_Atoms>  (176) 
nan

$$$$
CHEMBL5083394
     RDKit          3D

  0  0  0  0  0  0  0  0  0  0999 V3000
M  V30 BEGIN CTAB
M  V30 COUNTS 35 37 0 0 0
M  V30 BEGIN ATOM
M  V30 1 C -1.151717 -3.412801 0.546857 0
M  V30 2 C -0.313284 -2.620959 1.500946 0 CFG=1
M  V30 3 C 0.758314 -3.555621 2.030433 0
M  V30 4 C 1.875044 -3.433726 1.022658 0
M  V30 5 C 1.679433 -2.103523 0.391461 0
M  V30 6 N 0.415234 -1.546586 0.833916 0
M  V30 7 C 0.045919 -0.193468 0.610279 0
M  V30 8 C 0.845123 0.708234 -0.061089 0
M  V30 9 C 2.143028 0.548678 -0.665239 0
M  V30 10 N 3.181617 0.404881 -1.161134 0
M  V30 11 C 0.201459 1.940338 -0.108143 0
M  V30 12 C 0.504294 3.184003 -0.633342 0
M  V30 13 N 1.753257 3.345209 -1.307972 0
M  V30 14 N -0.395204 4.197107 -0.486531 0
M  V30 15 C -1.557299 4.004050 0.154064 0
M  V30 16 N -1.862518 2.795377 0.669961 0
M  V30 17 C -0.995223 1.752639 0.548182 0
M  V30 18 N -1.072696 0.459547 0.975140 0
M  V30 19 C -2.191713 -0.105131 1.707116 0
M  V30 20 H -1.089067 -3.076207 -0.511214 0
M  V30 21 H -2.219296 -3.408077 0.905890 0
M  V30 22 H -0.872438 -4.485852 0.516862 0
M  V30 23 H -0.879647 -2.267022 2.382184 0
M  V30 24 H 0.438869 -4.621923 1.997827 0
M  V30 25 H 1.059525 -3.339767 3.066781 0
M  V30 26 H 1.892549 -4.277578 0.305390 0
M  V30 27 H 2.822858 -3.495147 1.594933 0
M  V30 28 H 1.737732 -2.100840 -0.714922 0
M  V30 29 H 2.457805 -1.412932 0.832992 0
M  V30 30 H 2.367134 3.945754 -0.715479 0
M  V30 31 H 2.201383 3.034768 -2.202446 0
M  V30 32 H -2.265445 4.826942 0.262089 0
M  V30 33 H -2.605680 -1.019650 1.268331 0
M  V30 34 H -1.961982 -0.170255 2.796096 0
M  V30 35 H -3.053204 0.628084 1.676415 0
M  V30 END ATOM
M  V30 BEGIN BOND
M  V30 1 1 1 2
M  V30 2 1 2 3
M  V30 3 1 3 4
M  V30 4 1 4 5
M  V30 5 1 5 6
M  V30 6 1 6 7
M  V30 7 2 7 8
M  V30 8 1 8 9
M  V30 9 3 9 10
M  V30 10 1 8 11
M  V30 11 2 11 12
M  V30 12 1 12 13
M  V30 13 1 12 14
M  V30 14 2 14 15
M  V30 15 1 15 16
M  V30 16 2 16 17
M  V30 17 1 17 18
M  V30 18 1 18 19
M  V30 19 1 6 2
M  V30 20 1 18 7
M  V30 21 1 17 11
M  V30 22 1 1 20
M  V30 23 1 1 21
M  V30 24 1 1 22
M  V30 25 1 2 23 CFG=1
M  V30 26 1 3 24
M  V30 27 1 3 25
M  V30 28 1 4 26
M  V30 29 1 4 27
M  V30 30 1 5 28
M  V30 31 1 5 29
M  V30 32 1 13 30
M  V30 33 1 13 31
M  V30 34 1 15 32
M  V30 35 1 19 33
M  V30 36 1 19 34
M  V30 37 1 19 35
M  V30 END BOND
M  V30 END CTAB
M  END
>  <Dataset>  (177) 
ChEMBL_Kinases

>  <Ligand_Instance>  (177) 
nan

>  <PDB_ID>  (177) 
nan

>  <Standardized_SMILES>  (177) 
C[C@H]1CCCN1c1c(C#N)c2c(N)ncnc2n1C

>  <Name>  (177) 
nan

>  <Pocket>  (177) 
nan

>  <ATP_Site>  (177) 
nan

>  <Peripheral>  (177) 
nan

>  <Num_H_Atoms_ProtBoundConf>  (177) 
nan

>  <Num_Resolved_Atoms>  (177) 
nan

>  <Num_Not_Resolved_Atoms>  (177) 
nan

$$$$
CHEMBL3702303
     RDKit          3D

  0  0  0  0  0  0  0  0  0  0999 V3000
M  V30 BEGIN CTAB
M  V30 COUNTS 45 47 0 0 0
M  V30 BEGIN ATOM
M  V30 1 C 3.176101 -4.667004 4.497043 0
M  V30 2 O 2.921581 -3.441264 3.860886 0
M  V30 3 C 3.731773 -2.343310 3.840707 0
M  V30 4 O 4.817497 -2.451686 4.457988 0
M  V30 5 C 3.412040 -1.088888 3.160838 0
M  V30 6 S 4.552595 0.248313 3.230670 0
M  V30 7 C 3.516671 1.376639 2.229962 0
M  V30 8 N 3.726607 2.659904 1.836100 0
M  V30 9 C 2.809745 3.309777 1.099521 0
M  V30 10 N 1.734794 2.600500 0.813890 0
M  V30 11 C 1.503121 1.335146 1.188572 0
M  V30 12 N 0.250159 0.834359 0.748704 0
M  V30 13 C -0.083646 0.706525 -0.610438 0
M  V30 14 C 0.855740 1.102231 -1.535099 0
M  V30 15 C 0.614955 1.026243 -2.897423 0
M  V30 16 C -0.607975 0.536531 -3.305176 0
M  V30 17 C -0.971661 0.411920 -4.701818 0
M  V30 18 N -1.246177 0.316161 -5.817003 0
M  V30 19 C -1.519871 0.151086 -2.352535 0
M  V30 20 C -1.332808 0.205238 -0.997549 0
M  V30 21 O -2.157395 -0.146933 0.036451 0
M  V30 22 C -3.429366 -0.651904 -0.177757 0
M  V30 23 C -4.501634 0.150980 0.568129 0
M  V30 24 F -4.253196 0.118357 1.928170 0
M  V30 25 C -3.583850 -2.076806 0.351688 0
M  V30 26 F -2.686672 -2.884052 -0.288663 0
M  V30 27 C 2.419167 0.633811 1.944351 0
M  V30 28 C 2.369273 -0.633713 2.424417 0
M  V30 29 C 1.209566 -1.565905 2.162997 0
M  V30 30 H 3.544304 -4.477823 5.547991 0
M  V30 31 H 2.186496 -5.165864 4.662311 0
M  V30 32 H 3.799255 -5.359113 3.936226 0
M  V30 33 H 3.026857 4.317626 0.816817 0
M  V30 34 H -0.423393 0.564401 1.478736 0
M  V30 35 H 1.833376 1.494927 -1.291290 0
M  V30 36 H 1.284686 1.309902 -3.670753 0
M  V30 37 H -2.473682 -0.231256 -2.681526 0
M  V30 38 H -3.756337 -0.693175 -1.224234 0
M  V30 39 H -4.553419 1.170743 0.185948 0
M  V30 40 H -5.493276 -0.327667 0.439379 0
M  V30 41 H -3.463883 -2.126937 1.461138 0
M  V30 42 H -4.646189 -2.333426 0.146486 0
M  V30 43 H 0.841654 -1.433848 1.122323 0
M  V30 44 H 0.396056 -1.237830 2.836172 0
M  V30 45 H 1.479195 -2.615919 2.256798 0
M  V30 END ATOM
M  V30 BEGIN BOND
M  V30 1 1 1 2
M  V30 2 1 2 3
M  V30 3 2 3 4
M  V30 4 1 3 5
M  V30 5 1 5 6
M  V30 6 1 6 7
M  V30 7 2 7 8
M  V30 8 1 8 9
M  V30 9 2 9 10
M  V30 10 1 10 11
M  V30 11 1 11 12
M  V30 12 1 12 13
M  V30 13 2 13 14
M  V30 14 1 14 15
M  V30 15 2 15 16
M  V30 16 1 16 17
M  V30 17 3 17 18
M  V30 18 1 16 19
M  V30 19 2 19 20
M  V30 20 1 20 21
M  V30 21 1 21 22
M  V30 22 1 22 23
M  V30 23 1 23 24
M  V30 24 1 22 25
M  V30 25 1 25 26
M  V30 26 2 11 27
M  V30 27 1 27 28
M  V30 28 1 28 29
M  V30 29 2 28 5
M  V30 30 1 27 7
M  V30 31 1 20 13
M  V30 32 1 1 30
M  V30 33 1 1 31
M  V30 34 1 1 32
M  V30 35 1 9 33
M  V30 36 1 12 34
M  V30 37 1 14 35
M  V30 38 1 15 36
M  V30 39 1 19 37
M  V30 40 1 22 38
M  V30 41 1 23 39
M  V30 42 1 23 40
M  V30 43 1 25 41
M  V30 44 1 25 42
M  V30 45 1 29 43
M  V30 46 1 29 44
M  V30 47 1 29 45
M  V30 END BOND
M  V30 END CTAB
M  END
>  <Dataset>  (178) 
ChEMBL_Kinases

>  <Ligand_Instance>  (178) 
nan

>  <PDB_ID>  (178) 
nan

>  <Standardized_SMILES>  (178) 
COC(=O)c1sc2ncnc(Nc3ccc(C#N)cc3OC(CF)CF)c2c1C

>  <Name>  (178) 
nan

>  <Pocket>  (178) 
nan

>  <ATP_Site>  (178) 
nan

>  <Peripheral>  (178) 
nan

>  <Num_H_Atoms_ProtBoundConf>  (178) 
nan

>  <Num_Resolved_Atoms>  (178) 
nan

>  <Num_Not_Resolved_Atoms>  (178) 
nan

$$$$
CHEMBL5083474
     RDKit          3D

  0  0  0  0  0  0  0  0  0  0999 V3000
M  V30 BEGIN CTAB
M  V30 COUNTS 53 56 0 0 0
M  V30 BEGIN ATOM
M  V30 1 C 6.140800 1.992896 3.945106 0
M  V30 2 O 6.103170 1.186404 2.783388 0
M  V30 3 C 4.898744 0.882581 2.164289 0
M  V30 4 C 5.002835 0.079765 1.029899 0
M  V30 5 C 3.812326 -0.245302 0.382576 0
M  V30 6 C 3.903584 -1.102213 -0.830862 0
M  V30 7 N 3.730327 -0.356617 -2.059286 0
M  V30 8 C 2.581078 0.190998 0.819797 0
M  V30 9 C 2.505936 0.994259 1.959152 0
M  V30 10 C 3.676464 1.325695 2.612738 0
M  V30 11 C 1.082354 1.278239 2.148015 0
M  V30 12 O 0.729168 1.982136 3.102020 0
M  V30 13 N 0.320104 0.649892 1.131295 0
M  V30 14 C -1.091994 0.694979 0.978849 0
M  V30 15 C -1.931890 1.377892 1.823794 0
M  V30 16 C -3.309754 1.425055 1.680311 0
M  V30 17 C -3.847165 0.731431 0.609475 0
M  V30 18 C -3.004745 0.032671 -0.257701 0
M  V30 19 C -3.723042 -0.624178 -1.316689 0
M  V30 20 N -4.079744 0.034634 -2.440082 0
M  V30 21 N -4.720117 -0.875210 -3.171963 0
M  V30 22 C -4.748364 -2.031877 -2.518728 0
M  V30 23 N -4.120751 -1.898844 -1.336260 0
M  V30 24 C -4.008487 -2.991349 -0.436306 0 CFG=1
M  V30 25 C -3.685040 -4.242419 -1.253122 0
M  V30 26 C -3.068211 -2.821757 0.707931 0
M  V30 27 C -3.069134 -4.068119 1.571740 0
M  V30 28 F -4.315417 -4.336218 2.084711 0
M  V30 29 F -2.262255 -3.792047 2.685996 0
M  V30 30 F -2.467152 -5.150302 0.967870 0
M  V30 31 N -1.680108 0.051622 -0.028142 0
M  V30 32 C 1.234470 -0.058525 0.256853 0
M  V30 33 H 5.316614 1.668091 4.632146 0
M  V30 34 H 5.921676 3.061125 3.689353 0
M  V30 35 H 7.082764 1.894445 4.495680 0
M  V30 36 H 5.935729 -0.299720 0.628430 0
M  V30 37 H 4.865497 -1.646128 -0.886386 0
M  V30 38 H 3.125499 -1.915213 -0.744695 0
M  V30 39 H 4.671222 -0.160795 -2.447659 0
M  V30 40 H 3.245983 0.557092 -1.898672 0
M  V30 41 H 3.629674 1.941147 3.487663 0
M  V30 42 H -1.540539 1.920913 2.657868 0
M  V30 43 H -3.939258 1.984074 2.380707 0
M  V30 44 H -4.932359 0.779530 0.512416 0
M  V30 45 H -5.261491 -2.801880 -3.074596 0
M  V30 46 H -5.030781 -3.150531 0.013659 0
M  V30 47 H -3.911033 -4.097186 -2.327652 0
M  V30 48 H -4.237050 -5.115858 -0.890533 0
M  V30 49 H -2.603580 -4.482090 -1.213008 0
M  V30 50 H -2.008626 -2.666926 0.377141 0
M  V30 51 H -3.444989 -2.014299 1.363540 0
M  V30 52 H 1.120026 0.366565 -0.768191 0
M  V30 53 H 0.993097 -1.152507 0.283729 0
M  V30 END ATOM
M  V30 BEGIN BOND
M  V30 1 1 1 2
M  V30 2 1 2 3
M  V30 3 2 3 4
M  V30 4 1 4 5
M  V30 5 1 5 6
M  V30 6 1 6 7
M  V30 7 2 5 8
M  V30 8 1 8 9
M  V30 9 2 9 10
M  V30 10 1 9 11
M  V30 11 2 11 12
M  V30 12 1 11 13
M  V30 13 1 13 14
M  V30 14 2 14 15
M  V30 15 1 15 16
M  V30 16 2 16 17
M  V30 17 1 17 18
M  V30 18 1 18 19
M  V30 19 2 19 20
M  V30 20 1 20 21
M  V30 21 2 21 22
M  V30 22 1 22 23
M  V30 23 1 23 24
M  V30 24 1 24 25
M  V30 25 1 24 26
M  V30 26 1 26 27
M  V30 27 1 27 28
M  V30 28 1 27 29
M  V30 29 1 27 30
M  V30 30 2 18 31
M  V30 31 1 13 32
M  V30 32 1 10 3
M  V30 33 1 31 14
M  V30 34 1 32 8
M  V30 35 1 23 19
M  V30 36 1 1 33
M  V30 37 1 1 34
M  V30 38 1 1 35
M  V30 39 1 4 36
M  V30 40 1 6 37
M  V30 41 1 6 38
M  V30 42 1 7 39
M  V30 43 1 7 40
M  V30 44 1 10 41
M  V30 45 1 15 42
M  V30 46 1 16 43
M  V30 47 1 17 44
M  V30 48 1 22 45
M  V30 49 1 24 46 CFG=1
M  V30 50 1 25 47
M  V30 51 1 25 48
M  V30 52 1 25 49
M  V30 53 1 26 50
M  V30 54 1 26 51
M  V30 55 1 32 52
M  V30 56 1 32 53
M  V30 END BOND
M  V30 END CTAB
M  END
>  <Dataset>  (179) 
ChEMBL_Kinases

>  <Ligand_Instance>  (179) 
nan

>  <PDB_ID>  (179) 
nan

>  <Standardized_SMILES>  (179) 
COc1cc(CN)c2c(c1)C(=O)N(c1cccc(-c3nncn3[C@@H](C)CC(F)(F)F)n1)C2

>  <Name>  (179) 
nan

>  <Pocket>  (179) 
nan

>  <ATP_Site>  (179) 
nan

>  <Peripheral>  (179) 
nan

>  <Num_H_Atoms_ProtBoundConf>  (179) 
nan

>  <Num_Resolved_Atoms>  (179) 
nan

>  <Num_Not_Resolved_Atoms>  (179) 
nan

$$$$
CHEMBL5083477
     RDKit          3D

  0  0  0  0  0  0  0  0  0  0999 V3000
M  V30 BEGIN CTAB
M  V30 COUNTS 57 61 0 0 0
M  V30 BEGIN ATOM
M  V30 1 C 4.700922 -4.968929 0.346645 0
M  V30 2 C 4.544795 -3.821232 1.271124 0
M  V30 3 N 5.332958 -3.471897 2.279860 0
M  V30 4 N 4.865234 -2.372166 2.891091 0
M  V30 5 C 3.744136 -2.041503 2.222181 0
M  V30 6 N 2.880850 -1.038966 2.400390 0
M  V30 7 C 1.811829 -0.897822 1.602095 0
M  V30 8 C 0.900143 0.231809 1.860620 0
M  V30 9 C 1.138936 1.098141 2.902395 0
M  V30 10 C 0.221986 2.113980 3.055315 0
M  V30 11 C -0.916079 2.346546 2.261718 0
M  V30 12 N -1.693279 3.467968 2.640825 0
M  V30 13 S -3.368891 3.718329 2.748516 0
M  V30 14 O -3.960812 2.669304 3.701165 0
M  V30 15 O -3.671492 5.036086 3.387138 0
M  V30 16 C -4.263822 3.604584 1.290432 0
M  V30 17 C -3.933679 3.479930 -0.023020 0
M  V30 18 C -4.828819 3.432194 -1.067621 0
M  V30 19 Cl -4.147928 3.267488 -2.661175 0
M  V30 20 C -6.183358 3.514946 -0.809332 0
M  V30 21 C -6.574342 3.643442 0.505695 0
M  V30 22 C -5.646367 3.686807 1.520419 0
M  V30 23 F -6.249104 3.817307 2.749962 0
M  V30 24 C -1.040510 1.416335 1.261160 0
M  V30 25 C -0.185547 0.374456 1.027755 0
M  V30 26 N 1.581306 -1.763598 0.600234 0
M  V30 27 C 2.393172 -2.783658 0.361120 0
M  V30 28 O 2.125925 -3.567057 -0.595703 0
M  V30 29 C 1.848469 -4.384831 -1.593226 0
M  V30 30 C 0.608719 -5.244531 -1.364843 0
M  V30 31 C -0.657737 -4.443724 -1.481708 0
M  V30 32 C -0.394046 -3.138815 -2.178191 0
M  V30 33 O -0.881558 -2.076645 -1.804500 0
M  V30 34 C 0.506183 -3.186635 -3.371624 0
M  V30 35 C 1.816788 -3.766712 -2.983017 0
M  V30 36 C 3.504255 -2.929187 1.191849 0
M  V30 37 H 3.818676 -5.637247 0.365398 0
M  V30 38 H 4.827261 -4.625460 -0.707091 0
M  V30 39 H 5.562304 -5.610352 0.620256 0
M  V30 40 H 5.331271 -1.922243 3.713243 0
M  V30 41 H 1.979664 0.976632 3.536973 0
M  V30 42 H 0.445888 2.779333 3.891463 0
M  V30 43 H -1.102770 4.317507 2.900492 0
M  V30 44 H -2.875107 3.440764 -0.173889 0
M  V30 45 H -6.804783 3.468936 -1.685776 0
M  V30 46 H -7.644645 3.702544 0.631457 0
M  V30 47 H -1.898346 1.534816 0.628281 0
M  V30 48 H -0.389653 -0.280394 0.218867 0
M  V30 49 H 2.675709 -5.164024 -1.684418 0
M  V30 50 H 0.657619 -6.119832 -2.031145 0
M  V30 51 H 0.678590 -5.611105 -0.319998 0
M  V30 52 H -1.328449 -5.022924 -2.151317 0
M  V30 53 H -1.177170 -4.306951 -0.535922 0
M  V30 54 H 0.680162 -2.131366 -3.714331 0
M  V30 55 H -0.002365 -3.776534 -4.183035 0
M  V30 56 H 2.625355 -3.008737 -3.012052 0
M  V30 57 H 2.073567 -4.538861 -3.762111 0
M  V30 END ATOM
M  V30 BEGIN BOND
M  V30 1 1 1 2
M  V30 2 2 2 3
M  V30 3 1 3 4
M  V30 4 1 4 5
M  V30 5 2 5 6
M  V30 6 1 6 7
M  V30 7 1 7 8
M  V30 8 2 8 9
M  V30 9 1 9 10
M  V30 10 2 10 11
M  V30 11 1 11 12
M  V30 12 1 12 13
M  V30 13 2 13 14
M  V30 14 2 13 15
M  V30 15 1 13 16
M  V30 16 2 16 17
M  V30 17 1 17 18
M  V30 18 1 18 19
M  V30 19 2 18 20
M  V30 20 1 20 21
M  V30 21 2 21 22
M  V30 22 1 22 23
M  V30 23 1 11 24
M  V30 24 2 24 25
M  V30 25 2 7 26
M  V30 26 1 26 27
M  V30 27 1 27 28
M  V30 28 1 28 29
M  V30 29 1 29 30
M  V30 30 1 30 31
M  V30 31 1 31 32
M  V30 32 2 32 33
M  V30 33 1 32 34
M  V30 34 1 34 35
M  V30 35 2 27 36
M  V30 36 1 36 2
M  V30 37 1 36 5
M  V30 38 1 25 8
M  V30 39 1 35 29
M  V30 40 1 22 16
M  V30 41 1 1 37
M  V30 42 1 1 38
M  V30 43 1 1 39
M  V30 44 1 4 40
M  V30 45 1 9 41
M  V30 46 1 10 42
M  V30 47 1 12 43
M  V30 48 1 17 44
M  V30 49 1 20 45
M  V30 50 1 21 46
M  V30 51 1 24 47
M  V30 52 1 25 48
M  V30 53 1 29 49
M  V30 54 1 30 50
M  V30 55 1 30 51
M  V30 56 1 31 52
M  V30 57 1 31 53
M  V30 58 1 34 54
M  V30 59 1 34 55
M  V30 60 1 35 56
M  V30 61 1 35 57
M  V30 END BOND
M  V30 END CTAB
M  END
>  <Dataset>  (180) 
ChEMBL_Kinases

>  <Ligand_Instance>  (180) 
nan

>  <PDB_ID>  (180) 
nan

>  <Standardized_SMILES>  (180) 
Cc1n[nH]c2nc(-c3ccc(NS(=O)(=O)c4cc(Cl)ccc4F)cc3)nc(OC3CCC(=O)CC3)c12

>  <Name>  (180) 
nan

>  <Pocket>  (180) 
nan

>  <ATP_Site>  (180) 
nan

>  <Peripheral>  (180) 
nan

>  <Num_H_Atoms_ProtBoundConf>  (180) 
nan

>  <Num_Resolved_Atoms>  (180) 
nan

>  <Num_Not_Resolved_Atoms>  (180) 
nan

$$$$
CHEMBL5083481
     RDKit          3D

  0  0  0  0  0  0  0  0  0  0999 V3000
M  V30 BEGIN CTAB
M  V30 COUNTS 30 31 0 0 0
M  V30 BEGIN ATOM
M  V30 1 C -1.088073 -4.295824 2.115025 0
M  V30 2 C -0.342838 -3.409933 2.731500 0
M  V30 3 C 0.185263 -2.099013 2.555101 0
M  V30 4 O 0.743908 -2.174340 3.667128 0
M  V30 5 N 0.029434 -1.209598 1.472022 0
M  V30 6 C -0.711281 -1.566582 0.316083 0
M  V30 7 O -1.806204 -2.165717 0.616381 0
M  V30 8 C -0.417185 -1.358844 -1.092342 0
M  V30 9 C 0.033986 -0.047082 -1.565961 0
M  V30 10 C 0.073105 -0.020397 -3.080714 0
M  V30 11 S 1.627397 0.549352 -0.972714 0
M  V30 12 C 1.427499 0.848407 0.807180 0
M  V30 13 C 2.038492 2.005975 1.224208 0
M  V30 14 C 1.932427 2.349405 2.575109 0
M  V30 15 C 1.245561 1.586042 3.510312 0
M  V30 16 C 0.654687 0.441005 3.039478 0
M  V30 17 C 0.718208 0.031468 1.704407 0
M  V30 18 H -1.718664 -4.796919 1.370175 0
M  V30 19 H -1.705369 -4.758404 1.360516 0
M  V30 20 H -0.459266 -4.298514 3.310855 0
M  V30 21 H 0.302252 -2.147066 -1.468316 0
M  V30 22 H -1.360456 -1.624039 -1.658900 0
M  V30 23 H -0.718772 0.748615 -1.289071 0
M  V30 24 H -0.773102 -0.658677 -3.448537 0
M  V30 25 H 0.988518 -0.569961 -3.447445 0
M  V30 26 H 0.018708 0.996456 -3.492254 0
M  V30 27 H 2.578540 2.621940 0.528232 0
M  V30 28 H 2.414278 3.267763 2.920283 0
M  V30 29 H 1.191066 1.893492 4.545563 0
M  V30 30 H 0.100753 -0.156154 3.729602 0
M  V30 END ATOM
M  V30 BEGIN BOND
M  V30 1 2 1 2
M  V30 2 1 2 3
M  V30 3 2 3 4
M  V30 4 1 3 5
M  V30 5 1 5 6
M  V30 6 2 6 7
M  V30 7 1 6 8
M  V30 8 1 8 9
M  V30 9 1 9 10
M  V30 10 1 9 11
M  V30 11 1 11 12
M  V30 12 2 12 13
M  V30 13 1 13 14
M  V30 14 2 14 15
M  V30 15 1 15 16
M  V30 16 2 16 17
M  V30 17 1 17 5
M  V30 18 1 17 12
M  V30 19 1 1 18
M  V30 20 1 1 19
M  V30 21 1 2 20
M  V30 22 1 8 21
M  V30 23 1 8 22
M  V30 24 1 9 23
M  V30 25 1 10 24
M  V30 26 1 10 25
M  V30 27 1 10 26
M  V30 28 1 13 27
M  V30 29 1 14 28
M  V30 30 1 15 29
M  V30 31 1 16 30
M  V30 END BOND
M  V30 END CTAB
M  END
>  <Dataset>  (181) 
ChEMBL_Kinases

>  <Ligand_Instance>  (181) 
nan

>  <PDB_ID>  (181) 
nan

>  <Standardized_SMILES>  (181) 
C=CC(=O)N1C(=O)CC(C)Sc2ccccc21

>  <Name>  (181) 
nan

>  <Pocket>  (181) 
nan

>  <ATP_Site>  (181) 
nan

>  <Peripheral>  (181) 
nan

>  <Num_H_Atoms_ProtBoundConf>  (181) 
nan

>  <Num_Resolved_Atoms>  (181) 
nan

>  <Num_Not_Resolved_Atoms>  (181) 
nan

$$$$
CHEMBL3702304
     RDKit          3D

  0  0  0  0  0  0  0  0  0  0999 V3000
M  V30 BEGIN CTAB
M  V30 COUNTS 64 67 0 0 0
M  V30 BEGIN ATOM
M  V30 1 C -0.183856 -0.098834 1.831930 0
M  V30 2 C 0.041572 1.274145 1.319838 0
M  V30 3 C 1.297390 1.486456 0.899102 0
M  V30 4 C 2.593018 0.880802 0.734415 0
M  V30 5 O 3.565569 1.556419 0.246406 0
M  V30 6 N 3.065830 -0.419482 1.022342 0
M  V30 7 C 4.379324 -0.959562 0.828217 0
M  V30 8 C 4.813153 -0.951491 -0.645278 0
M  V30 9 C 3.867095 -1.765025 -1.481955 0
M  V30 10 N 4.203052 -1.818661 -2.888299 0
M  V30 11 C 3.199133 -2.537585 -3.649271 0
M  V30 12 C 3.720618 -3.891863 -3.978674 0
M  V30 13 C 5.191729 -3.828978 -3.738860 0
M  V30 14 C 5.452156 -2.482220 -3.108513 0
M  V30 15 S 1.284641 3.201681 0.349456 0
M  V30 16 C -0.442949 3.517321 0.732152 0
M  V30 17 N -1.257019 4.589510 0.618277 0
M  V30 18 C -2.542465 4.541446 0.998322 0
M  V30 19 N -2.942669 3.366197 1.489060 0
M  V30 20 C -2.189396 2.278562 1.624482 0
M  V30 21 N -2.925097 1.210104 2.160319 0
M  V30 22 C -3.696964 0.507029 1.201906 0
M  V30 23 C -3.676606 0.917036 -0.101330 0
M  V30 24 C -4.453666 0.186888 -0.988407 0
M  V30 25 C -5.195620 -0.886292 -0.558262 0
M  V30 26 C -5.960573 -1.562012 -1.567161 0
M  V30 27 N -6.575589 -2.100841 -2.381833 0
M  V30 28 C -5.166895 -1.248491 0.794662 0
M  V30 29 C -4.393854 -0.540998 1.740025 0
M  V30 30 O -4.590694 -1.134723 2.898283 0
M  V30 31 C -4.223016 -1.044585 4.198572 0
M  V30 32 C -5.455739 -1.027061 5.116716 0
M  V30 33 F -5.044549 -0.935095 6.411397 0
M  V30 34 C -3.393231 -2.297669 4.587480 0
M  V30 35 F -2.289043 -2.302950 3.757995 0
M  V30 36 C -0.866434 2.295434 1.244799 0
M  V30 37 H -1.168561 -0.308687 2.235147 0
M  V30 38 H 0.054185 -0.866878 1.039095 0
M  V30 39 H 0.527345 -0.331540 2.679005 0
M  V30 40 H 2.349310 -1.053801 1.427836 0
M  V30 41 H 5.128847 -0.377762 1.406901 0
M  V30 42 H 4.389233 -2.020756 1.114671 0
M  V30 43 H 4.764314 0.082969 -1.032183 0
M  V30 44 H 5.844963 -1.360988 -0.684624 0
M  V30 45 H 2.826407 -1.345138 -1.382928 0
M  V30 46 H 3.818628 -2.840911 -1.136867 0
M  V30 47 H 2.224301 -2.562134 -3.127077 0
M  V30 48 H 3.020609 -1.935438 -4.575628 0
M  V30 49 H 3.197961 -4.721188 -3.431044 0
M  V30 50 H 3.516283 -4.087463 -5.072336 0
M  V30 51 H 5.491128 -4.682118 -3.070722 0
M  V30 52 H 5.771159 -3.888873 -4.694758 0
M  V30 53 H 5.989831 -2.680863 -2.162255 0
M  V30 54 H 6.077046 -1.852130 -3.776779 0
M  V30 55 H -3.119460 5.441136 0.873141 0
M  V30 56 H -2.600989 1.354579 3.117454 0
M  V30 57 H -3.114794 1.739449 -0.459406 0
M  V30 58 H -4.443452 0.498913 -2.012739 0
M  V30 59 H -5.823796 -2.126702 0.931409 0
M  V30 60 H -3.564113 -0.202836 4.421486 0
M  V30 61 H -6.043833 -0.138372 4.853299 0
M  V30 62 H -6.011197 -1.955237 4.863413 0
M  V30 63 H -3.089808 -2.134665 5.642084 0
M  V30 64 H -4.009434 -3.202558 4.429807 0
M  V30 END ATOM
M  V30 BEGIN BOND
M  V30 1 1 1 2
M  V30 2 2 2 3
M  V30 3 1 3 4
M  V30 4 2 4 5
M  V30 5 1 4 6
M  V30 6 1 6 7
M  V30 7 1 7 8
M  V30 8 1 8 9
M  V30 9 1 9 10
M  V30 10 1 10 11
M  V30 11 1 11 12
M  V30 12 1 12 13
M  V30 13 1 13 14
M  V30 14 1 3 15
M  V30 15 1 15 16
M  V30 16 2 16 17
M  V30 17 1 17 18
M  V30 18 2 18 19
M  V30 19 1 19 20
M  V30 20 1 20 21
M  V30 21 1 21 22
M  V30 22 2 22 23
M  V30 23 1 23 24
M  V30 24 2 24 25
M  V30 25 1 25 26
M  V30 26 3 26 27
M  V30 27 1 25 28
M  V30 28 2 28 29
M  V30 29 1 29 30
M  V30 30 1 30 31
M  V30 31 1 31 32
M  V30 32 1 32 33
M  V30 33 1 31 34
M  V30 34 1 34 35
M  V30 35 2 20 36
M  V30 36 1 36 2
M  V30 37 1 14 10
M  V30 38 1 36 16
M  V30 39 1 29 22
M  V30 40 1 1 37
M  V30 41 1 1 38
M  V30 42 1 1 39
M  V30 43 1 6 40
M  V30 44 1 7 41
M  V30 45 1 7 42
M  V30 46 1 8 43
M  V30 47 1 8 44
M  V30 48 1 9 45
M  V30 49 1 9 46
M  V30 50 1 11 47
M  V30 51 1 11 48
M  V30 52 1 12 49
M  V30 53 1 12 50
M  V30 54 1 13 51
M  V30 55 1 13 52
M  V30 56 1 14 53
M  V30 57 1 14 54
M  V30 58 1 18 55
M  V30 59 1 21 56
M  V30 60 1 23 57
M  V30 61 1 24 58
M  V30 62 1 28 59
M  V30 63 1 31 60
M  V30 64 1 32 61
M  V30 65 1 32 62
M  V30 66 1 34 63
M  V30 67 1 34 64
M  V30 END BOND
M  V30 END CTAB
M  END
>  <Dataset>  (182) 
ChEMBL_Kinases

>  <Ligand_Instance>  (182) 
nan

>  <PDB_ID>  (182) 
nan

>  <Standardized_SMILES>  (182) 
Cc1c(C(=O)NCCCN2CCCC2)sc2ncnc(Nc3ccc(C#N)cc3OC(CF)CF)c12

>  <Name>  (182) 
nan

>  <Pocket>  (182) 
nan

>  <ATP_Site>  (182) 
nan

>  <Peripheral>  (182) 
nan

>  <Num_H_Atoms_ProtBoundConf>  (182) 
nan

>  <Num_Resolved_Atoms>  (182) 
nan

>  <Num_Not_Resolved_Atoms>  (182) 
nan

$$$$
CHEMBL5083489
     RDKit          3D

  0  0  0  0  0  0  0  0  0  0999 V3000
M  V30 BEGIN CTAB
M  V30 COUNTS 31 33 0 0 0
M  V30 BEGIN ATOM
M  V30 1 C -2.432257 -3.502573 2.479101 0
M  V30 2 N -1.009116 -3.436297 2.748694 0
M  V30 3 C -0.349563 -4.242730 3.596224 0
M  V30 4 N 0.953390 -3.838516 3.551697 0
M  V30 5 C 1.073596 -2.812763 2.697256 0
M  V30 6 C 2.229580 -2.109562 2.360026 0
M  V30 7 C 2.094503 -1.084983 1.445574 0
M  V30 8 C 0.855922 -0.763938 0.880788 0
M  V30 9 C 0.692458 0.317691 -0.086386 0
M  V30 10 C -0.226448 0.346357 -1.113560 0
M  V30 11 C -0.370382 1.371344 -2.014259 0
M  V30 12 N -1.371555 1.233514 -3.012039 0
M  V30 13 N 0.483960 2.404662 -1.827538 0
M  V30 14 C 1.394430 2.421207 -0.842389 0
M  V30 15 N 2.158356 3.625896 -0.876311 0
M  V30 16 C 1.545156 1.387476 0.071967 0
M  V30 17 C -0.269766 -1.501581 1.254913 0
M  V30 18 C -0.179476 -2.528462 2.160841 0
M  V30 19 H -2.610542 -3.752418 1.413583 0
M  V30 20 H -2.945685 -4.212946 3.160463 0
M  V30 21 H -2.935513 -2.503818 2.612894 0
M  V30 22 H -0.836977 -5.039934 4.168925 0
M  V30 23 H 3.193716 -2.355467 2.796179 0
M  V30 24 H 2.953556 -0.479435 1.123021 0
M  V30 25 H -0.879374 -0.538118 -1.187245 0
M  V30 26 H -2.378020 1.174940 -2.769965 0
M  V30 27 H -1.310630 1.172703 -4.029231 0
M  V30 28 H 3.007878 4.159002 -1.164059 0
M  V30 29 H 1.546178 4.310136 -0.337589 0
M  V30 30 H 2.324975 1.546950 0.807170 0
M  V30 31 H -1.247715 -1.292649 0.846718 0
M  V30 END ATOM
M  V30 BEGIN BOND
M  V30 1 1 1 2
M  V30 2 1 2 3
M  V30 3 2 3 4
M  V30 4 1 4 5
M  V30 5 2 5 6
M  V30 6 1 6 7
M  V30 7 2 7 8
M  V30 8 1 8 9
M  V30 9 2 9 10
M  V30 10 1 10 11
M  V30 11 1 11 12
M  V30 12 2 11 13
M  V30 13 1 13 14
M  V30 14 1 14 15
M  V30 15 2 14 16
M  V30 16 1 8 17
M  V30 17 2 17 18
M  V30 18 1 18 2
M  V30 19 1 18 5
M  V30 20 1 16 9
M  V30 21 1 1 19
M  V30 22 1 1 20
M  V30 23 1 1 21
M  V30 24 1 3 22
M  V30 25 1 6 23
M  V30 26 1 7 24
M  V30 27 1 10 25
M  V30 28 1 12 26
M  V30 29 1 12 27
M  V30 30 1 15 28
M  V30 31 1 15 29
M  V30 32 1 16 30
M  V30 33 1 17 31
M  V30 END BOND
M  V30 END CTAB
M  END
>  <Dataset>  (183) 
ChEMBL_Kinases

>  <Ligand_Instance>  (183) 
nan

>  <PDB_ID>  (183) 
nan

>  <Standardized_SMILES>  (183) 
Cn1cnc2ccc(-c3cc(N)nc(N)c3)cc21

>  <Name>  (183) 
nan

>  <Pocket>  (183) 
nan

>  <ATP_Site>  (183) 
nan

>  <Peripheral>  (183) 
nan

>  <Num_H_Atoms_ProtBoundConf>  (183) 
nan

>  <Num_Resolved_Atoms>  (183) 
nan

>  <Num_Not_Resolved_Atoms>  (183) 
nan

$$$$
CHEMBL5083496
     RDKit          3D

  0  0  0  0  0  0  0  0  0  0999 V3000
M  V30 BEGIN CTAB
M  V30 COUNTS 46 49 0 0 0
M  V30 BEGIN ATOM
M  V30 1 N 3.741356 -5.479176 -3.218881 0
M  V30 2 C 2.369202 -5.597337 -3.554343 0
M  V30 3 O 1.984399 -6.457630 -4.385179 0
M  V30 4 C 1.422021 -4.695322 -2.910069 0
M  V30 5 C 0.081294 -4.767022 -3.216134 0
M  V30 6 C -0.862166 -3.933442 -2.632283 0
M  V30 7 C -0.464149 -2.989306 -1.707094 0
M  V30 8 C 0.888920 -2.931838 -1.411660 0
M  V30 9 C 1.836126 -3.757392 -1.987592 0
M  V30 10 C 1.502912 -1.988891 -0.448420 0
M  V30 11 O 2.734136 -2.167290 -0.173476 0
M  V30 12 C 0.872946 -0.857706 0.243472 0
M  V30 13 C 1.694216 -0.363101 1.234571 0
M  V30 14 C 1.208573 0.704220 1.955843 0
M  V30 15 C -0.010214 1.320479 1.784131 0
M  V30 16 N -0.538825 2.394003 2.529251 0
M  V30 17 C -0.457184 2.767934 3.888370 0
M  V30 18 C 0.177545 2.093565 4.899622 0
M  V30 19 C 0.250713 2.490481 6.205519 0
M  V30 20 C -0.362731 3.672649 6.560027 0
M  V30 21 C -1.011381 4.385046 5.587473 0
M  V30 22 C -1.056360 3.942668 4.286303 0
M  V30 23 N -1.768331 4.778043 3.353046 0
M  V30 24 C -0.761091 0.741984 0.755852 0
M  V30 25 C -0.371517 -0.323778 -0.024630 0
M  V30 26 C -1.333047 -0.740990 -1.029703 0
M  V30 27 C -1.570530 -2.193795 -1.187176 0
M  V30 28 H 3.678177 -6.179500 -2.437371 0
M  V30 29 H 4.735584 -5.299667 -3.083512 0
M  V30 30 H -0.158752 -5.519305 -3.940020 0
M  V30 31 H -1.903071 -4.049684 -2.925069 0
M  V30 32 H 2.880930 -3.660294 -1.711775 0
M  V30 33 H 2.654491 -0.791284 1.425683 0
M  V30 34 H 1.878428 1.077991 2.713025 0
M  V30 35 H -1.107382 3.030958 1.893567 0
M  V30 36 H 0.658778 1.164735 4.676192 0
M  V30 37 H 0.763774 1.919440 6.955759 0
M  V30 38 H -0.316927 4.006684 7.591864 0
M  V30 39 H -1.495337 5.316963 5.866211 0
M  V30 40 H -2.628571 4.544883 2.782683 0
M  V30 41 H -1.607642 5.774021 3.032565 0
M  V30 42 H -1.755452 1.135487 0.509528 0
M  V30 43 H -2.311458 -0.247091 -0.857438 0
M  V30 44 H -0.978231 -0.354164 -2.025395 0
M  V30 45 H -1.824456 -2.598969 -0.177054 0
M  V30 46 H -2.471417 -2.364729 -1.798383 0
M  V30 END ATOM
M  V30 BEGIN BOND
M  V30 1 1 1 2
M  V30 2 2 2 3
M  V30 3 1 2 4
M  V30 4 2 4 5
M  V30 5 1 5 6
M  V30 6 2 6 7
M  V30 7 1 7 8
M  V30 8 2 8 9
M  V30 9 1 8 10
M  V30 10 2 10 11
M  V30 11 1 10 12
M  V30 12 2 12 13
M  V30 13 1 13 14
M  V30 14 2 14 15
M  V30 15 1 15 16
M  V30 16 1 16 17
M  V30 17 2 17 18
M  V30 18 1 18 19
M  V30 19 2 19 20
M  V30 20 1 20 21
M  V30 21 2 21 22
M  V30 22 1 22 23
M  V30 23 1 15 24
M  V30 24 2 24 25
M  V30 25 1 25 26
M  V30 26 1 26 27
M  V30 27 1 9 4
M  V30 28 1 25 12
M  V30 29 1 27 7
M  V30 30 1 22 17
M  V30 31 1 1 28
M  V30 32 1 1 29
M  V30 33 1 5 30
M  V30 34 1 6 31
M  V30 35 1 9 32
M  V30 36 1 13 33
M  V30 37 1 14 34
M  V30 38 1 16 35
M  V30 39 1 18 36
M  V30 40 1 19 37
M  V30 41 1 20 38
M  V30 42 1 21 39
M  V30 43 1 23 40
M  V30 44 1 23 41
M  V30 45 1 24 42
M  V30 46 1 26 43
M  V30 47 1 26 44
M  V30 48 1 27 45
M  V30 49 1 27 46
M  V30 END BOND
M  V30 END CTAB
M  END
>  <Dataset>  (184) 
ChEMBL_Kinases

>  <Ligand_Instance>  (184) 
nan

>  <PDB_ID>  (184) 
nan

>  <Standardized_SMILES>  (184) 
NC(=O)c1ccc2c(c1)C(=O)c1ccc(Nc3ccccc3N)cc1CC2

>  <Name>  (184) 
nan

>  <Pocket>  (184) 
nan

>  <ATP_Site>  (184) 
nan

>  <Peripheral>  (184) 
nan

>  <Num_H_Atoms_ProtBoundConf>  (184) 
nan

>  <Num_Resolved_Atoms>  (184) 
nan

>  <Num_Not_Resolved_Atoms>  (184) 
nan

$$$$
CHEMBL5083321
     RDKit          3D

  0  0  0  0  0  0  0  0  0  0999 V3000
M  V30 BEGIN CTAB
M  V30 COUNTS 57 61 0 0 0
M  V30 BEGIN ATOM
M  V30 1 O 2.062275 4.048506 3.139759 0
M  V30 2 C 1.587241 2.884469 3.129080 0
M  V30 3 N 1.804172 2.035586 4.245022 0
M  V30 4 C 2.527241 2.346836 5.434067 0
M  V30 5 C 3.952328 2.678449 5.052505 0
M  V30 6 C 4.509611 1.472005 4.378771 0
M  V30 7 C 5.167705 0.426582 4.999289 0
M  V30 8 N 5.552879 -0.517469 4.124621 0
M  V30 9 C 5.134956 -0.068097 2.931305 0
M  V30 10 N 4.512477 1.117140 3.075916 0
M  V30 11 C 0.837535 2.509830 1.934990 0
M  V30 12 C 0.703547 3.443545 0.927817 0
M  V30 13 C 0.003064 3.172280 -0.251355 0
M  V30 14 C -0.582255 1.935582 -0.435765 0
M  V30 15 C -0.458338 0.988017 0.562250 0
M  V30 16 C 0.240399 1.286067 1.716827 0
M  V30 17 C -0.987699 -0.390425 0.600597 0
M  V30 18 O -1.038889 -0.946751 1.726108 0
M  V30 19 C -1.442049 -1.107208 -0.602747 0
M  V30 20 C -1.978063 -2.318015 -0.213246 0
M  V30 21 C -2.472841 -3.167640 -1.183186 0
M  V30 22 C -2.410170 -2.769142 -2.502432 0
M  V30 23 N -2.911755 -3.630351 -3.507787 0
M  V30 24 C -3.469337 -4.907923 -3.394061 0
M  V30 25 C -4.726849 -5.310191 -3.759922 0
M  V30 26 C -5.110128 -6.642805 -3.569461 0
M  V30 27 C -4.254074 -7.573016 -3.019945 0
M  V30 28 F -4.653136 -8.857266 -2.847152 0
M  V30 29 C -2.991686 -7.158551 -2.655376 0
M  V30 30 C -2.583062 -5.833628 -2.834535 0
M  V30 31 F -1.307914 -5.620413 -2.416295 0
M  V30 32 C -1.879556 -1.564563 -2.916672 0
M  V30 33 C -1.389536 -0.728087 -1.931873 0
M  V30 34 C -0.838440 0.549824 -2.499696 0
M  V30 35 C -1.306556 1.731462 -1.715464 0
M  V30 36 H 1.365466 1.094387 4.130137 0
M  V30 37 H 2.576671 1.470448 6.085659 0
M  V30 38 H 2.046003 3.170327 6.001739 0
M  V30 39 H 4.512878 2.813366 6.000312 0
M  V30 40 H 3.942531 3.561379 4.416580 0
M  V30 41 H 5.347970 0.383568 6.075140 0
M  V30 42 H 6.067467 -1.392549 4.395294 0
M  V30 43 H 5.298117 -0.614538 2.015159 0
M  V30 44 H 1.118804 4.455837 0.951501 0
M  V30 45 H -0.108158 3.896400 -1.046867 0
M  V30 46 H 0.326647 0.532456 2.486206 0
M  V30 47 H -2.020691 -2.619256 0.834684 0
M  V30 48 H -2.885183 -4.106130 -0.840555 0
M  V30 49 H -2.923202 -3.392234 -4.521537 0
M  V30 50 H -5.363465 -4.545424 -4.186886 0
M  V30 51 H -6.129966 -6.913426 -3.879844 0
M  V30 52 H -2.362987 -7.930337 -2.229611 0
M  V30 53 H -1.836345 -1.267458 -3.935861 0
M  V30 54 H 0.267716 0.539060 -2.496456 0
M  V30 55 H -1.243473 0.650418 -3.527492 0
M  V30 56 H -2.378471 1.524212 -1.439644 0
M  V30 57 H -1.359412 2.661101 -2.318519 0
M  V30 END ATOM
M  V30 BEGIN BOND
M  V30 1 2 1 2
M  V30 2 1 2 3
M  V30 3 1 3 4
M  V30 4 1 4 5
M  V30 5 1 5 6
M  V30 6 2 6 7
M  V30 7 1 7 8
M  V30 8 1 8 9
M  V30 9 2 9 10
M  V30 10 1 2 11
M  V30 11 2 11 12
M  V30 12 1 12 13
M  V30 13 2 13 14
M  V30 14 1 14 15
M  V30 15 2 15 16
M  V30 16 1 15 17
M  V30 17 2 17 18
M  V30 18 1 17 19
M  V30 19 2 19 20
M  V30 20 1 20 21
M  V30 21 2 21 22
M  V30 22 1 22 23
M  V30 23 1 23 24
M  V30 24 2 24 25
M  V30 25 1 25 26
M  V30 26 2 26 27
M  V30 27 1 27 28
M  V30 28 1 27 29
M  V30 29 2 29 30
M  V30 30 1 30 31
M  V30 31 1 22 32
M  V30 32 2 32 33
M  V30 33 1 33 34
M  V30 34 1 34 35
M  V30 35 1 10 6
M  V30 36 1 16 11
M  V30 37 1 33 19
M  V30 38 1 35 14
M  V30 39 1 30 24
M  V30 40 1 3 36
M  V30 41 1 4 37
M  V30 42 1 4 38
M  V30 43 1 5 39
M  V30 44 1 5 40
M  V30 45 1 7 41
M  V30 46 1 8 42
M  V30 47 1 9 43
M  V30 48 1 12 44
M  V30 49 1 13 45
M  V30 50 1 16 46
M  V30 51 1 20 47
M  V30 52 1 21 48
M  V30 53 1 23 49
M  V30 54 1 25 50
M  V30 55 1 26 51
M  V30 56 1 29 52
M  V30 57 1 32 53
M  V30 58 1 34 54
M  V30 59 1 34 55
M  V30 60 1 35 56
M  V30 61 1 35 57
M  V30 END BOND
M  V30 END CTAB
M  END
>  <Dataset>  (185) 
ChEMBL_Kinases

>  <Ligand_Instance>  (185) 
nan

>  <PDB_ID>  (185) 
nan

>  <Standardized_SMILES>  (185) 
O=C(NCCc1c[nH]cn1)c1ccc2c(c1)C(=O)c1ccc(Nc3ccc(F)cc3F)cc1CC2

>  <Name>  (185) 
nan

>  <Pocket>  (185) 
nan

>  <ATP_Site>  (185) 
nan

>  <Peripheral>  (185) 
nan

>  <Num_H_Atoms_ProtBoundConf>  (185) 
nan

>  <Num_Resolved_Atoms>  (185) 
nan

>  <Num_Not_Resolved_Atoms>  (185) 
nan

$$$$
CHEMBL5078946
     RDKit          3D

  0  0  0  0  0  0  0  0  0  0999 V3000
M  V30 BEGIN CTAB
M  V30 COUNTS 65 69 0 0 0
M  V30 BEGIN ATOM
M  V30 1 C 1.276135 -0.957577 5.649063 0
M  V30 2 C 2.421125 -0.814194 4.708223 0
M  V30 3 C 2.382760 -0.550140 3.342840 0
M  V30 4 C 3.672823 -0.492015 2.857674 0
M  V30 5 N 3.968334 -0.227079 1.497416 0
M  V30 6 C 2.928978 -0.045547 0.552107 0
M  V30 7 C 2.146768 1.080972 0.441103 0
M  V30 8 C 1.145288 1.219446 -0.527617 0
M  V30 9 N 0.348425 2.399324 -0.585386 0
M  V30 10 C -0.386788 3.294367 -1.460605 0
M  V30 11 C -1.015489 4.007685 -0.312016 0
M  V30 12 N -2.432770 3.743887 -0.126009 0
M  V30 13 C -2.776560 2.360897 -0.063585 0
M  V30 14 C -2.805143 4.396691 1.120731 0
M  V30 15 C -0.081731 3.225627 0.548479 0
M  V30 16 N 0.981781 0.158057 -1.372305 0
M  V30 17 C 1.735219 -0.945189 -1.274358 0
M  V30 18 N 1.552253 -2.048537 -2.160101 0
M  V30 19 C 0.507888 -1.904319 -3.141577 0 CFG=1
M  V30 20 C 0.525679 -3.187449 -3.984926 0
M  V30 21 C 0.055829 -4.269898 -3.037726 0
M  V30 22 N -0.766258 -3.508270 -2.084003 0
M  V30 23 C -1.271503 -4.338430 -1.052942 0
M  V30 24 O -0.841512 -5.513417 -1.266207 0
M  V30 25 C -2.129190 -4.000574 0.081917 0
M  V30 26 C -3.525509 -4.094282 0.056470 0
M  V30 27 C -4.289885 -3.757334 1.174472 0
M  V30 28 C -3.642407 -3.328644 2.312011 0
M  V30 29 C -2.249432 -3.235546 2.335962 0
M  V30 30 Cl -1.608869 -2.658083 3.882032 0
M  V30 31 C -1.491439 -3.563747 1.243599 0
M  V30 32 F -0.129201 -3.435127 1.366085 0
M  V30 33 C -0.842587 -2.088638 -2.440932 0
M  V30 34 N 2.692935 -1.039300 -0.324304 0
M  V30 35 N 4.474533 -0.720156 3.921230 0
M  V30 36 N 3.723430 -0.906934 5.002206 0
M  V30 37 H 1.143538 -2.002973 5.966731 0
M  V30 38 H 0.345684 -0.516954 5.230615 0
M  V30 39 H 1.527091 -0.358015 6.550485 0
M  V30 40 H 1.460171 -0.417432 2.773711 0
M  V30 41 H 5.011865 -0.181588 1.278607 0
M  V30 42 H 2.341982 1.891106 1.160652 0
M  V30 43 H -1.104560 2.726549 -2.103766 0
M  V30 44 H 0.288330 3.981635 -2.034748 0
M  V30 45 H -0.766543 5.103004 -0.288678 0
M  V30 46 H -3.592179 2.240745 0.712169 0
M  V30 47 H -1.976682 1.660028 0.190812 0
M  V30 48 H -3.277096 2.078526 -1.038858 0
M  V30 49 H -1.950356 4.921662 1.604252 0
M  V30 50 H -3.141952 3.607293 1.855787 0
M  V30 51 H -3.632083 5.107975 1.024149 0
M  V30 52 H -0.584917 2.573367 1.318995 0
M  V30 53 H 0.729284 3.844360 1.000568 0
M  V30 54 H 2.154928 -2.897110 -2.074689 0
M  V30 55 H 0.560708 -1.012111 -3.760757 0
M  V30 56 H 1.534174 -3.389512 -4.359715 0
M  V30 57 H -0.253121 -3.142397 -4.784386 0
M  V30 58 H -0.589002 -5.014653 -3.536949 0
M  V30 59 H 0.898606 -4.789598 -2.560597 0
M  V30 60 H -4.001916 -4.433489 -0.847712 0
M  V30 61 H -5.377595 -3.845705 1.100658 0
M  V30 62 H -4.319249 -3.094538 3.120084 0
M  V30 63 H -0.900624 -1.459531 -1.528813 0
M  V30 64 H -1.644391 -1.947955 -3.165332 0
M  V30 65 H 4.180931 -1.097018 5.922497 0
M  V30 END ATOM
M  V30 BEGIN BOND
M  V30 1 1 1 2
M  V30 2 2 2 3
M  V30 3 1 3 4
M  V30 4 1 4 5
M  V30 5 1 5 6
M  V30 6 2 6 7
M  V30 7 1 7 8
M  V30 8 1 8 9
M  V30 9 1 9 10
M  V30 10 1 10 11
M  V30 11 1 11 12
M  V30 12 1 12 13
M  V30 13 1 12 14
M  V30 14 1 11 15
M  V30 15 2 8 16
M  V30 16 1 16 17
M  V30 17 1 17 18
M  V30 18 1 18 19
M  V30 19 1 19 20
M  V30 20 1 20 21
M  V30 21 1 21 22
M  V30 22 1 22 23
M  V30 23 2 23 24
M  V30 24 1 23 25
M  V30 25 2 25 26
M  V30 26 1 26 27
M  V30 27 2 27 28
M  V30 28 1 28 29
M  V30 29 1 29 30
M  V30 30 2 29 31
M  V30 31 1 31 32
M  V30 32 1 22 33
M  V30 33 2 17 34
M  V30 34 2 4 35
M  V30 35 1 35 36
M  V30 36 1 36 2
M  V30 37 1 34 6
M  V30 38 1 15 9
M  V30 39 1 33 19
M  V30 40 1 31 25
M  V30 41 1 1 37
M  V30 42 1 1 38
M  V30 43 1 1 39
M  V30 44 1 3 40
M  V30 45 1 5 41
M  V30 46 1 7 42
M  V30 47 1 10 43
M  V30 48 1 10 44
M  V30 49 1 11 45
M  V30 50 1 13 46
M  V30 51 1 13 47
M  V30 52 1 13 48
M  V30 53 1 14 49
M  V30 54 1 14 50
M  V30 55 1 14 51
M  V30 56 1 15 52
M  V30 57 1 15 53
M  V30 58 1 18 54
M  V30 59 1 19 55 CFG=3
M  V30 60 1 20 56
M  V30 61 1 20 57
M  V30 62 1 21 58
M  V30 63 1 21 59
M  V30 64 1 26 60
M  V30 65 1 27 61
M  V30 66 1 28 62
M  V30 67 1 33 63
M  V30 68 1 33 64
M  V30 69 1 36 65
M  V30 END BOND
M  V30 END CTAB
M  END
>  <Dataset>  (186) 
ChEMBL_Kinases

>  <Ligand_Instance>  (186) 
nan

>  <PDB_ID>  (186) 
nan

>  <Standardized_SMILES>  (186) 
Cc1cc(Nc2cc(N3CC(N(C)C)C3)nc(N[C@H]3CCN(C(=O)c4cccc(Cl)c4F)C3)n2)n[nH]1

>  <Name>  (186) 
nan

>  <Pocket>  (186) 
nan

>  <ATP_Site>  (186) 
nan

>  <Peripheral>  (186) 
nan

>  <Num_H_Atoms_ProtBoundConf>  (186) 
nan

>  <Num_Resolved_Atoms>  (186) 
nan

>  <Num_Not_Resolved_Atoms>  (186) 
nan

$$$$
CHEMBL5078955
     RDKit          3D

  0  0  0  0  0  0  0  0  0  0999 V3000
M  V30 BEGIN CTAB
M  V30 COUNTS 59 62 0 0 0
M  V30 BEGIN ATOM
M  V30 1 O 3.795915 1.253857 3.667489 0
M  V30 2 C 3.534583 0.628036 2.607972 0
M  V30 3 N 4.594159 0.014398 1.916157 0
M  V30 4 C 5.980284 0.050892 2.339403 0
M  V30 5 C 6.126554 -0.576758 3.704475 0
M  V30 6 O 5.692335 -1.900054 3.619736 0
M  V30 7 C 6.828882 -0.709874 1.363691 0
M  V30 8 O 6.733529 -0.145109 0.079395 0
M  V30 9 C 6.452687 1.490669 2.356271 0
M  V30 10 O 7.798110 1.497312 2.768832 0
M  V30 11 C 2.139022 0.594563 2.186828 0
M  V30 12 C 1.211825 1.247478 2.972711 0
M  V30 13 C -0.150105 1.271270 2.650337 0
M  V30 14 C -0.592728 0.625228 1.513225 0
M  V30 15 C 0.344855 -0.026343 0.732286 0
M  V30 16 C 1.679442 -0.040690 1.062356 0
M  V30 17 C 0.113210 -0.773208 -0.508191 0
M  V30 18 O 1.102906 -1.115794 -1.203050 0
M  V30 19 C -1.189304 -1.172296 -1.035722 0
M  V30 20 C -1.146681 -1.676799 -2.319414 0
M  V30 21 C -2.244572 -2.118396 -3.028519 0
M  V30 22 C -3.463173 -2.039863 -2.386324 0
M  V30 23 N -4.659995 -2.467667 -3.025746 0
M  V30 24 C -6.005843 -2.490615 -2.566654 0
M  V30 25 C -7.082821 -1.833299 -3.123841 0
M  V30 26 C -8.346874 -1.935838 -2.582494 0
M  V30 27 C -8.564071 -2.716079 -1.446664 0
M  V30 28 F -9.820629 -2.795038 -0.939856 0
M  V30 29 C -7.473381 -3.371757 -0.896052 0
M  V30 30 C -6.205405 -3.275704 -1.429751 0
M  V30 31 F -5.301871 -3.995724 -0.732406 0
M  V30 32 C -3.544487 -1.540401 -1.101228 0
M  V30 33 C -2.424357 -1.106154 -0.418587 0
M  V30 34 C -2.683598 -0.602853 0.940827 0
M  V30 35 C -2.047820 0.708369 1.259415 0
M  V30 36 H 4.327264 -0.492803 1.043155 0
M  V30 37 H 7.185428 -0.622278 4.027628 0
M  V30 38 H 5.549690 -0.056536 4.485475 0
M  V30 39 H 4.796161 -2.017401 4.020922 0
M  V30 40 H 7.897234 -0.642000 1.628608 0
M  V30 41 H 6.486746 -1.760227 1.253618 0
M  V30 42 H 5.885768 -0.498238 -0.308999 0
M  V30 43 H 5.901118 2.099038 3.084335 0
M  V30 44 H 6.328452 1.963640 1.367984 0
M  V30 45 H 8.374628 1.537993 1.945995 0
M  V30 46 H 1.437064 1.783333 3.878326 0
M  V30 47 H -0.895751 1.775900 3.250197 0
M  V30 48 H 2.381417 -0.555076 0.435625 0
M  V30 49 H -0.179571 -1.734928 -2.818457 0
M  V30 50 H -2.155991 -2.506950 -4.037641 0
M  V30 51 H -4.596498 -2.842646 -4.014653 0
M  V30 52 H -6.864015 -1.247198 -3.994830 0
M  V30 53 H -9.180953 -1.416892 -3.027428 0
M  V30 54 H -7.752059 -3.957496 -0.006613 0
M  V30 55 H -4.451914 -1.443279 -0.526771 0
M  V30 56 H -2.403617 -1.394059 1.666376 0
M  V30 57 H -3.783685 -0.471552 1.028642 0
M  V30 58 H -2.274188 1.431309 0.448829 0
M  V30 59 H -2.524440 1.097648 2.182318 0
M  V30 END ATOM
M  V30 BEGIN BOND
M  V30 1 2 1 2
M  V30 2 1 2 3
M  V30 3 1 3 4
M  V30 4 1 4 5
M  V30 5 1 5 6
M  V30 6 1 4 7
M  V30 7 1 7 8
M  V30 8 1 4 9
M  V30 9 1 9 10
M  V30 10 1 2 11
M  V30 11 2 11 12
M  V30 12 1 12 13
M  V30 13 2 13 14
M  V30 14 1 14 15
M  V30 15 2 15 16
M  V30 16 1 15 17
M  V30 17 2 17 18
M  V30 18 1 17 19
M  V30 19 2 19 20
M  V30 20 1 20 21
M  V30 21 2 21 22
M  V30 22 1 22 23
M  V30 23 1 23 24
M  V30 24 2 24 25
M  V30 25 1 25 26
M  V30 26 2 26 27
M  V30 27 1 27 28
M  V30 28 1 27 29
M  V30 29 2 29 30
M  V30 30 1 30 31
M  V30 31 1 22 32
M  V30 32 2 32 33
M  V30 33 1 33 34
M  V30 34 1 34 35
M  V30 35 1 16 11
M  V30 36 1 33 19
M  V30 37 1 35 14
M  V30 38 1 30 24
M  V30 39 1 3 36
M  V30 40 1 5 37
M  V30 41 1 5 38
M  V30 42 1 6 39
M  V30 43 1 7 40
M  V30 44 1 7 41
M  V30 45 1 8 42
M  V30 46 1 9 43
M  V30 47 1 9 44
M  V30 48 1 10 45
M  V30 49 1 12 46
M  V30 50 1 13 47
M  V30 51 1 16 48
M  V30 52 1 20 49
M  V30 53 1 21 50
M  V30 54 1 23 51
M  V30 55 1 25 52
M  V30 56 1 26 53
M  V30 57 1 29 54
M  V30 58 1 32 55
M  V30 59 1 34 56
M  V30 60 1 34 57
M  V30 61 1 35 58
M  V30 62 1 35 59
M  V30 END BOND
M  V30 END CTAB
M  END
>  <Dataset>  (187) 
ChEMBL_Kinases

>  <Ligand_Instance>  (187) 
nan

>  <PDB_ID>  (187) 
nan

>  <Standardized_SMILES>  (187) 
O=C(NC(CO)(CO)CO)c1ccc2c(c1)C(=O)c1ccc(Nc3ccc(F)cc3F)cc1CC2

>  <Name>  (187) 
nan

>  <Pocket>  (187) 
nan

>  <ATP_Site>  (187) 
nan

>  <Peripheral>  (187) 
nan

>  <Num_H_Atoms_ProtBoundConf>  (187) 
nan

>  <Num_Resolved_Atoms>  (187) 
nan

>  <Num_Not_Resolved_Atoms>  (187) 
nan

$$$$
CHEMBL507900
     RDKit          3D

  0  0  0  0  0  0  0  0  0  0999 V3000
M  V30 BEGIN CTAB
M  V30 COUNTS 19 18 0 0 0
M  V30 BEGIN ATOM
M  V30 1 C -0.738659 1.530288 3.091997 0
M  V30 2 C 0.327104 0.659681 2.507370 0
M  V30 3 O 1.148678 0.195945 3.339881 0
M  V30 4 N 0.361793 0.408296 1.108402 0
M  V30 5 C 1.440351 -0.451519 0.648387 0 CFG=2
M  V30 6 C 2.254099 0.362406 -0.335099 0
M  V30 7 S 3.652262 -0.554710 -1.017365 0
M  V30 8 C 0.929025 -1.639981 -0.075756 0
M  V30 9 O 1.648860 -2.551924 -0.582369 0
M  V30 10 O -0.433171 -1.831086 -0.248639 0
M  V30 11 H -1.416350 1.922229 2.305492 0
M  V30 12 H -0.324006 2.386020 3.647702 0
M  V30 13 H -1.367821 0.869991 3.729957 0
M  V30 14 H -0.335969 0.809199 0.445050 0
M  V30 15 H 2.054029 -0.761333 1.497324 0
M  V30 16 H 1.611834 0.622835 -1.213746 0
M  V30 17 H 2.543568 1.310524 0.121870 0
M  V30 18 H 3.289526 -1.398431 -2.063443 0
M  V30 19 H -0.846658 -2.596804 -0.776084 0
M  V30 END ATOM
M  V30 BEGIN BOND
M  V30 1 1 1 2
M  V30 2 2 2 3
M  V30 3 1 2 4
M  V30 4 1 4 5
M  V30 5 1 5 6
M  V30 6 1 6 7
M  V30 7 1 5 8
M  V30 8 2 8 9
M  V30 9 1 8 10
M  V30 10 1 1 11
M  V30 11 1 1 12
M  V30 12 1 1 13
M  V30 13 1 4 14
M  V30 14 1 5 15 CFG=1
M  V30 15 1 6 16
M  V30 16 1 6 17
M  V30 17 1 7 18
M  V30 18 1 10 19
M  V30 END BOND
M  V30 END CTAB
M  END
>  <Dataset>  (188) 
ChEMBL_Kinases

>  <Ligand_Instance>  (188) 
nan

>  <PDB_ID>  (188) 
nan

>  <Standardized_SMILES>  (188) 
CC(=O)N[C@H](CS)C(=O)O

>  <Name>  (188) 
nan

>  <Pocket>  (188) 
nan

>  <ATP_Site>  (188) 
nan

>  <Peripheral>  (188) 
nan

>  <Num_H_Atoms_ProtBoundConf>  (188) 
nan

>  <Num_Resolved_Atoms>  (188) 
nan

>  <Num_Not_Resolved_Atoms>  (188) 
nan

$$$$
CHEMBL3781413
     RDKit          3D

  0  0  0  0  0  0  0  0  0  0999 V3000
M  V30 BEGIN CTAB
M  V30 COUNTS 92 97 0 0 0
M  V30 BEGIN ATOM
M  V30 1 C -1.227087 -6.278481 5.375540 0
M  V30 2 C -0.688123 -4.916688 5.151592 0
M  V30 3 C -0.817558 -3.980549 6.168143 0
M  V30 4 C -0.345455 -2.691536 6.045163 0
M  V30 5 C 0.278915 -2.298019 4.882865 0
M  V30 6 N 0.842316 -1.052490 4.502077 0
M  V30 7 N 2.063300 -0.564701 4.554054 0
M  V30 8 C 2.083264 0.691164 4.056639 0
M  V30 9 C 3.162050 1.704946 3.866894 0
M  V30 10 C 4.496431 1.176694 4.311731 0
M  V30 11 C 3.275206 2.117810 2.414969 0
M  V30 12 C 2.835808 2.979205 4.632282 0
M  V30 13 C 0.801559 0.985755 3.680012 0
M  V30 14 C -0.001683 -0.124010 3.960780 0
M  V30 15 N -1.413941 -0.195655 3.697164 0
M  V30 16 C -1.905357 -0.702779 2.474780 0
M  V30 17 O -1.019616 -1.082297 1.653755 0
M  V30 18 N -3.259665 -0.839788 2.055731 0
M  V30 19 C -3.338534 -1.411948 0.728341 0
M  V30 20 C -3.344434 -0.585789 -0.373240 0
M  V30 21 C -3.412804 -1.233665 -1.584778 0
M  V30 22 C -3.473767 -2.592431 -1.784480 0
M  V30 23 O -3.541630 -3.342604 -2.891414 0
M  V30 24 C -3.575464 -3.095415 -4.238108 0
M  V30 25 C -2.433839 -2.382794 -4.826794 0
M  V30 26 C -1.375970 -3.237922 -5.164379 0
M  V30 27 C -0.186186 -2.783880 -5.744872 0
M  V30 28 N -0.080576 -1.463668 -5.977948 0
M  V30 29 C -1.067724 -0.600404 -5.672541 0
M  V30 30 C -0.962689 0.854089 -5.919468 0
M  V30 31 O -1.901628 1.653738 -5.646827 0
M  V30 32 N 0.240340 1.337291 -6.479811 0
M  V30 33 C 0.456615 2.729089 -6.765901 0
M  V30 34 C 0.355805 3.627924 -5.556151 0
M  V30 35 N 1.301257 3.309663 -4.526428 0
M  V30 36 C 2.653034 3.587932 -4.906323 0
M  V30 37 C 3.555315 3.299223 -3.706606 0
M  V30 38 O 3.221651 4.187816 -2.703745 0
M  V30 39 C 1.959621 3.858790 -2.228110 0
M  V30 40 C 0.948784 4.094430 -3.353872 0
M  V30 41 C -2.241106 -1.044773 -5.100610 0
M  V30 42 C -3.464313 -3.371728 -0.623605 0
M  V30 43 C -3.517241 -4.743825 -0.610227 0
M  V30 44 C -3.507838 -5.532943 0.517891 0
M  V30 45 C -3.440151 -4.907665 1.744192 0
M  V30 46 C -3.384368 -3.532882 1.810239 0
M  V30 47 C -3.396569 -2.792105 0.648377 0
M  V30 48 C 0.423546 -3.219984 3.841614 0
M  V30 49 C -0.059304 -4.524578 3.977803 0
M  V30 50 H -0.521987 -6.910999 5.961334 0
M  V30 51 H -2.201101 -6.135634 5.906529 0
M  V30 52 H -1.485359 -6.733293 4.394112 0
M  V30 53 H -1.291691 -4.229346 7.089633 0
M  V30 54 H -0.392235 -1.897264 6.759406 0
M  V30 55 H 4.913685 1.763749 5.161556 0
M  V30 56 H 5.179948 1.145318 3.464818 0
M  V30 57 H 4.343535 0.098571 4.610089 0
M  V30 58 H 2.322843 2.537926 2.031097 0
M  V30 59 H 3.654270 1.331274 1.752262 0
M  V30 60 H 4.021585 2.959363 2.392139 0
M  V30 61 H 1.742825 3.173521 4.567011 0
M  V30 62 H 3.061675 2.849825 5.716193 0
M  V30 63 H 3.352918 3.857049 4.199937 0
M  V30 64 H 0.394271 1.894137 3.234238 0
M  V30 65 H -2.150939 0.115424 4.370406 0
M  V30 66 H -3.962290 -0.515624 2.750362 0
M  V30 67 H -3.298741 0.491051 -0.312372 0
M  V30 68 H -3.425147 -0.656416 -2.494068 0
M  V30 69 H -4.552295 -2.560597 -4.456973 0
M  V30 70 H -3.725908 -4.087741 -4.760769 0
M  V30 71 H -1.384590 -4.324861 -5.006836 0
M  V30 72 H 0.617654 -3.457004 -5.998428 0
M  V30 73 H 1.013632 0.640327 -6.697378 0
M  V30 74 H -0.181426 3.119831 -7.602464 0
M  V30 75 H 1.503604 2.880056 -7.152668 0
M  V30 76 H -0.694492 3.591509 -5.178848 0
M  V30 77 H 0.485496 4.680190 -5.944291 0
M  V30 78 H 2.806587 4.650722 -5.211936 0
M  V30 79 H 2.981072 2.891348 -5.710262 0
M  V30 80 H 4.626847 3.407199 -3.983977 0
M  V30 81 H 3.391741 2.234142 -3.426688 0
M  V30 82 H 1.648298 4.490007 -1.380012 0
M  V30 83 H 1.934411 2.792836 -1.872228 0
M  V30 84 H 1.044884 5.157681 -3.626108 0
M  V30 85 H -0.069023 3.903662 -3.014473 0
M  V30 86 H -3.090367 -0.436223 -4.825824 0
M  V30 87 H -3.571305 -5.258442 -1.568914 0
M  V30 88 H -3.554309 -6.621323 0.407130 0
M  V30 89 H -3.435311 -5.550271 2.614009 0
M  V30 90 H -3.332225 -3.073138 2.791123 0
M  V30 91 H 0.886933 -3.076757 2.866459 0
M  V30 92 H 0.001743 -5.303770 3.242634 0
M  V30 END ATOM
M  V30 BEGIN BOND
M  V30 1 1 1 2
M  V30 2 2 2 3
M  V30 3 1 3 4
M  V30 4 2 4 5
M  V30 5 1 5 6
M  V30 6 1 6 7
M  V30 7 2 7 8
M  V30 8 1 8 9
M  V30 9 1 9 10
M  V30 10 1 9 11
M  V30 11 1 9 12
M  V30 12 1 8 13
M  V30 13 2 13 14
M  V30 14 1 14 15
M  V30 15 1 15 16
M  V30 16 2 16 17
M  V30 17 1 16 18
M  V30 18 1 18 19
M  V30 19 2 19 20
M  V30 20 1 20 21
M  V30 21 2 21 22
M  V30 22 1 22 23
M  V30 23 1 23 24
M  V30 24 1 24 25
M  V30 25 2 25 26
M  V30 26 1 26 27
M  V30 27 2 27 28
M  V30 28 1 28 29
M  V30 29 1 29 30
M  V30 30 2 30 31
M  V30 31 1 30 32
M  V30 32 1 32 33
M  V30 33 1 33 34
M  V30 34 1 34 35
M  V30 35 1 35 36
M  V30 36 1 36 37
M  V30 37 1 37 38
M  V30 38 1 38 39
M  V30 39 1 39 40
M  V30 40 2 29 41
M  V30 41 1 22 42
M  V30 42 2 42 43
M  V30 43 1 43 44
M  V30 44 2 44 45
M  V30 45 1 45 46
M  V30 46 2 46 47
M  V30 47 1 5 48
M  V30 48 2 48 49
M  V30 49 1 49 2
M  V30 50 1 14 6
M  V30 51 1 47 19
M  V30 52 1 41 25
M  V30 53 1 47 42
M  V30 54 1 40 35
M  V30 55 1 1 50
M  V30 56 1 1 51
M  V30 57 1 1 52
M  V30 58 1 3 53
M  V30 59 1 4 54
M  V30 60 1 10 55
M  V30 61 1 10 56
M  V30 62 1 10 57
M  V30 63 1 11 58
M  V30 64 1 11 59
M  V30 65 1 11 60
M  V30 66 1 12 61
M  V30 67 1 12 62
M  V30 68 1 12 63
M  V30 69 1 13 64
M  V30 70 1 15 65
M  V30 71 1 18 66
M  V30 72 1 20 67
M  V30 73 1 21 68
M  V30 74 1 24 69
M  V30 75 1 24 70
M  V30 76 1 26 71
M  V30 77 1 27 72
M  V30 78 1 32 73
M  V30 79 1 33 74
M  V30 80 1 33 75
M  V30 81 1 34 76
M  V30 82 1 34 77
M  V30 83 1 36 78
M  V30 84 1 36 79
M  V30 85 1 37 80
M  V30 86 1 37 81
M  V30 87 1 39 82
M  V30 88 1 39 83
M  V30 89 1 40 84
M  V30 90 1 40 85
M  V30 91 1 41 86
M  V30 92 1 43 87
M  V30 93 1 44 88
M  V30 94 1 45 89
M  V30 95 1 46 90
M  V30 96 1 48 91
M  V30 97 1 49 92
M  V30 END BOND
M  V30 END CTAB
M  END
>  <Dataset>  (189) 
ChEMBL_Kinases

>  <Ligand_Instance>  (189) 
nan

>  <PDB_ID>  (189) 
nan

>  <Standardized_SMILES>  (189) 
Cc1ccc(-n2nc(C(C)(C)C)cc2NC(=O)Nc2ccc(OCc3ccnc(C(=O)NCCN4CCOCC4)c3)c3ccccc23)cc1

>  <Name>  (189) 
nan

>  <Pocket>  (189) 
nan

>  <ATP_Site>  (189) 
nan

>  <Peripheral>  (189) 
nan

>  <Num_H_Atoms_ProtBoundConf>  (189) 
nan

>  <Num_Resolved_Atoms>  (189) 
nan

>  <Num_Not_Resolved_Atoms>  (189) 
nan

$$$$
CHEMBL3781355
     RDKit          3D

  0  0  0  0  0  0  0  0  0  0999 V3000
M  V30 BEGIN CTAB
M  V30 COUNTS 52 55 0 0 0
M  V30 BEGIN ATOM
M  V30 1 C -0.882221 -3.715414 4.457479 0
M  V30 2 C 0.382880 -4.208294 5.082867 0
M  V30 3 O 1.346466 -3.201793 5.320003 0
M  V30 4 C 1.858504 -2.460017 4.268129 0
M  V30 5 C 2.781208 -1.527382 4.689190 0
M  V30 6 C 3.446241 -0.657472 3.859306 0
M  V30 7 C 3.161890 -0.729724 2.496261 0
M  V30 8 N 3.756656 0.064954 1.498976 0
M  V30 9 C 3.705526 0.301757 0.070943 0
M  V30 10 N 2.489831 0.948966 -0.376853 0
M  V30 11 C 2.482594 2.397829 -0.382035 0
M  V30 12 O 3.381466 3.235562 -0.041042 0
M  V30 13 C 1.216554 2.936123 -0.865192 0
M  V30 14 C 0.665537 4.181278 -1.076911 0
M  V30 15 C -0.628992 4.313530 -1.570231 0
M  V30 16 C -1.377410 3.185658 -1.853679 0
M  V30 17 C -0.863150 1.908601 -1.655919 0
M  V30 18 N -1.620433 0.733711 -1.942670 0
M  V30 19 C -2.478524 -0.001452 -1.116394 0
M  V30 20 O -2.695976 0.323322 0.079955 0
M  V30 21 C -3.154294 -1.183536 -1.630407 0
M  V30 22 C -3.998912 -1.878659 -0.762433 0
M  V30 23 C -4.660693 -3.009418 -1.213951 0
M  V30 24 C -4.535717 -3.501491 -2.491002 0
M  V30 25 C -3.692159 -2.796520 -3.337185 0
M  V30 26 C -3.029674 -1.668330 -2.892472 0
M  V30 27 C 0.424663 1.847976 -1.165266 0
M  V30 28 C 1.192936 0.647374 -0.870992 0
M  V30 29 O 0.850844 -0.547759 -1.001517 0
M  V30 30 C 2.239997 -1.660888 2.068665 0
M  V30 31 C 1.583281 -2.524954 2.918278 0
M  V30 32 H -1.164157 -4.252151 3.524552 0
M  V30 33 H -1.759726 -3.845296 5.142356 0
M  V30 34 H -0.849277 -2.631076 4.226759 0
M  V30 35 H 0.782836 -5.006074 4.402555 0
M  V30 36 H 0.188624 -4.758664 6.037906 0
M  V30 37 H 3.090287 -1.372899 5.735563 0
M  V30 38 H 4.172157 0.078648 4.177296 0
M  V30 39 H 4.484554 0.705961 1.949373 0
M  V30 40 H 4.585688 0.868294 -0.271759 0
M  V30 41 H 3.745282 -0.698853 -0.451940 0
M  V30 42 H 1.272997 5.043629 -0.846772 0
M  V30 43 H -1.036812 5.314608 -1.727047 0
M  V30 44 H -2.390599 3.301599 -2.239799 0
M  V30 45 H -1.409840 0.503635 -2.938179 0
M  V30 46 H -4.155668 -1.556158 0.270379 0
M  V30 47 H -5.309115 -3.538462 -0.538700 0
M  V30 48 H -5.056034 -4.376586 -2.819062 0
M  V30 49 H -3.540054 -3.122456 -4.364472 0
M  V30 50 H -2.394107 -1.163675 -3.581174 0
M  V30 51 H 1.906560 -1.863008 1.060675 0
M  V30 52 H 0.851828 -3.281094 2.671278 0
M  V30 END ATOM
M  V30 BEGIN BOND
M  V30 1 1 1 2
M  V30 2 1 2 3
M  V30 3 1 3 4
M  V30 4 2 4 5
M  V30 5 1 5 6
M  V30 6 2 6 7
M  V30 7 1 7 8
M  V30 8 1 8 9
M  V30 9 1 9 10
M  V30 10 1 10 11
M  V30 11 2 11 12
M  V30 12 1 11 13
M  V30 13 2 13 14
M  V30 14 1 14 15
M  V30 15 2 15 16
M  V30 16 1 16 17
M  V30 17 1 17 18
M  V30 18 1 18 19
M  V30 19 2 19 20
M  V30 20 1 19 21
M  V30 21 2 21 22
M  V30 22 1 22 23
M  V30 23 2 23 24
M  V30 24 1 24 25
M  V30 25 2 25 26
M  V30 26 2 17 27
M  V30 27 1 27 28
M  V30 28 2 28 29
M  V30 29 1 7 30
M  V30 30 2 30 31
M  V30 31 1 31 4
M  V30 32 1 28 10
M  V30 33 1 27 13
M  V30 34 1 26 21
M  V30 35 1 1 32
M  V30 36 1 1 33
M  V30 37 1 1 34
M  V30 38 1 2 35
M  V30 39 1 2 36
M  V30 40 1 5 37
M  V30 41 1 6 38
M  V30 42 1 8 39
M  V30 43 1 9 40
M  V30 44 1 9 41
M  V30 45 1 14 42
M  V30 46 1 15 43
M  V30 47 1 16 44
M  V30 48 1 18 45
M  V30 49 1 22 46
M  V30 50 1 23 47
M  V30 51 1 24 48
M  V30 52 1 25 49
M  V30 53 1 26 50
M  V30 54 1 30 51
M  V30 55 1 31 52
M  V30 END BOND
M  V30 END CTAB
M  END
>  <Dataset>  (190) 
ChEMBL_Kinases

>  <Ligand_Instance>  (190) 
nan

>  <PDB_ID>  (190) 
nan

>  <Standardized_SMILES>  (190) 
CCOc1ccc(NCN2C(=O)c3cccc(NC(=O)c4ccccc4)c3C2=O)cc1

>  <Name>  (190) 
nan

>  <Pocket>  (190) 
nan

>  <ATP_Site>  (190) 
nan

>  <Peripheral>  (190) 
nan

>  <Num_H_Atoms_ProtBoundConf>  (190) 
nan

>  <Num_Resolved_Atoms>  (190) 
nan

>  <Num_Not_Resolved_Atoms>  (190) 
nan

$$$$
CHEMBL5079068
     RDKit          3D

  0  0  0  0  0  0  0  0  0  0999 V3000
M  V30 BEGIN CTAB
M  V30 COUNTS 42 43 0 0 0
M  V30 BEGIN ATOM
M  V30 1 C -0.174395 -3.467906 2.834238 0
M  V30 2 C 0.444225 -4.414251 1.820069 0
M  V30 3 C -0.479550 -5.602639 1.696744 0
M  V30 4 C 0.734357 -3.728846 0.519608 0
M  V30 5 C -0.476649 -3.156612 -0.137102 0 CFG=2
M  V30 6 N -1.398383 -4.281325 -0.387682 0
M  V30 7 C -0.199800 -2.408231 -1.389935 0
M  V30 8 O 0.644826 -1.330865 -1.337234 0
M  V30 9 C 0.576797 -0.145607 -0.654744 0
M  V30 10 C 1.737087 0.576043 -0.978665 0
M  V30 11 C 1.984055 1.847859 -0.443810 0
M  V30 12 C 1.067571 2.407156 0.421653 0
M  V30 13 C 1.268051 3.729267 1.012069 0
M  V30 14 C 0.740189 3.945374 2.279045 0
M  V30 15 C 0.978003 5.227747 2.759484 0
M  V30 16 N 1.637904 6.218604 2.136524 0
M  V30 17 C 2.136610 5.971620 0.906930 0
M  V30 18 C 1.953042 4.715790 0.333243 0
M  V30 19 C -0.071837 1.701710 0.741274 0
M  V30 20 C -0.308928 0.452696 0.212629 0
M  V30 21 H 0.279695 -2.459885 2.789367 0
M  V30 22 H -0.040801 -3.934121 3.834934 0
M  V30 23 H -1.271076 -3.457036 2.605867 0
M  V30 24 H 1.419675 -4.769649 2.247597 0
M  V30 25 H -0.334749 -6.218932 2.632787 0
M  V30 26 H -1.553472 -5.297651 1.755995 0
M  V30 27 H -0.250336 -6.264038 0.844185 0
M  V30 28 H 1.540735 -3.011339 0.690615 0
M  V30 29 H 1.171765 -4.505681 -0.161499 0
M  V30 30 H -1.027919 -2.507844 0.565812 0
M  V30 31 H -0.946617 -4.959855 -1.043095 0
M  V30 32 H -2.273550 -3.881097 -0.800572 0
M  V30 33 H -1.146470 -2.121109 -1.931557 0
M  V30 34 H 0.265918 -3.155042 -2.105684 0
M  V30 35 H 2.579049 0.311619 -1.639546 0
M  V30 36 H 2.846146 2.467459 -0.639708 0
M  V30 37 H 0.195379 3.231047 2.872816 0
M  V30 38 H 0.589893 5.466608 3.751258 0
M  V30 39 H 2.689817 6.669158 0.282836 0
M  V30 40 H 2.337949 4.470880 -0.656467 0
M  V30 41 H -0.848568 2.052686 1.407989 0
M  V30 42 H -1.150749 -0.176306 0.383447 0
M  V30 END ATOM
M  V30 BEGIN BOND
M  V30 1 1 1 2
M  V30 2 1 2 3
M  V30 3 1 2 4
M  V30 4 1 4 5
M  V30 5 1 5 6
M  V30 6 1 5 7
M  V30 7 1 7 8
M  V30 8 1 8 9
M  V30 9 2 9 10
M  V30 10 1 10 11
M  V30 11 2 11 12
M  V30 12 1 12 13
M  V30 13 2 13 14
M  V30 14 1 14 15
M  V30 15 2 15 16
M  V30 16 1 16 17
M  V30 17 2 17 18
M  V30 18 1 12 19
M  V30 19 2 19 20
M  V30 20 1 20 9
M  V30 21 1 18 13
M  V30 22 1 1 21
M  V30 23 1 1 22
M  V30 24 1 1 23
M  V30 25 1 2 24
M  V30 26 1 3 25
M  V30 27 1 3 26
M  V30 28 1 3 27
M  V30 29 1 4 28
M  V30 30 1 4 29
M  V30 31 1 5 30 CFG=1
M  V30 32 1 6 31
M  V30 33 1 6 32
M  V30 34 1 7 33
M  V30 35 1 7 34
M  V30 36 1 10 35
M  V30 37 1 11 36
M  V30 38 1 14 37
M  V30 39 1 15 38
M  V30 40 1 17 39
M  V30 41 1 18 40
M  V30 42 1 19 41
M  V30 43 1 20 42
M  V30 END BOND
M  V30 END CTAB
M  END
>  <Dataset>  (191) 
ChEMBL_Kinases

>  <Ligand_Instance>  (191) 
nan

>  <PDB_ID>  (191) 
nan

>  <Standardized_SMILES>  (191) 
CC(C)C[C@H](N)COc1ccc(-c2ccncc2)cc1

>  <Name>  (191) 
nan

>  <Pocket>  (191) 
nan

>  <ATP_Site>  (191) 
nan

>  <Peripheral>  (191) 
nan

>  <Num_H_Atoms_ProtBoundConf>  (191) 
nan

>  <Num_Resolved_Atoms>  (191) 
nan

>  <Num_Not_Resolved_Atoms>  (191) 
nan

$$$$
CHEMBL378116
     RDKit          3D

  0  0  0  0  0  0  0  0  0  0999 V3000
M  V30 BEGIN CTAB
M  V30 COUNTS 55 59 0 0 0
M  V30 BEGIN ATOM
M  V30 1 C -2.009784 -2.038065 1.996256 0
M  V30 2 C -0.753656 -2.310169 1.211582 0
M  V30 3 C 0.538592 -1.834629 1.497334 0
M  V30 4 O 0.446654 -1.093950 2.610462 0
M  V30 5 C 1.209686 -0.351749 3.430671 0
M  V30 6 C 1.880954 0.893693 2.966437 0 CFG=1
M  V30 7 N 2.621796 1.388035 4.148588 0
M  V30 8 C 2.823823 0.808711 1.831779 0
M  V30 9 C 3.428093 2.159559 1.502940 0
M  V30 10 C 4.673519 2.704215 1.752163 0
M  V30 11 N 4.701068 3.940203 1.252075 0
M  V30 12 C 3.521583 4.253653 0.673438 0
M  V30 13 C 3.003978 5.362603 0.018500 0
M  V30 14 C 1.707739 5.375461 -0.480182 0
M  V30 15 C 0.914068 4.257818 -0.320790 0
M  V30 16 C 1.419243 3.154923 0.326864 0
M  V30 17 C 2.708439 3.138510 0.824471 0
M  V30 18 C 1.512998 -2.231541 0.612004 0
M  V30 19 N 1.296659 -3.011255 -0.457329 0
M  V30 20 C 0.048067 -3.463406 -0.723236 0
M  V30 21 C -1.005203 -3.127471 0.099242 0
M  V30 22 C -2.248932 -3.710777 -0.354924 0
M  V30 23 C -3.181408 -4.366801 0.419253 0
M  V30 24 C -4.360084 -4.911131 -0.041484 0
M  V30 25 C -4.619271 -4.784105 -1.390471 0
M  V30 26 C -5.798920 -5.321403 -1.890776 0
M  V30 27 N -6.091736 -5.219052 -3.207596 0
M  V30 28 C -5.238319 -4.594797 -4.037705 0
M  V30 29 C -4.051715 -4.044929 -3.581856 0
M  V30 30 C -3.749067 -4.145687 -2.245937 0
M  V30 31 C -2.599828 -3.632361 -1.708428 0
M  V30 32 H -2.128344 -2.715625 2.857263 0
M  V30 33 H -2.886102 -1.968968 1.327736 0
M  V30 34 H -1.924397 -1.014588 2.452252 0
M  V30 35 H 0.695259 -0.072460 4.403095 0
M  V30 36 H 2.067952 -1.022241 3.795589 0
M  V30 37 H 1.121651 1.736705 2.816230 0
M  V30 38 H 2.868287 2.383223 4.063783 0
M  V30 39 H 3.496971 0.821922 4.180331 0
M  V30 40 H 2.274247 0.505040 0.899099 0
M  V30 41 H 3.610134 0.051516 1.981980 0
M  V30 42 H 5.434298 2.131576 2.278646 0
M  V30 43 H 5.537695 4.592685 1.301509 0
M  V30 44 H 3.691900 6.217687 -0.072463 0
M  V30 45 H 1.407198 6.306223 -0.978595 0
M  V30 46 H -0.079622 4.325847 -0.727236 0
M  V30 47 H 0.747363 2.333390 0.410072 0
M  V30 48 H 2.477861 -1.847876 0.893243 0
M  V30 49 H 0.028369 -4.077415 -1.612648 0
M  V30 50 H -2.967550 -4.462011 1.471342 0
M  V30 51 H -5.028746 -5.408744 0.651708 0
M  V30 52 H -6.513107 -5.834329 -1.243745 0
M  V30 53 H -5.429237 -4.486000 -5.111653 0
M  V30 54 H -3.364475 -3.546018 -4.231131 0
M  V30 55 H -1.941561 -3.134581 -2.432504 0
M  V30 END ATOM
M  V30 BEGIN BOND
M  V30 1 1 1 2
M  V30 2 2 2 3
M  V30 3 1 3 4
M  V30 4 1 4 5
M  V30 5 1 5 6
M  V30 6 1 6 7
M  V30 7 1 6 8
M  V30 8 1 8 9
M  V30 9 2 9 10
M  V30 10 1 10 11
M  V30 11 1 11 12
M  V30 12 2 12 13
M  V30 13 1 13 14
M  V30 14 2 14 15
M  V30 15 1 15 16
M  V30 16 2 16 17
M  V30 17 1 3 18
M  V30 18 2 18 19
M  V30 19 1 19 20
M  V30 20 2 20 21
M  V30 21 1 21 22
M  V30 22 2 22 23
M  V30 23 1 23 24
M  V30 24 2 24 25
M  V30 25 1 25 26
M  V30 26 2 26 27
M  V30 27 1 27 28
M  V30 28 2 28 29
M  V30 29 1 29 30
M  V30 30 2 30 31
M  V30 31 1 21 2
M  V30 32 1 31 22
M  V30 33 1 17 9
M  V30 34 1 30 25
M  V30 35 1 17 12
M  V30 36 1 1 32
M  V30 37 1 1 33
M  V30 38 1 1 34
M  V30 39 1 5 35
M  V30 40 1 5 36
M  V30 41 1 6 37 CFG=3
M  V30 42 1 7 38
M  V30 43 1 7 39
M  V30 44 1 8 40
M  V30 45 1 8 41
M  V30 46 1 10 42
M  V30 47 1 11 43
M  V30 48 1 13 44
M  V30 49 1 14 45
M  V30 50 1 15 46
M  V30 51 1 16 47
M  V30 52 1 18 48
M  V30 53 1 20 49
M  V30 54 1 23 50
M  V30 55 1 24 51
M  V30 56 1 26 52
M  V30 57 1 28 53
M  V30 58 1 29 54
M  V30 59 1 31 55
M  V30 END BOND
M  V30 END CTAB
M  END
>  <Dataset>  (192) 
ChEMBL_Kinases

>  <Ligand_Instance>  (192) 
nan

>  <PDB_ID>  (192) 
nan

>  <Standardized_SMILES>  (192) 
Cc1c(OC[C@@H](N)Cc2c[nH]c3ccccc23)cncc1-c1ccc2cnccc2c1

>  <Name>  (192) 
nan

>  <Pocket>  (192) 
nan

>  <ATP_Site>  (192) 
nan

>  <Peripheral>  (192) 
nan

>  <Num_H_Atoms_ProtBoundConf>  (192) 
nan

>  <Num_Resolved_Atoms>  (192) 
nan

>  <Num_Not_Resolved_Atoms>  (192) 
nan

$$$$
CHEMBL3781117
     RDKit          3D

  0  0  0  0  0  0  0  0  0  0999 V3000
M  V30 BEGIN CTAB
M  V30 COUNTS 48 50 0 0 0
M  V30 BEGIN ATOM
M  V30 1 C 1.534666 -5.089564 0.538118 0
M  V30 2 C 2.165538 -3.962047 -0.242441 0
M  V30 3 N 1.240022 -3.372538 -1.217927 0
M  V30 4 C 1.047800 -4.386570 -2.209065 0
M  V30 5 C 0.462926 -3.886724 -3.483740 0
M  V30 6 C 0.768297 -2.042725 -1.031112 0
M  V30 7 C 1.325101 -1.250929 -0.071023 0
M  V30 8 C 0.783060 0.025653 0.111921 0
M  V30 9 C -0.284218 0.512588 -0.633609 0
M  V30 10 N -0.694814 1.813459 -0.288527 0
M  V30 11 C -0.461816 2.948761 0.546985 0
M  V30 12 N -0.403578 2.715608 1.962376 0
M  V30 13 C 0.563622 2.440494 2.974853 0
M  V30 14 O 1.783884 2.403528 2.692712 0
M  V30 15 C -0.035751 2.232172 4.277939 0
M  V30 16 C 0.605816 1.941295 5.468116 0
M  V30 17 C -0.213282 1.783616 6.568208 0
M  V30 18 C -1.601215 1.908526 6.494213 0
M  V30 19 C -2.137231 2.201308 5.257315 0
M  V30 20 C -1.395676 2.374259 4.112115 0
M  V30 21 C -1.650272 2.674919 2.686206 0
M  V30 22 O -2.847986 2.836227 2.364644 0
M  V30 23 C -0.834811 -0.296973 -1.596079 0
M  V30 24 C -1.971677 0.231170 -2.395954 0
M  V30 25 C -0.284098 -1.533538 -1.747377 0
M  V30 26 H 0.565090 -5.374377 0.113279 0
M  V30 27 H 2.224226 -5.946137 0.607347 0
M  V30 28 H 1.334346 -4.701830 1.578685 0
M  V30 29 H 2.584467 -3.191520 0.387554 0
M  V30 30 H 3.024955 -4.375229 -0.856164 0
M  V30 31 H 2.037918 -4.913463 -2.407375 0
M  V30 32 H 0.323942 -5.192627 -1.830468 0
M  V30 33 H -0.624704 -3.982021 -3.593077 0
M  V30 34 H 0.836334 -2.894321 -3.714619 0
M  V30 35 H 0.904569 -4.563635 -4.313653 0
M  V30 36 H 2.140968 -1.455096 0.582536 0
M  V30 37 H 1.235645 0.630081 0.865933 0
M  V30 38 H -1.524030 2.058166 -0.919877 0
M  V30 39 H 0.539533 3.363559 0.253412 0
M  V30 40 H -1.163994 3.789088 0.303745 0
M  V30 41 H 1.678818 1.845380 5.530814 0
M  V30 42 H 0.286146 1.550324 7.518624 0
M  V30 43 H -2.208031 1.776501 7.381783 0
M  V30 44 H -3.214602 2.302112 5.185456 0
M  V30 45 H -2.507927 -0.693410 -2.772439 0
M  V30 46 H -1.635196 0.869569 -3.229413 0
M  V30 47 H -2.725336 0.766633 -1.814662 0
M  V30 48 H -0.833420 -2.056935 -2.501563 0
M  V30 END ATOM
M  V30 BEGIN BOND
M  V30 1 1 1 2
M  V30 2 1 2 3
M  V30 3 1 3 4
M  V30 4 1 4 5
M  V30 5 1 3 6
M  V30 6 2 6 7
M  V30 7 1 7 8
M  V30 8 2 8 9
M  V30 9 1 9 10
M  V30 10 1 10 11
M  V30 11 1 11 12
M  V30 12 1 12 13
M  V30 13 2 13 14
M  V30 14 1 13 15
M  V30 15 2 15 16
M  V30 16 1 16 17
M  V30 17 2 17 18
M  V30 18 1 18 19
M  V30 19 2 19 20
M  V30 20 1 20 21
M  V30 21 2 21 22
M  V30 22 1 9 23
M  V30 23 1 23 24
M  V30 24 2 23 25
M  V30 25 1 25 6
M  V30 26 1 21 12
M  V30 27 1 20 15
M  V30 28 1 1 26
M  V30 29 1 1 27
M  V30 30 1 1 28
M  V30 31 1 2 29
M  V30 32 1 2 30
M  V30 33 1 4 31
M  V30 34 1 4 32
M  V30 35 1 5 33
M  V30 36 1 5 34
M  V30 37 1 5 35
M  V30 38 1 7 36
M  V30 39 1 8 37
M  V30 40 1 10 38
M  V30 41 1 11 39
M  V30 42 1 11 40
M  V30 43 1 16 41
M  V30 44 1 17 42
M  V30 45 1 18 43
M  V30 46 1 19 44
M  V30 47 1 24 45
M  V30 48 1 24 46
M  V30 49 1 24 47
M  V30 50 1 25 48
M  V30 END BOND
M  V30 END CTAB
M  END
>  <Dataset>  (193) 
ChEMBL_Kinases

>  <Ligand_Instance>  (193) 
nan

>  <PDB_ID>  (193) 
nan

>  <Standardized_SMILES>  (193) 
CCN(CC)c1ccc(NCN2C(=O)c3ccccc3C2=O)c(C)c1

>  <Name>  (193) 
nan

>  <Pocket>  (193) 
nan

>  <ATP_Site>  (193) 
nan

>  <Peripheral>  (193) 
nan

>  <Num_H_Atoms_ProtBoundConf>  (193) 
nan

>  <Num_Resolved_Atoms>  (193) 
nan

>  <Num_Not_Resolved_Atoms>  (193) 
nan

$$$$
CHEMBL5079142
     RDKit          3D

  0  0  0  0  0  0  0  0  0  0999 V3000
M  V30 BEGIN CTAB
M  V30 COUNTS 37 39 0 0 0
M  V30 BEGIN ATOM
M  V30 1 C 2.909179 -3.993459 2.411679 0
M  V30 2 C 1.739302 -3.770361 2.948716 0
M  V30 3 C 0.534491 -3.077297 2.636050 0
M  V30 4 O 0.018929 -3.427422 3.716311 0
M  V30 5 N 0.130469 -2.320467 1.547181 0
M  V30 6 C 0.959635 -2.027242 0.432872 0
M  V30 7 O 1.817772 -2.914460 0.205174 0
M  V30 8 C 0.926672 -0.839093 -0.455591 0
M  V30 9 C 0.729112 0.467278 0.207866 0
M  V30 10 C 1.185901 1.572584 -0.678401 0
M  V30 11 C 0.560818 1.663573 -1.910290 0
M  V30 12 C 0.863569 2.628277 -2.849560 0
M  V30 13 C 1.855763 3.564890 -2.539538 0
M  V30 14 C 2.486620 3.482133 -1.309928 0
M  V30 15 C 2.172450 2.509740 -0.379232 0
M  V30 16 S -0.973233 0.854514 0.686822 0
M  V30 17 C -1.784971 -0.589525 1.386410 0
M  V30 18 C -3.119153 -0.321707 1.602101 0
M  V30 19 C -3.909545 -1.345726 2.136772 0
M  V30 20 C -3.399424 -2.602361 2.451018 0
M  V30 21 C -2.060963 -2.841748 2.224366 0
M  V30 22 C -1.227443 -1.845975 1.690448 0
M  V30 23 H 3.820409 -4.063096 1.798797 0
M  V30 24 H 3.761728 -4.007994 1.752010 0
M  V30 25 H 2.324008 -4.377545 3.605773 0
M  V30 26 H 0.105267 -0.962684 -1.222698 0
M  V30 27 H 1.873449 -0.797779 -1.035485 0
M  V30 28 H 1.362559 0.540276 1.133872 0
M  V30 29 H -0.222774 0.985904 -2.249018 0
M  V30 30 H 0.382648 2.708485 -3.813360 0
M  V30 31 H 2.110567 4.328818 -3.257224 0
M  V30 32 H 3.250228 4.173874 -1.026417 0
M  V30 33 H 2.633548 2.401869 0.592048 0
M  V30 34 H -3.531405 0.648662 1.363479 0
M  V30 35 H -4.974841 -1.180510 2.326318 0
M  V30 36 H -4.061657 -3.369243 2.867624 0
M  V30 37 H -1.652037 -3.811607 2.446004 0
M  V30 END ATOM
M  V30 BEGIN BOND
M  V30 1 2 1 2
M  V30 2 1 2 3
M  V30 3 2 3 4
M  V30 4 1 3 5
M  V30 5 1 5 6
M  V30 6 2 6 7
M  V30 7 1 6 8
M  V30 8 1 8 9
M  V30 9 1 9 10
M  V30 10 2 10 11
M  V30 11 1 11 12
M  V30 12 2 12 13
M  V30 13 1 13 14
M  V30 14 2 14 15
M  V30 15 1 9 16
M  V30 16 1 16 17
M  V30 17 2 17 18
M  V30 18 1 18 19
M  V30 19 2 19 20
M  V30 20 1 20 21
M  V30 21 2 21 22
M  V30 22 1 22 5
M  V30 23 1 15 10
M  V30 24 1 22 17
M  V30 25 1 1 23
M  V30 26 1 1 24
M  V30 27 1 2 25
M  V30 28 1 8 26
M  V30 29 1 8 27
M  V30 30 1 9 28
M  V30 31 1 11 29
M  V30 32 1 12 30
M  V30 33 1 13 31
M  V30 34 1 14 32
M  V30 35 1 15 33
M  V30 36 1 18 34
M  V30 37 1 19 35
M  V30 38 1 20 36
M  V30 39 1 21 37
M  V30 END BOND
M  V30 END CTAB
M  END
>  <Dataset>  (194) 
ChEMBL_Kinases

>  <Ligand_Instance>  (194) 
nan

>  <PDB_ID>  (194) 
nan

>  <Standardized_SMILES>  (194) 
C=CC(=O)N1C(=O)CC(c2ccccc2)Sc2ccccc21

>  <Name>  (194) 
nan

>  <Pocket>  (194) 
nan

>  <ATP_Site>  (194) 
nan

>  <Peripheral>  (194) 
nan

>  <Num_H_Atoms_ProtBoundConf>  (194) 
nan

>  <Num_Resolved_Atoms>  (194) 
nan

>  <Num_Not_Resolved_Atoms>  (194) 
nan

$$$$
CHEMBL3781068
     RDKit          3D

  0  0  0  0  0  0  0  0  0  0999 V3000
M  V30 BEGIN CTAB
M  V30 COUNTS 58 62 0 0 0
M  V30 BEGIN ATOM
M  V30 1 O 2.968214 -4.142225 -0.199869 0
M  V30 2 C 4.165154 -4.530024 -0.199809 0
M  V30 3 N 5.101405 -3.433954 -0.270080 0
M  V30 4 C 4.290311 -2.237000 -0.318936 0
M  V30 5 C 3.913606 -1.748969 -1.554438 0
M  V30 6 C 3.137519 -0.608947 -1.591880 0
M  V30 7 C 2.771051 -0.006299 -0.406592 0
M  V30 8 C 3.128257 -0.464471 0.854300 0
M  V30 9 C 3.903432 -1.605528 0.846072 0
M  V30 10 C 2.536751 0.455990 1.817037 0
M  V30 11 O 2.761390 0.189984 3.026983 0
M  V30 12 N 1.799652 1.503610 1.136765 0
M  V30 13 C 1.190458 2.466651 2.045000 0
M  V30 14 N -0.118816 2.136439 2.484952 0
M  V30 15 C -1.404431 2.089727 1.896020 0
M  V30 16 C -1.687802 2.446881 0.595502 0
M  V30 17 C -2.927388 2.394664 0.009661 0
M  V30 18 C -3.981891 1.955239 0.761974 0
M  V30 19 N -5.290937 1.885743 0.223810 0
M  V30 20 C -5.709827 2.464163 -1.041895 0
M  V30 21 C -7.027962 3.192976 -0.868065 0
M  V30 22 O -7.305783 3.392905 0.492755 0
M  V30 23 C -7.579094 2.176814 1.076108 0
M  V30 24 C -6.429970 1.225686 0.825863 0
M  V30 25 C -3.738602 1.589256 2.066398 0
M  V30 26 C -2.488772 1.651190 2.626971 0
M  V30 27 C 1.961990 1.192867 -0.238425 0
M  V30 28 O 1.420996 1.947743 -1.064206 0
M  V30 29 C 4.625148 -5.935419 -0.137216 0
M  V30 30 C 5.931018 -6.396320 -0.126987 0
M  V30 31 C 6.148450 -7.754792 -0.064363 0
M  V30 32 C 5.088113 -8.643376 -0.012507 0
M  V30 33 C 3.762525 -8.209215 -0.021268 0
M  V30 34 C 3.588748 -6.842882 -0.084706 0
M  V30 35 H 6.125615 -3.631568 -0.275062 0
M  V30 36 H 4.178543 -2.189829 -2.497163 0
M  V30 37 H 2.828597 -0.205125 -2.549596 0
M  V30 38 H 4.204202 -1.995143 1.806259 0
M  V30 39 H 1.058276 3.434018 1.439495 0
M  V30 40 H 1.859130 2.768585 2.849140 0
M  V30 41 H -0.082593 1.857750 3.515339 0
M  V30 42 H -0.875306 2.803895 -0.005758 0
M  V30 43 H -3.015582 2.699976 -1.017190 0
M  V30 44 H -4.923123 3.128542 -1.428722 0
M  V30 45 H -5.884486 1.607940 -1.730493 0
M  V30 46 H -7.866858 2.724966 -1.389332 0
M  V30 47 H -6.904592 4.217934 -1.281612 0
M  V30 48 H -8.566464 1.751575 0.730084 0
M  V30 49 H -7.682784 2.263249 2.177925 0
M  V30 50 H -6.822143 0.500301 0.052352 0
M  V30 51 H -6.155777 0.663276 1.750479 0
M  V30 52 H -4.514597 1.229296 2.743480 0
M  V30 53 H -2.339680 1.347192 3.677639 0
M  V30 54 H 6.667252 -5.599331 -0.171592 0
M  V30 55 H 7.177952 -8.036791 -0.060347 0
M  V30 56 H 5.307771 -9.710245 0.036903 0
M  V30 57 H 2.943014 -8.913964 0.019506 0
M  V30 58 H 2.525327 -6.553458 -0.089398 0
M  V30 END ATOM
M  V30 BEGIN BOND
M  V30 1 2 1 2
M  V30 2 1 2 3
M  V30 3 1 3 4
M  V30 4 2 4 5
M  V30 5 1 5 6
M  V30 6 2 6 7
M  V30 7 1 7 8
M  V30 8 2 8 9
M  V30 9 1 8 10
M  V30 10 2 10 11
M  V30 11 1 10 12
M  V30 12 1 12 13
M  V30 13 1 13 14
M  V30 14 1 14 15
M  V30 15 2 15 16
M  V30 16 1 16 17
M  V30 17 2 17 18
M  V30 18 1 18 19
M  V30 19 1 19 20
M  V30 20 1 20 21
M  V30 21 1 21 22
M  V30 22 1 22 23
M  V30 23 1 23 24
M  V30 24 1 18 25
M  V30 25 2 25 26
M  V30 26 1 12 27
M  V30 27 2 27 28
M  V30 28 1 2 29
M  V30 29 2 29 30
M  V30 30 1 30 31
M  V30 31 2 31 32
M  V30 32 1 32 33
M  V30 33 2 33 34
M  V30 34 1 9 4
M  V30 35 1 26 15
M  V30 36 1 34 29
M  V30 37 1 27 7
M  V30 38 1 24 19
M  V30 39 1 3 35
M  V30 40 1 5 36
M  V30 41 1 6 37
M  V30 42 1 9 38
M  V30 43 1 13 39
M  V30 44 1 13 40
M  V30 45 1 14 41
M  V30 46 1 16 42
M  V30 47 1 17 43
M  V30 48 1 20 44
M  V30 49 1 20 45
M  V30 50 1 21 46
M  V30 51 1 21 47
M  V30 52 1 23 48
M  V30 53 1 23 49
M  V30 54 1 24 50
M  V30 55 1 24 51
M  V30 56 1 25 52
M  V30 57 1 26 53
M  V30 58 1 30 54
M  V30 59 1 31 55
M  V30 60 1 32 56
M  V30 61 1 33 57
M  V30 62 1 34 58
M  V30 END BOND
M  V30 END CTAB
M  END
>  <Dataset>  (195) 
ChEMBL_Kinases

>  <Ligand_Instance>  (195) 
nan

>  <PDB_ID>  (195) 
nan

>  <Standardized_SMILES>  (195) 
O=C(Nc1ccc2c(c1)C(=O)N(CNc1ccc(N3CCOCC3)cc1)C2=O)c1ccccc1

>  <Name>  (195) 
nan

>  <Pocket>  (195) 
nan

>  <ATP_Site>  (195) 
nan

>  <Peripheral>  (195) 
nan

>  <Num_H_Atoms_ProtBoundConf>  (195) 
nan

>  <Num_Resolved_Atoms>  (195) 
nan

>  <Num_Not_Resolved_Atoms>  (195) 
nan

$$$$
CHEMBL5081438
     RDKit          3D

  0  0  0  0  0  0  0  0  0  0999 V3000
M  V30 BEGIN CTAB
M  V30 COUNTS 59 62 0 0 0
M  V30 BEGIN ATOM
M  V30 1 C 8.322330 -1.657803 -0.722596 0
M  V30 2 O 7.933494 -0.551054 0.068255 0
M  V30 3 C 7.469117 0.634476 -0.485105 0
M  V30 4 O 7.518364 0.392884 -1.714731 0
M  V30 5 C 7.111080 1.676648 0.515458 0
M  V30 6 C 6.612949 2.946867 -0.137392 0
M  V30 7 C 5.379915 2.652002 -0.965363 0
M  V30 8 N 4.357791 2.124504 -0.120391 0
M  V30 9 C 3.101384 1.772859 -0.687308 0
M  V30 10 O 3.017530 1.974347 -1.942495 0
M  V30 11 C 1.993525 1.226005 0.093790 0
M  V30 12 C 2.025973 0.986666 1.452460 0
M  V30 13 C 0.945658 0.467614 2.136456 0
M  V30 14 C -0.206233 0.177321 1.441749 0
M  V30 15 C -0.261458 0.408986 0.079837 0
M  V30 16 C 0.829653 0.929290 -0.589636 0
M  V30 17 C -1.378786 0.171276 -0.830130 0
M  V30 18 O -1.323130 0.685712 -1.976719 0
M  V30 19 C -2.566319 -0.623900 -0.510679 0
M  V30 20 C -3.543569 -0.514846 -1.477820 0
M  V30 21 C -4.725542 -1.191293 -1.345455 0
M  V30 22 C -4.988631 -1.998709 -0.257947 0
M  V30 23 N -6.208221 -2.680061 -0.147171 0
M  V30 24 C -6.647629 -3.548230 0.871548 0
M  V30 25 C -7.755965 -3.350325 1.652804 0
M  V30 26 C -8.178858 -4.209859 2.650536 0
M  V30 27 C -7.388710 -5.346064 2.838192 0
M  V30 28 F -7.795157 -6.205470 3.822313 0
M  V30 29 C -6.270348 -5.577727 2.073799 0
M  V30 30 C -5.893667 -4.671185 1.079570 0
M  V30 31 F -4.770942 -5.050007 0.420421 0
M  V30 32 C -3.998669 -2.094648 0.698428 0
M  V30 33 C -2.796698 -1.424109 0.591817 0
M  V30 34 C -1.861485 -1.657052 1.724832 0
M  V30 35 C -1.290966 -0.371848 2.277151 0
M  V30 36 H 9.367780 -1.492053 -1.033917 0
M  V30 37 H 8.269196 -2.598006 -0.138633 0
M  V30 38 H 7.658128 -1.779369 -1.602528 0
M  V30 39 H 8.038878 1.858571 1.094861 0
M  V30 40 H 6.352618 1.229853 1.184962 0
M  V30 41 H 6.272893 3.614625 0.676464 0
M  V30 42 H 7.386411 3.463530 -0.703975 0
M  V30 43 H 5.721773 1.951065 -1.753751 0
M  V30 44 H 5.095016 3.582419 -1.514398 0
M  V30 45 H 4.477651 1.978396 0.906512 0
M  V30 46 H 2.923131 1.214967 1.980600 0
M  V30 47 H 0.995354 0.290478 3.192832 0
M  V30 48 H 0.771915 1.105522 -1.656172 0
M  V30 49 H -3.351971 0.112878 -2.333722 0
M  V30 50 H -5.474849 -1.093401 -2.109633 0
M  V30 51 H -6.936971 -2.582484 -0.874012 0
M  V30 52 H -8.311934 -2.435627 1.434665 0
M  V30 53 H -9.064157 -3.973095 3.215590 0
M  V30 54 H -5.730801 -6.491229 2.304984 0
M  V30 55 H -4.120737 -2.701823 1.578646 0
M  V30 56 H -1.022631 -2.288710 1.360965 0
M  V30 57 H -2.363187 -2.228451 2.535769 0
M  V30 58 H -0.922682 -0.602355 3.300091 0
M  V30 59 H -2.129734 0.346096 2.384868 0
M  V30 END ATOM
M  V30 BEGIN BOND
M  V30 1 1 1 2
M  V30 2 1 2 3
M  V30 3 2 3 4
M  V30 4 1 3 5
M  V30 5 1 5 6
M  V30 6 1 6 7
M  V30 7 1 7 8
M  V30 8 1 8 9
M  V30 9 2 9 10
M  V30 10 1 9 11
M  V30 11 2 11 12
M  V30 12 1 12 13
M  V30 13 2 13 14
M  V30 14 1 14 15
M  V30 15 2 15 16
M  V30 16 1 15 17
M  V30 17 2 17 18
M  V30 18 1 17 19
M  V30 19 2 19 20
M  V30 20 1 20 21
M  V30 21 2 21 22
M  V30 22 1 22 23
M  V30 23 1 23 24
M  V30 24 2 24 25
M  V30 25 1 25 26
M  V30 26 2 26 27
M  V30 27 1 27 28
M  V30 28 1 27 29
M  V30 29 2 29 30
M  V30 30 1 30 31
M  V30 31 1 22 32
M  V30 32 2 32 33
M  V30 33 1 33 34
M  V30 34 1 34 35
M  V30 35 1 16 11
M  V30 36 1 33 19
M  V30 37 1 35 14
M  V30 38 1 30 24
M  V30 39 1 1 36
M  V30 40 1 1 37
M  V30 41 1 1 38
M  V30 42 1 5 39
M  V30 43 1 5 40
M  V30 44 1 6 41
M  V30 45 1 6 42
M  V30 46 1 7 43
M  V30 47 1 7 44
M  V30 48 1 8 45
M  V30 49 1 12 46
M  V30 50 1 13 47
M  V30 51 1 16 48
M  V30 52 1 20 49
M  V30 53 1 21 50
M  V30 54 1 23 51
M  V30 55 1 25 52
M  V30 56 1 26 53
M  V30 57 1 29 54
M  V30 58 1 32 55
M  V30 59 1 34 56
M  V30 60 1 34 57
M  V30 61 1 35 58
M  V30 62 1 35 59
M  V30 END BOND
M  V30 END CTAB
M  END
>  <Dataset>  (196) 
ChEMBL_Kinases

>  <Ligand_Instance>  (196) 
nan

>  <PDB_ID>  (196) 
nan

>  <Standardized_SMILES>  (196) 
COC(=O)CCCNC(=O)c1ccc2c(c1)C(=O)c1ccc(Nc3ccc(F)cc3F)cc1CC2

>  <Name>  (196) 
nan

>  <Pocket>  (196) 
nan

>  <ATP_Site>  (196) 
nan

>  <Peripheral>  (196) 
nan

>  <Num_H_Atoms_ProtBoundConf>  (196) 
nan

>  <Num_Resolved_Atoms>  (196) 
nan

>  <Num_Not_Resolved_Atoms>  (196) 
nan

$$$$
CHEMBL5079143
     RDKit          3D

  0  0  0  0  0  0  0  0  0  0999 V3000
M  V30 BEGIN CTAB
M  V30 COUNTS 63 67 0 0 0
M  V30 BEGIN ATOM
M  V30 1 C 5.839724 -1.457249 0.827504 0
M  V30 2 C 5.001719 -2.421813 1.586442 0
M  V30 3 N 5.368640 -3.477570 2.366322 0
M  V30 4 N 4.286540 -4.075253 2.857832 0
M  V30 5 C 3.163470 -3.437461 2.421545 0
M  V30 6 N 1.842984 -3.690525 2.663358 0
M  V30 7 C 0.919754 -2.871350 2.083173 0
M  V30 8 C -0.520400 -3.033436 2.268535 0
M  V30 9 C -0.951942 -4.059128 3.088759 0
M  V30 10 C -2.335292 -4.193703 3.260000 0
M  V30 11 C -3.276330 -3.361327 2.656353 0
M  V30 12 N -4.641313 -3.557980 2.880624 0
M  V30 13 S -5.888101 -3.544423 1.686956 0
M  V30 14 O -7.233410 -3.830601 2.342818 0
M  V30 15 O -5.705836 -4.639640 0.676379 0
M  V30 16 C -6.023967 -2.017527 0.866812 0
M  V30 17 C -5.854390 -1.921275 -0.498471 0
M  V30 18 C -5.928703 -0.798071 -1.294375 0
M  V30 19 Cl -5.683383 -0.868259 -3.022692 0
M  V30 20 C -6.212585 0.373823 -0.603813 0
M  V30 21 C -6.396896 0.360244 0.771708 0
M  V30 22 C -6.303689 -0.826823 1.504679 0
M  V30 23 F -6.483394 -0.834322 2.844251 0
M  V30 24 C -2.792661 -2.337557 1.834862 0
M  V30 25 C -1.420070 -2.167447 1.636521 0
M  V30 26 N 1.360449 -1.863370 1.307930 0
M  V30 27 C 2.645396 -1.613535 1.070263 0
M  V30 28 O 2.978459 -0.542414 0.253026 0
M  V30 29 C 2.036167 0.301762 -0.346919 0
M  V30 30 C 2.241361 0.224408 -1.848694 0
M  V30 31 C 1.579651 1.346596 -2.565613 0
M  V30 32 N 2.001798 2.602450 -2.036105 0
M  V30 33 C 1.985715 3.664202 -2.964729 0
M  V30 34 C 2.337651 4.981011 -2.341558 0
M  V30 35 F 2.328493 5.977044 -3.334876 0
M  V30 36 F 3.527193 4.920287 -1.689283 0
M  V30 37 F 1.326193 5.325450 -1.419148 0
M  V30 38 C 1.680974 2.786540 -0.696718 0
M  V30 39 C 2.247958 1.683124 0.171351 0
M  V30 40 C 3.623708 -2.406275 1.628148 0
M  V30 41 H 6.866104 -1.493855 1.251349 0
M  V30 42 H 5.511016 -0.401075 0.978290 0
M  V30 43 H 5.821814 -1.651914 -0.253150 0
M  V30 44 H 4.228551 -4.907790 3.486474 0
M  V30 45 H -0.270219 -4.726438 3.576077 0
M  V30 46 H -2.698316 -5.000448 3.907172 0
M  V30 47 H -4.906631 -3.730443 3.896139 0
M  V30 48 H -5.631380 -2.857903 -1.021190 0
M  V30 49 H -6.286367 1.297617 -1.165663 0
M  V30 50 H -6.618891 1.269041 1.326907 0
M  V30 51 H -3.481677 -1.664224 1.342574 0
M  V30 52 H -1.034408 -1.379566 1.003210 0
M  V30 53 H 0.983942 -0.008222 -0.121490 0
M  V30 54 H 1.827644 -0.751952 -2.192833 0
M  V30 55 H 3.336408 0.253768 -2.043681 0
M  V30 56 H 0.480152 1.233567 -2.656984 0
M  V30 57 H 1.949253 1.304396 -3.632647 0
M  V30 58 H 0.957822 3.772835 -3.420252 0
M  V30 59 H 2.681593 3.489956 -3.839037 0
M  V30 60 H 2.206732 3.711514 -0.297794 0
M  V30 61 H 0.610564 2.971889 -0.461395 0
M  V30 62 H 1.789624 1.770770 1.174029 0
M  V30 63 H 3.349569 1.867301 0.291031 0
M  V30 END ATOM
M  V30 BEGIN BOND
M  V30 1 1 1 2
M  V30 2 2 2 3
M  V30 3 1 3 4
M  V30 4 1 4 5
M  V30 5 2 5 6
M  V30 6 1 6 7
M  V30 7 1 7 8
M  V30 8 2 8 9
M  V30 9 1 9 10
M  V30 10 2 10 11
M  V30 11 1 11 12
M  V30 12 1 12 13
M  V30 13 2 13 14
M  V30 14 2 13 15
M  V30 15 1 13 16
M  V30 16 2 16 17
M  V30 17 1 17 18
M  V30 18 1 18 19
M  V30 19 2 18 20
M  V30 20 1 20 21
M  V30 21 2 21 22
M  V30 22 1 22 23
M  V30 23 1 11 24
M  V30 24 2 24 25
M  V30 25 2 7 26
M  V30 26 1 26 27
M  V30 27 1 27 28
M  V30 28 1 28 29
M  V30 29 1 29 30
M  V30 30 1 30 31
M  V30 31 1 31 32
M  V30 32 1 32 33
M  V30 33 1 33 34
M  V30 34 1 34 35
M  V30 35 1 34 36
M  V30 36 1 34 37
M  V30 37 1 32 38
M  V30 38 1 38 39
M  V30 39 2 27 40
M  V30 40 1 40 2
M  V30 41 1 40 5
M  V30 42 1 25 8
M  V30 43 1 39 29
M  V30 44 1 22 16
M  V30 45 1 1 41
M  V30 46 1 1 42
M  V30 47 1 1 43
M  V30 48 1 4 44
M  V30 49 1 9 45
M  V30 50 1 10 46
M  V30 51 1 12 47
M  V30 52 1 17 48
M  V30 53 1 20 49
M  V30 54 1 21 50
M  V30 55 1 24 51
M  V30 56 1 25 52
M  V30 57 1 29 53
M  V30 58 1 30 54
M  V30 59 1 30 55
M  V30 60 1 31 56
M  V30 61 1 31 57
M  V30 62 1 33 58
M  V30 63 1 33 59
M  V30 64 1 38 60
M  V30 65 1 38 61
M  V30 66 1 39 62
M  V30 67 1 39 63
M  V30 END BOND
M  V30 END CTAB
M  END
>  <Dataset>  (197) 
ChEMBL_Kinases

>  <Ligand_Instance>  (197) 
nan

>  <PDB_ID>  (197) 
nan

>  <Standardized_SMILES>  (197) 
Cc1n[nH]c2nc(-c3ccc(NS(=O)(=O)c4cc(Cl)ccc4F)cc3)nc(OC3CCN(CC(F)(F)F)CC3)c12

>  <Name>  (197) 
nan

>  <Pocket>  (197) 
nan

>  <ATP_Site>  (197) 
nan

>  <Peripheral>  (197) 
nan

>  <Num_H_Atoms_ProtBoundConf>  (197) 
nan

>  <Num_Resolved_Atoms>  (197) 
nan

>  <Num_Not_Resolved_Atoms>  (197) 
nan

$$$$
CHEMBL5079157
     RDKit          3D

  0  0  0  0  0  0  0  0  0  0999 V3000
M  V30 BEGIN CTAB
M  V30 COUNTS 66 70 0 0 0
M  V30 BEGIN ATOM
M  V30 1 C -6.131523 0.900681 1.478583 0
M  V30 2 C -5.071922 0.109933 2.160473 0
M  V30 3 N -3.724503 0.557854 1.947518 0
M  V30 4 C -2.679783 1.112511 2.711692 0
M  V30 5 O -2.813385 1.336755 3.931194 0
M  V30 6 C -1.410457 1.435419 2.074070 0
M  V30 7 C -0.445574 1.982599 2.892383 0
M  V30 8 C 0.817719 2.333440 2.399678 0
M  V30 9 C 1.115390 2.134872 1.080262 0
M  V30 10 C 0.127002 1.585267 0.287920 0
M  V30 11 C -1.130485 1.227279 0.740409 0
M  V30 12 C 0.209534 1.276591 -1.156002 0
M  V30 13 O -0.880947 1.148007 -1.793117 0
M  V30 14 C 1.478276 1.108444 -1.903649 0
M  V30 15 C 1.215052 0.855156 -3.230717 0
M  V30 16 C 2.286154 0.671092 -4.080361 0
M  V30 17 C 3.612904 0.720013 -3.703542 0
M  V30 18 N 4.716961 0.505974 -4.559812 0
M  V30 19 C 4.948862 -0.348595 -5.658597 0
M  V30 20 C 4.096747 -1.292804 -6.180014 0
M  V30 21 C 4.335724 -2.104143 -7.262324 0
M  V30 22 C 5.552549 -1.955297 -7.886395 0
M  V30 23 F 5.893397 -2.702124 -8.965101 0
M  V30 24 C 6.453618 -1.026518 -7.414035 0
M  V30 25 C 6.140731 -0.249831 -6.323189 0
M  V30 26 F 7.114198 0.643982 -5.937338 0
M  V30 27 C 3.787574 0.978814 -2.357391 0
M  V30 28 C 2.779586 1.175675 -1.438401 0
M  V30 29 C 3.238185 1.438057 -0.048757 0
M  V30 30 C 2.477399 2.533502 0.638403 0
M  V30 31 C -5.232250 -1.385992 1.970048 0
M  V30 32 C -5.187024 -1.791728 0.531857 0
M  V30 33 C -4.455889 -3.102720 0.387497 0
M  V30 34 C -4.850564 -4.136135 1.407296 0
M  V30 35 C -4.482013 -3.619116 2.774582 0
M  V30 36 C -4.149752 -2.139451 2.733577 0
M  V30 37 H -7.107048 0.472767 1.789892 0
M  V30 38 H -6.060312 1.948431 1.835750 0
M  V30 39 H -6.120815 0.867470 0.388839 0
M  V30 40 H -5.269045 0.269035 3.264213 0
M  V30 41 H -3.674778 0.347818 0.927862 0
M  V30 42 H -0.582669 2.179505 3.954041 0
M  V30 43 H 1.570795 2.759403 3.029497 0
M  V30 44 H -1.885377 0.798982 0.098703 0
M  V30 45 H 0.189948 0.808378 -3.564468 0
M  V30 46 H 2.014633 0.493941 -5.090326 0
M  V30 47 H 5.506254 1.149798 -4.274982 0
M  V30 48 H 3.140922 -1.434411 -5.697253 0
M  V30 49 H 3.598718 -2.821535 -7.599455 0
M  V30 50 H 7.404275 -0.926315 -7.919840 0
M  V30 51 H 4.794350 1.044977 -1.925235 0
M  V30 52 H 4.295400 1.796687 -0.122941 0
M  V30 53 H 3.275953 0.536000 0.583063 0
M  V30 54 H 3.063676 2.939742 1.463492 0
M  V30 55 H 2.312773 3.342292 -0.131663 0
M  V30 56 H -6.185579 -1.752327 2.401431 0
M  V30 57 H -6.250056 -1.914853 0.165732 0
M  V30 58 H -4.651891 -1.079644 -0.135569 0
M  V30 59 H -4.610965 -3.484006 -0.655452 0
M  V30 60 H -3.361255 -2.935938 0.489242 0
M  V30 61 H -4.288407 -5.051472 1.156290 0
M  V30 62 H -5.927876 -4.399279 1.343091 0
M  V30 63 H -5.324630 -3.823249 3.472597 0
M  V30 64 H -3.572299 -4.193579 3.104902 0
M  V30 65 H -4.157855 -1.818157 3.808233 0
M  V30 66 H -3.151079 -1.990182 2.279522 0
M  V30 END ATOM
M  V30 BEGIN BOND
M  V30 1 1 1 2
M  V30 2 1 2 3
M  V30 3 1 3 4
M  V30 4 2 4 5
M  V30 5 1 4 6
M  V30 6 2 6 7
M  V30 7 1 7 8
M  V30 8 2 8 9
M  V30 9 1 9 10
M  V30 10 2 10 11
M  V30 11 1 10 12
M  V30 12 2 12 13
M  V30 13 1 12 14
M  V30 14 2 14 15
M  V30 15 1 15 16
M  V30 16 2 16 17
M  V30 17 1 17 18
M  V30 18 1 18 19
M  V30 19 2 19 20
M  V30 20 1 20 21
M  V30 21 2 21 22
M  V30 22 1 22 23
M  V30 23 1 22 24
M  V30 24 2 24 25
M  V30 25 1 25 26
M  V30 26 1 17 27
M  V30 27 2 27 28
M  V30 28 1 28 29
M  V30 29 1 29 30
M  V30 30 1 2 31
M  V30 31 1 31 32
M  V30 32 1 32 33
M  V30 33 1 33 34
M  V30 34 1 34 35
M  V30 35 1 35 36
M  V30 36 1 11 6
M  V30 37 1 28 14
M  V30 38 1 36 31
M  V30 39 1 30 9
M  V30 40 1 25 19
M  V30 41 1 1 37
M  V30 42 1 1 38
M  V30 43 1 1 39
M  V30 44 1 2 40
M  V30 45 1 3 41
M  V30 46 1 7 42
M  V30 47 1 8 43
M  V30 48 1 11 44
M  V30 49 1 15 45
M  V30 50 1 16 46
M  V30 51 1 18 47
M  V30 52 1 20 48
M  V30 53 1 21 49
M  V30 54 1 24 50
M  V30 55 1 27 51
M  V30 56 1 29 52
M  V30 57 1 29 53
M  V30 58 1 30 54
M  V30 59 1 30 55
M  V30 60 1 31 56
M  V30 61 1 32 57
M  V30 62 1 32 58
M  V30 63 1 33 59
M  V30 64 1 33 60
M  V30 65 1 34 61
M  V30 66 1 34 62
M  V30 67 1 35 63
M  V30 68 1 35 64
M  V30 69 1 36 65
M  V30 70 1 36 66
M  V30 END BOND
M  V30 END CTAB
M  END
>  <Dataset>  (198) 
ChEMBL_Kinases

>  <Ligand_Instance>  (198) 
nan

>  <PDB_ID>  (198) 
nan

>  <Standardized_SMILES>  (198) 
CC(NC(=O)c1ccc2c(c1)C(=O)c1ccc(Nc3ccc(F)cc3F)cc1CC2)C1CCCCC1

>  <Name>  (198) 
nan

>  <Pocket>  (198) 
nan

>  <ATP_Site>  (198) 
nan

>  <Peripheral>  (198) 
nan

>  <Num_H_Atoms_ProtBoundConf>  (198) 
nan

>  <Num_Resolved_Atoms>  (198) 
nan

>  <Num_Not_Resolved_Atoms>  (198) 
nan

$$$$
CHEMBL5079159
     RDKit          3D

  0  0  0  0  0  0  0  0  0  0999 V3000
M  V30 BEGIN CTAB
M  V30 COUNTS 51 54 0 0 0
M  V30 BEGIN ATOM
M  V30 1 C 3.671745 -5.674864 -0.624224 0
M  V30 2 O 3.849635 -4.500204 -1.402834 0
M  V30 3 C 3.327100 -3.275533 -1.019040 0
M  V30 4 C 2.588891 -3.120272 0.164345 0
M  V30 5 C 2.092496 -1.877552 0.496598 0
M  V30 6 C 2.285666 -0.766819 -0.281394 0
M  V30 7 C 3.008283 -0.905751 -1.446505 0
M  V30 8 C 3.520843 -2.158859 -1.801657 0
M  V30 9 N 3.063812 0.298786 -2.043952 0
M  V30 10 C 2.399529 1.196280 -1.294560 0
M  V30 11 N 2.109435 2.501179 -1.361992 0
M  V30 12 C 1.388043 3.130627 -0.414441 0
M  V30 13 N 0.912035 2.458447 0.675886 0
M  V30 14 C 1.178478 1.133826 0.792988 0
M  V30 15 N 0.652166 0.619424 1.992452 0
M  V30 16 C 1.616749 0.318945 3.032525 0
M  V30 17 C -0.774383 0.420897 2.160402 0
M  V30 18 C -1.186700 -0.977096 2.437367 0
M  V30 19 C -1.785420 -1.724640 1.282240 0
M  V30 20 C -2.515180 -0.853294 0.295538 0
M  V30 21 N -2.797759 0.450202 0.730202 0
M  V30 22 C -3.880693 0.743242 1.552862 0
M  V30 23 C -5.249974 0.586909 0.979302 0
M  V30 24 C -6.243313 0.946459 2.017504 0
M  V30 25 N -7.022759 1.223179 2.857471 0
M  V30 26 C -1.567604 1.112975 1.075736 0
M  V30 27 C 1.915049 0.526890 -0.192674 0
M  V30 28 H 4.145692 -5.568787 0.374125 0
M  V30 29 H 3.939327 -6.584756 -1.173684 0
M  V30 30 H 2.568012 -5.767014 -0.421253 0
M  V30 31 H 2.483890 -4.043829 0.718291 0
M  V30 32 H 1.560435 -1.941088 1.402756 0
M  V30 33 H 4.084114 -2.218121 -2.728393 0
M  V30 34 H 3.548289 0.532362 -2.961441 0
M  V30 35 H 1.268818 4.174291 -0.659366 0
M  V30 36 H 1.585565 1.118150 3.831598 0
M  V30 37 H 1.275952 -0.591687 3.560337 0
M  V30 38 H 2.642114 0.253870 2.659368 0
M  V30 39 H -1.064285 0.992251 3.097690 0
M  V30 40 H -0.317390 -1.552066 2.807473 0
M  V30 41 H -1.935760 -1.066754 3.279568 0
M  V30 42 H -0.971711 -2.329751 0.795943 0
M  V30 43 H -2.501754 -2.511509 1.647141 0
M  V30 44 H -1.799279 -0.738570 -0.574827 0
M  V30 45 H -3.383591 -1.390890 -0.174770 0
M  V30 46 H -3.794351 1.815711 1.859817 0
M  V30 47 H -3.820533 0.188149 2.508958 0
M  V30 48 H -5.522576 -0.404352 0.618374 0
M  V30 49 H -5.454372 1.308339 0.148723 0
M  V30 50 H -1.006310 1.196874 0.107185 0
M  V30 51 H -1.838764 2.169085 1.340902 0
M  V30 END ATOM
M  V30 BEGIN BOND
M  V30 1 1 1 2
M  V30 2 1 2 3
M  V30 3 2 3 4
M  V30 4 1 4 5
M  V30 5 2 5 6
M  V30 6 1 6 7
M  V30 7 2 7 8
M  V30 8 1 7 9
M  V30 9 1 9 10
M  V30 10 2 10 11
M  V30 11 1 11 12
M  V30 12 2 12 13
M  V30 13 1 13 14
M  V30 14 1 14 15
M  V30 15 1 15 16
M  V30 16 1 15 17
M  V30 17 1 17 18
M  V30 18 1 18 19
M  V30 19 1 19 20
M  V30 20 1 20 21
M  V30 21 1 21 22
M  V30 22 1 22 23
M  V30 23 1 23 24
M  V30 24 3 24 25
M  V30 25 1 21 26
M  V30 26 2 14 27
M  V30 27 1 8 3
M  V30 28 1 27 10
M  V30 29 1 27 6
M  V30 30 1 26 17
M  V30 31 1 1 28
M  V30 32 1 1 29
M  V30 33 1 1 30
M  V30 34 1 4 31
M  V30 35 1 5 32
M  V30 36 1 8 33
M  V30 37 1 9 34
M  V30 38 1 12 35
M  V30 39 1 16 36
M  V30 40 1 16 37
M  V30 41 1 16 38
M  V30 42 1 17 39
M  V30 43 1 18 40
M  V30 44 1 18 41
M  V30 45 1 19 42
M  V30 46 1 19 43
M  V30 47 1 20 44
M  V30 48 1 20 45
M  V30 49 1 22 46
M  V30 50 1 22 47
M  V30 51 1 23 48
M  V30 52 1 23 49
M  V30 53 1 26 50
M  V30 54 1 26 51
M  V30 END BOND
M  V30 END CTAB
M  END
>  <Dataset>  (199) 
ChEMBL_Kinases

>  <Ligand_Instance>  (199) 
nan

>  <PDB_ID>  (199) 
nan

>  <Standardized_SMILES>  (199) 
COc1ccc2c(c1)[nH]c1ncnc(N(C)C3CCCN(CCC#N)C3)c12

>  <Name>  (199) 
nan

>  <Pocket>  (199) 
nan

>  <ATP_Site>  (199) 
nan

>  <Peripheral>  (199) 
nan

>  <Num_H_Atoms_ProtBoundConf>  (199) 
nan

>  <Num_Resolved_Atoms>  (199) 
nan

>  <Num_Not_Resolved_Atoms>  (199) 
nan

$$$$
CHEMBL5079183
     RDKit          3D

  0  0  0  0  0  0  0  0  0  0999 V3000
M  V30 BEGIN CTAB
M  V30 COUNTS 53 57 0 0 0
M  V30 BEGIN ATOM
M  V30 1 O 4.559542 -0.300756 -1.658060 0
M  V30 2 C 3.521066 -0.730487 -1.153989 0
M  V30 3 N 3.615125 -1.782585 -0.205020 0
M  V30 4 C 4.824655 -2.407333 0.238947 0
M  V30 5 C 5.768957 -1.467277 0.888240 0
M  V30 6 N 5.827838 -1.116702 2.176217 0
M  V30 7 C 6.831106 -0.241322 2.373958 0
M  V30 8 C 7.424321 -0.044834 1.117273 0
M  V30 9 N 6.732399 -0.821283 0.244266 0
M  V30 10 C 2.187560 -0.192077 -1.504774 0
M  V30 11 C 1.168202 -0.003066 -0.599932 0
M  V30 12 C -0.060325 0.505501 -0.945021 0
M  V30 13 C -1.120332 0.686849 0.048863 0
M  V30 14 C -2.329252 1.211845 -0.392780 0
M  V30 15 C -3.343957 1.372940 0.529823 0
M  V30 16 C -3.243461 1.049135 1.867077 0
M  V30 17 N -4.279314 1.193206 2.854869 0
M  V30 18 S -4.542861 -0.144803 3.881321 0
M  V30 19 O -5.705158 0.211587 4.800976 0
M  V30 20 O -3.402089 -0.465797 4.787407 0
M  V30 21 C -5.044090 -1.588007 3.036103 0
M  V30 22 C -5.282623 -1.672663 1.700272 0
M  V30 23 C -5.693834 -2.840162 1.052118 0
M  V30 24 C -5.875700 -3.992624 1.797088 0
M  V30 25 C -5.633228 -3.916283 3.169281 0
M  V30 26 Cl -5.876076 -5.418106 4.073590 0
M  V30 27 C -5.228442 -2.747463 3.777682 0
M  V30 28 Cl -4.952039 -2.758020 5.521580 0
M  V30 29 C -2.012839 0.532154 2.240938 0
M  V30 30 C -0.928943 0.334832 1.368133 0
M  V30 31 N -0.240255 0.822623 -2.235680 0
M  V30 32 C 0.746639 0.649969 -3.169371 0
M  V30 33 N 0.824932 0.878367 -4.503036 0
M  V30 34 N 1.999387 0.546693 -4.978600 0
M  V30 35 C 2.754920 0.084012 -3.986735 0
M  V30 36 C 2.002262 0.133260 -2.833548 0
M  V30 37 H 2.693914 -2.117916 0.198675 0
M  V30 38 H 5.320208 -2.992688 -0.595117 0
M  V30 39 H 4.599205 -3.209250 0.996015 0
M  V30 40 H 6.929737 0.083197 3.409653 0
M  V30 41 H 8.259404 0.659891 1.185084 0
M  V30 42 H 7.081925 -0.764966 -0.734418 0
M  V30 43 H 1.437900 -0.291868 0.385052 0
M  V30 44 H -2.542476 1.509600 -1.408705 0
M  V30 45 H -4.304319 1.781340 0.215885 0
M  V30 46 H -4.699921 2.160020 2.744144 0
M  V30 47 H -5.153052 -0.791710 1.099713 0
M  V30 48 H -5.865049 -2.829343 -0.024679 0
M  V30 49 H -6.198997 -4.928310 1.339231 0
M  V30 50 H -1.803834 0.238387 3.264529 0
M  V30 51 H -0.001781 -0.071679 1.742626 0
M  V30 52 H 0.050311 1.269674 -5.093799 0
M  V30 53 H 3.788796 -0.279683 -4.035763 0
M  V30 END ATOM
M  V30 BEGIN BOND
M  V30 1 2 1 2
M  V30 2 1 2 3
M  V30 3 1 3 4
M  V30 4 1 4 5
M  V30 5 2 5 6
M  V30 6 1 6 7
M  V30 7 2 7 8
M  V30 8 1 8 9
M  V30 9 1 2 10
M  V30 10 2 10 11
M  V30 11 1 11 12
M  V30 12 1 12 13
M  V30 13 2 13 14
M  V30 14 1 14 15
M  V30 15 2 15 16
M  V30 16 1 16 17
M  V30 17 1 17 18
M  V30 18 2 18 19
M  V30 19 2 18 20
M  V30 20 1 18 21
M  V30 21 2 21 22
M  V30 22 1 22 23
M  V30 23 2 23 24
M  V30 24 1 24 25
M  V30 25 1 25 26
M  V30 26 2 25 27
M  V30 27 1 27 28
M  V30 28 1 16 29
M  V30 29 2 29 30
M  V30 30 2 12 31
M  V30 31 1 31 32
M  V30 32 1 32 33
M  V30 33 1 33 34
M  V30 34 2 34 35
M  V30 35 1 35 36
M  V30 36 1 9 5
M  V30 37 1 36 10
M  V30 38 1 30 13
M  V30 39 2 36 32
M  V30 40 1 27 21
M  V30 41 1 3 37
M  V30 42 1 4 38
M  V30 43 1 4 39
M  V30 44 1 7 40
M  V30 45 1 8 41
M  V30 46 1 9 42
M  V30 47 1 11 43
M  V30 48 1 14 44
M  V30 49 1 15 45
M  V30 50 1 17 46
M  V30 51 1 22 47
M  V30 52 1 23 48
M  V30 53 1 24 49
M  V30 54 1 29 50
M  V30 55 1 30 51
M  V30 56 1 33 52
M  V30 57 1 35 53
M  V30 END BOND
M  V30 END CTAB
M  END
>  <Dataset>  (200) 
ChEMBL_Kinases

>  <Ligand_Instance>  (200) 
nan

>  <PDB_ID>  (200) 
nan

>  <Standardized_SMILES>  (200) 
O=C(NCc1ncc[nH]1)c1cc(-c2ccc(NS(=O)(=O)c3cccc(Cl)c3Cl)cc2)nc2[nH]ncc12

>  <Name>  (200) 
nan

>  <Pocket>  (200) 
nan

>  <ATP_Site>  (200) 
nan

>  <Peripheral>  (200) 
nan

>  <Num_H_Atoms_ProtBoundConf>  (200) 
nan

>  <Num_Resolved_Atoms>  (200) 
nan

>  <Num_Not_Resolved_Atoms>  (200) 
nan

$$$$
CHEMBL5079253
     RDKit          3D

  0  0  0  0  0  0  0  0  0  0999 V3000
M  V30 BEGIN CTAB
M  V30 COUNTS 61 65 0 0 0
M  V30 BEGIN ATOM
M  V30 1 C 3.903191 -4.219415 3.665397 0
M  V30 2 O 4.610500 -3.435890 2.698342 0
M  V30 3 C 4.040424 -3.054215 1.509349 0
M  V30 4 C 4.654128 -2.297088 0.528102 0
M  V30 5 C 4.000064 -1.950021 -0.655395 0
M  V30 6 C 2.712166 -2.358014 -0.877718 0
M  V30 7 S 1.757761 -1.992771 -2.307236 0
M  V30 8 O 2.642596 -1.760099 -3.495311 0
M  V30 9 O 0.773380 -3.120357 -2.582935 0
M  V30 10 N 0.801542 -0.580340 -2.070043 0
M  V30 11 C 1.268297 0.457724 -2.940742 0
M  V30 12 C 0.491021 1.737155 -2.817009 0
M  V30 13 N 0.560143 2.296496 -1.507509 0
M  V30 14 C 0.337592 1.931463 -0.163252 0
M  V30 15 N 1.392488 1.767821 0.685707 0
M  V30 16 C 1.130385 1.394020 1.971878 0
M  V30 17 C -0.188787 1.206833 2.324418 0
M  V30 18 C -1.261700 1.369946 1.472998 0
M  V30 19 C -2.518757 1.086674 2.147048 0
M  V30 20 C -3.043666 -0.149263 1.888748 0
M  V30 21 C -2.730260 -1.342077 1.105003 0
M  V30 22 C -2.439277 -2.496334 1.794794 0
M  V30 23 C -2.125483 -3.714369 1.209901 0
M  V30 24 C -2.116566 -3.721849 -0.170217 0
M  V30 25 C -2.406241 -2.573526 -0.860562 0
M  V30 26 O -2.365917 -2.706048 -2.255687 0
M  V30 27 C -2.643014 -1.595624 -3.094745 0
M  V30 28 C -2.721356 -1.349510 -0.292487 0
M  V30 29 N -4.198180 -0.230341 2.600114 0
M  V30 30 C -4.349354 0.897707 3.246095 0
M  V30 31 S -5.380757 1.927623 4.415960 0
M  V30 32 C -4.275070 3.370718 4.395475 0
M  V30 33 C -3.264810 2.966613 3.543738 0
M  V30 34 N -3.316084 1.757653 2.991194 0
M  V30 35 N -0.938808 1.744765 0.199069 0
M  V30 36 C 2.038361 -3.119003 0.064749 0
M  V30 37 C 2.740651 -3.434621 1.225734 0
M  V30 38 H 3.788954 -5.258774 3.346642 0
M  V30 39 H 4.488762 -4.226221 4.621573 0
M  V30 40 H 2.924886 -3.727997 3.890408 0
M  V30 41 H 5.659155 -1.975592 0.698627 0
M  V30 42 H 4.455849 -1.367176 -1.421811 0
M  V30 43 H 0.758734 -0.282265 -1.090240 0
M  V30 44 H 1.168817 0.111863 -4.004010 0
M  V30 45 H 2.332628 0.656122 -2.708307 0
M  V30 46 H -0.582375 1.590960 -3.056125 0
M  V30 47 H 0.939395 2.432516 -3.568935 0
M  V30 48 H 0.859358 3.290534 -1.398544 0
M  V30 49 H 1.987512 1.275161 2.610198 0
M  V30 50 H -0.237587 0.910166 3.385580 0
M  V30 51 H -2.428084 -2.551690 2.896992 0
M  V30 52 H -1.899628 -4.606388 1.774622 0
M  V30 53 H -1.878932 -4.655325 -0.668348 0
M  V30 54 H -3.520838 -1.044232 -2.703388 0
M  V30 55 H -1.732408 -0.958710 -3.172446 0
M  V30 56 H -2.899620 -1.928185 -4.124682 0
M  V30 57 H -2.941410 -0.472351 -0.839055 0
M  V30 58 H -4.557941 4.183594 4.971432 0
M  V30 59 H -2.534010 3.748885 3.451286 0
M  V30 60 H 1.021934 -3.487350 -0.024938 0
M  V30 61 H 2.228429 -4.030596 1.975932 0
M  V30 END ATOM
M  V30 BEGIN BOND
M  V30 1 1 1 2
M  V30 2 1 2 3
M  V30 3 2 3 4
M  V30 4 1 4 5
M  V30 5 2 5 6
M  V30 6 1 6 7
M  V30 7 2 7 8
M  V30 8 2 7 9
M  V30 9 1 7 10
M  V30 10 1 10 11
M  V30 11 1 11 12
M  V30 12 1 12 13
M  V30 13 1 13 14
M  V30 14 2 14 15
M  V30 15 1 15 16
M  V30 16 2 16 17
M  V30 17 1 17 18
M  V30 18 1 18 19
M  V30 19 2 19 20
M  V30 20 1 20 21
M  V30 21 2 21 22
M  V30 22 1 22 23
M  V30 23 2 23 24
M  V30 24 1 24 25
M  V30 25 1 25 26
M  V30 26 1 26 27
M  V30 27 2 25 28
M  V30 28 1 20 29
M  V30 29 2 29 30
M  V30 30 1 30 31
M  V30 31 1 31 32
M  V30 32 2 32 33
M  V30 33 1 33 34
M  V30 34 2 18 35
M  V30 35 1 6 36
M  V30 36 2 36 37
M  V30 37 1 37 3
M  V30 38 1 35 14
M  V30 39 1 34 19
M  V30 40 1 28 21
M  V30 41 1 34 30
M  V30 42 1 1 38
M  V30 43 1 1 39
M  V30 44 1 1 40
M  V30 45 1 4 41
M  V30 46 1 5 42
M  V30 47 1 10 43
M  V30 48 1 11 44
M  V30 49 1 11 45
M  V30 50 1 12 46
M  V30 51 1 12 47
M  V30 52 1 13 48
M  V30 53 1 16 49
M  V30 54 1 17 50
M  V30 55 1 22 51
M  V30 56 1 23 52
M  V30 57 1 24 53
M  V30 58 1 27 54
M  V30 59 1 27 55
M  V30 60 1 27 56
M  V30 61 1 28 57
M  V30 62 1 32 58
M  V30 63 1 33 59
M  V30 64 1 36 60
M  V30 65 1 37 61
M  V30 END BOND
M  V30 END CTAB
M  END
>  <Dataset>  (201) 
ChEMBL_Kinases

>  <Ligand_Instance>  (201) 
nan

>  <PDB_ID>  (201) 
nan

>  <Standardized_SMILES>  (201) 
COc1ccc(S(=O)(=O)NCCNc2nccc(-c3c(-c4cccc(OC)c4)nc4sccn34)n2)cc1

>  <Name>  (201) 
nan

>  <Pocket>  (201) 
nan

>  <ATP_Site>  (201) 
nan

>  <Peripheral>  (201) 
nan

>  <Num_H_Atoms_ProtBoundConf>  (201) 
nan

>  <Num_Resolved_Atoms>  (201) 
nan

>  <Num_Not_Resolved_Atoms>  (201) 
nan

$$$$
CHEMBL5079394
     RDKit          3D

  0  0  0  0  0  0  0  0  0  0999 V3000
M  V30 BEGIN CTAB
M  V30 COUNTS 94 99 0 0 0
M  V30 BEGIN ATOM
M  V30 1 N 0.681252 -1.419516 7.341951 0
M  V30 2 C 1.417187 -0.395081 6.693633 0
M  V30 3 C 2.149002 -0.531418 5.545552 0
M  V30 4 C 2.334600 -1.715506 4.727553 0
M  V30 5 O 1.806054 -2.821437 4.998825 0
M  V30 6 N 3.143972 -1.639875 3.565168 0
M  V30 7 C 3.500079 -2.630045 2.570240 0
M  V30 8 C 2.398709 -2.874371 1.589464 0
M  V30 9 C 1.456345 -3.863994 1.556772 0
M  V30 10 C 0.485983 -3.942776 0.581786 0
M  V30 11 C 0.416298 -3.017591 -0.419422 0
M  V30 12 C -0.576953 -3.116162 -1.473104 0
M  V30 13 O -1.129305 -4.214247 -1.693477 0
M  V30 14 N -0.940086 -2.000214 -2.260458 0
M  V30 15 C -1.792442 -1.644833 -3.342033 0 CFG=1
M  V30 16 C -3.022736 -0.885586 -2.891400 0
M  V30 17 C -3.880865 -1.680590 -1.947174 0
M  V30 18 C -4.403213 -2.955161 -2.532081 0
M  V30 19 C -5.254518 -3.695969 -1.543065 0
M  V30 20 C -6.410343 -2.846770 -1.155592 0
M  V30 21 C -7.173795 -2.205685 -2.259711 0
M  V30 22 C -6.501060 -1.997837 -3.553335 0
M  V30 23 C -5.229078 -2.744955 -3.774435 0
M  V30 24 C -1.126844 -0.785543 -4.351067 0
M  V30 25 O -1.881907 -0.436238 -5.293696 0
M  V30 26 N 0.238085 -0.406709 -4.236577 0
M  V30 27 C 0.955586 0.430808 -5.157799 0
M  V30 28 C 2.066647 -0.384843 -5.782577 0
M  V30 29 C 3.003722 0.464094 -6.567516 0
M  V30 30 C 2.833034 1.929629 -6.481279 0
M  V30 31 N 2.211338 2.483459 -5.340874 0
M  V30 32 C 2.854329 3.607635 -4.757651 0
M  V30 33 C 2.160999 4.219799 -3.554437 0
M  V30 34 O 2.987990 3.499861 -2.690818 0
M  V30 35 C 3.926231 3.317865 -3.734012 0
M  V30 36 C 1.657166 1.548231 -4.415089 0
M  V30 37 C 1.359806 -2.014609 -0.396699 0
M  V30 38 C 2.349499 -1.912515 0.574026 0
M  V30 39 C 2.663068 0.730244 5.326213 0
M  V30 40 N 2.219482 1.512866 6.323166 0
M  V30 41 N 1.456857 0.842753 7.166932 0
M  V30 42 C 0.901564 1.531448 8.274347 0
M  V30 43 C 0.055119 2.584052 7.898454 0
M  V30 44 C -0.614322 3.410961 8.788630 0
M  V30 45 C -0.432274 3.178956 10.134702 0
M  V30 46 C 0.402830 2.140158 10.531442 0
M  V30 47 C 1.057883 1.330510 9.641111 0
M  V30 48 H 0.066479 -2.032884 6.763310 0
M  V30 49 H 0.685179 -1.638097 8.383580 0
M  V30 50 H 3.563768 -0.676544 3.388681 0
M  V30 51 H 3.708795 -3.598896 3.093460 0
M  V30 52 H 4.385750 -2.303033 2.020637 0
M  V30 53 H 1.542161 -4.571894 2.362491 0
M  V30 54 H -0.219900 -4.744110 0.613464 0
M  V30 55 H -0.458353 -1.112885 -1.987616 0
M  V30 56 H -2.214492 -2.553260 -3.870467 0
M  V30 57 H -3.607830 -0.576589 -3.754485 0
M  V30 58 H -2.692504 0.022259 -2.351530 0
M  V30 59 H -3.409522 -1.906421 -0.985397 0
M  V30 60 H -4.773585 -1.037511 -1.720413 0
M  V30 61 H -3.561580 -3.620181 -2.804658 0
M  V30 62 H -4.670544 -3.899979 -0.609526 0
M  V30 63 H -5.608022 -4.653961 -2.000082 0
M  V30 64 H -7.083123 -3.523064 -0.537101 0
M  V30 65 H -6.047350 -2.114950 -0.402440 0
M  V30 66 H -8.092079 -2.824317 -2.435434 0
M  V30 67 H -7.600781 -1.236778 -1.877381 0
M  V30 68 H -6.286825 -0.916573 -3.685916 0
M  V30 69 H -7.193790 -2.231667 -4.415449 0
M  V30 70 H -5.422137 -3.756081 -4.202899 0
M  V30 71 H -4.566032 -2.232317 -4.507982 0
M  V30 72 H 0.858914 -0.715969 -3.453049 0
M  V30 73 H 0.304636 0.809319 -5.985058 0
M  V30 74 H 1.644240 -1.232034 -6.389770 0
M  V30 75 H 2.623920 -0.848304 -4.921800 0
M  V30 76 H 4.048737 0.112441 -6.378013 0
M  V30 77 H 2.843302 0.180680 -7.651552 0
M  V30 78 H 3.865505 2.386161 -6.539512 0
M  V30 79 H 2.329567 2.343436 -7.397570 0
M  V30 80 H 3.080762 4.422292 -5.478261 0
M  V30 81 H 2.371901 5.313901 -3.413483 0
M  V30 82 H 1.086978 4.056992 -3.470120 0
M  V30 83 H 4.330276 2.308471 -3.687279 0
M  V30 84 H 4.723029 4.061709 -3.735794 0
M  V30 85 H 0.963810 2.067187 -3.727880 0
M  V30 86 H 2.488565 1.042831 -3.851376 0
M  V30 87 H 1.373961 -1.239115 -1.158724 0
M  V30 88 H 3.064458 -1.078710 0.514223 0
M  V30 89 H 3.312834 1.008094 4.484370 0
M  V30 90 H -0.139623 2.835538 6.866747 0
M  V30 91 H -1.256143 4.210229 8.475851 0
M  V30 92 H -0.909400 3.767820 10.922881 0
M  V30 93 H 0.567085 1.922699 11.583648 0
M  V30 94 H 1.716278 0.511873 9.851094 0
M  V30 END ATOM
M  V30 BEGIN BOND
M  V30 1 1 1 2
M  V30 2 2 2 3
M  V30 3 1 3 4
M  V30 4 2 4 5
M  V30 5 1 4 6
M  V30 6 1 6 7
M  V30 7 1 7 8
M  V30 8 2 8 9
M  V30 9 1 9 10
M  V30 10 2 10 11
M  V30 11 1 11 12
M  V30 12 2 12 13
M  V30 13 1 12 14
M  V30 14 1 14 15
M  V30 15 1 15 16
M  V30 16 1 16 17
M  V30 17 1 17 18
M  V30 18 1 18 19
M  V30 19 1 19 20
M  V30 20 1 20 21
M  V30 21 1 21 22
M  V30 22 1 22 23
M  V30 23 1 15 24
M  V30 24 2 24 25
M  V30 25 1 24 26
M  V30 26 1 26 27
M  V30 27 1 27 28
M  V30 28 1 28 29
M  V30 29 1 29 30
M  V30 30 1 30 31
M  V30 31 1 31 32
M  V30 32 1 32 33
M  V30 33 1 33 34
M  V30 34 1 34 35
M  V30 35 1 31 36
M  V30 36 1 11 37
M  V30 37 2 37 38
M  V30 38 1 3 39
M  V30 39 2 39 40
M  V30 40 1 40 41
M  V30 41 1 41 42
M  V30 42 2 42 43
M  V30 43 1 43 44
M  V30 44 2 44 45
M  V30 45 1 45 46
M  V30 46 2 46 47
M  V30 47 1 41 2
M  V30 48 1 47 42
M  V30 49 1 38 8
M  V30 50 1 23 18
M  V30 51 1 36 27
M  V30 52 1 35 32
M  V30 53 1 1 48
M  V30 54 1 1 49
M  V30 55 1 6 50
M  V30 56 1 7 51
M  V30 57 1 7 52
M  V30 58 1 9 53
M  V30 59 1 10 54
M  V30 60 1 14 55
M  V30 61 1 15 56 CFG=3
M  V30 62 1 16 57
M  V30 63 1 16 58
M  V30 64 1 17 59
M  V30 65 1 17 60
M  V30 66 1 18 61
M  V30 67 1 19 62
M  V30 68 1 19 63
M  V30 69 1 20 64
M  V30 70 1 20 65
M  V30 71 1 21 66
M  V30 72 1 21 67
M  V30 73 1 22 68
M  V30 74 1 22 69
M  V30 75 1 23 70
M  V30 76 1 23 71
M  V30 77 1 26 72
M  V30 78 1 27 73
M  V30 79 1 28 74
M  V30 80 1 28 75
M  V30 81 1 29 76
M  V30 82 1 29 77
M  V30 83 1 30 78
M  V30 84 1 30 79
M  V30 85 1 32 80
M  V30 86 1 33 81
M  V30 87 1 33 82
M  V30 88 1 35 83
M  V30 89 1 35 84
M  V30 90 1 36 85
M  V30 91 1 36 86
M  V30 92 1 37 87
M  V30 93 1 38 88
M  V30 94 1 39 89
M  V30 95 1 43 90
M  V30 96 1 44 91
M  V30 97 1 45 92
M  V30 98 1 46 93
M  V30 99 1 47 94
M  V30 END BOND
M  V30 END CTAB
M  END
>  <Dataset>  (202) 
ChEMBL_Kinases

>  <Ligand_Instance>  (202) 
nan

>  <PDB_ID>  (202) 
nan

>  <Standardized_SMILES>  (202) 
Nc1c(C(=O)NCc2ccc(C(=O)N[C@@H](CCC3CCCCC3)C(=O)NC3CCCN(C4COC4)C3)cc2)cnn1-c1ccccc1

>  <Name>  (202) 
nan

>  <Pocket>  (202) 
nan

>  <ATP_Site>  (202) 
nan

>  <Peripheral>  (202) 
nan

>  <Num_H_Atoms_ProtBoundConf>  (202) 
nan

>  <Num_Resolved_Atoms>  (202) 
nan

>  <Num_Not_Resolved_Atoms>  (202) 
nan

$$$$
CHEMBL5079401
     RDKit          3D

  0  0  0  0  0  0  0  0  0  0999 V3000
M  V30 BEGIN CTAB
M  V30 COUNTS 56 59 0 0 0
M  V30 BEGIN ATOM
M  V30 1 C 4.468508 -1.939953 3.488983 0
M  V30 2 N 5.288538 -0.926417 2.862323 0
M  V30 3 C 6.703705 -1.166202 3.173194 0
M  V30 4 C 4.999631 0.191434 2.052800 0
M  V30 5 O 6.058140 0.801788 1.727686 0
M  V30 6 C 3.839124 0.846108 1.483315 0
M  V30 7 C 4.046635 1.951217 0.710192 0
M  V30 8 N 5.323181 2.503085 0.422767 0
M  V30 9 C 2.985315 2.650881 0.119533 0
M  V30 10 C 1.699837 2.211852 0.324613 0
M  V30 11 C 1.428373 1.102585 1.095305 0
M  V30 12 C 0.055002 0.645836 1.305599 0
M  V30 13 C -0.688413 1.116599 2.372430 0
M  V30 14 N -1.950391 0.673022 2.534231 0
M  V30 15 C -2.492834 -0.228582 1.660284 0
M  V30 16 C -1.798868 -0.749724 0.555946 0
M  V30 17 C -0.510596 -0.264936 0.433231 0
M  V30 18 Cl 0.442310 -0.838551 -0.894965 0
M  V30 19 C -2.706964 -1.684247 -0.144865 0 CFG=2
M  V30 20 C -2.046531 -2.804391 -0.869124 0
M  V30 21 C -3.261169 -3.415185 -1.587114 0
M  V30 22 C -4.092178 -2.204761 -1.999585 0 CFG=1
M  V30 23 C -3.908770 -1.933749 -3.493552 0
M  V30 24 C -5.529812 -2.373852 -1.738945 0
M  V30 25 N -6.209668 -1.202901 -2.153809 0
M  V30 26 O -6.279865 -3.270711 -1.255126 0
M  V30 27 C -3.572874 -1.041588 -1.183263 0
M  V30 28 C -3.571065 -2.139054 1.007754 0
M  V30 29 N -3.807031 -0.830786 1.642993 0
M  V30 30 C 2.533733 0.483025 1.632426 0
M  V30 31 F 2.208987 -0.594237 2.378276 0
M  V30 32 H 3.768079 -1.548241 4.248319 0
M  V30 33 H 3.929283 -2.530149 2.707662 0
M  V30 34 H 5.117248 -2.700262 4.014819 0
M  V30 35 H 6.844374 -1.108040 4.272895 0
M  V30 36 H 7.375533 -0.475256 2.650213 0
M  V30 37 H 6.937478 -2.222308 2.874696 0
M  V30 38 H 5.664636 3.070930 1.253748 0
M  V30 39 H 5.737466 2.291906 -0.513714 0
M  V30 40 H 3.150206 3.517858 -0.486840 0
M  V30 41 H 0.902227 2.761731 -0.136532 0
M  V30 42 H -0.293034 1.829231 3.083103 0
M  V30 43 H -1.537863 -3.539188 -0.244688 0
M  V30 44 H -1.427079 -2.374093 -1.675240 0
M  V30 45 H -2.972441 -4.032653 -2.448337 0
M  V30 46 H -3.886034 -3.983601 -0.870040 0
M  V30 47 H -2.986845 -2.401970 -3.884738 0
M  V30 48 H -3.816425 -0.818518 -3.625699 0
M  V30 49 H -4.749692 -2.322165 -4.092868 0
M  V30 50 H -6.362942 -0.446232 -2.849503 0
M  V30 51 H -6.975104 -0.659555 -1.673697 0
M  V30 52 H -4.408383 -0.473506 -0.705866 0
M  V30 53 H -2.961319 -0.374367 -1.836497 0
M  V30 54 H -2.912659 -2.769298 1.661153 0
M  V30 55 H -4.481654 -2.659363 0.732815 0
M  V30 56 H -4.685542 -0.406363 2.004148 0
M  V30 END ATOM
M  V30 BEGIN BOND
M  V30 1 1 1 2
M  V30 2 1 2 3
M  V30 3 1 2 4
M  V30 4 2 4 5
M  V30 5 1 4 6
M  V30 6 2 6 7
M  V30 7 1 7 8
M  V30 8 1 7 9
M  V30 9 2 9 10
M  V30 10 1 10 11
M  V30 11 1 11 12
M  V30 12 2 12 13
M  V30 13 1 13 14
M  V30 14 2 14 15
M  V30 15 1 15 16
M  V30 16 2 16 17
M  V30 17 1 17 18
M  V30 18 1 16 19
M  V30 19 1 19 20 CFG=3
M  V30 20 1 20 21
M  V30 21 1 21 22
M  V30 22 1 22 23 CFG=3
M  V30 23 1 22 24
M  V30 24 1 24 25
M  V30 25 2 24 26
M  V30 26 1 22 27
M  V30 27 1 19 28
M  V30 28 1 28 29
M  V30 29 2 11 30
M  V30 30 1 30 31
M  V30 31 1 30 6
M  V30 32 1 17 12
M  V30 33 1 27 19
M  V30 34 1 29 15
M  V30 35 1 1 32
M  V30 36 1 1 33
M  V30 37 1 1 34
M  V30 38 1 3 35
M  V30 39 1 3 36
M  V30 40 1 3 37
M  V30 41 1 8 38
M  V30 42 1 8 39
M  V30 43 1 9 40
M  V30 44 1 10 41
M  V30 45 1 13 42
M  V30 46 1 20 43
M  V30 47 1 20 44
M  V30 48 1 21 45
M  V30 49 1 21 46
M  V30 50 1 23 47
M  V30 51 1 23 48
M  V30 52 1 23 49
M  V30 53 1 25 50
M  V30 54 1 25 51
M  V30 55 1 27 52
M  V30 56 1 27 53
M  V30 57 1 28 54
M  V30 58 1 28 55
M  V30 59 1 29 56
M  V30 END BOND
M  V30 END CTAB
M  END
>  <Dataset>  (203) 
ChEMBL_Kinases

>  <Ligand_Instance>  (203) 
nan

>  <PDB_ID>  (203) 
nan

>  <Standardized_SMILES>  (203) 
CN(C)C(=O)c1c(N)ccc(-c2cnc3c(c2Cl)[C@@]2(CC[C@@](C)(C(N)=O)C2)CN3)c1F

>  <Name>  (203) 
nan

>  <Pocket>  (203) 
nan

>  <ATP_Site>  (203) 
nan

>  <Peripheral>  (203) 
nan

>  <Num_H_Atoms_ProtBoundConf>  (203) 
nan

>  <Num_Resolved_Atoms>  (203) 
nan

>  <Num_Not_Resolved_Atoms>  (203) 
nan

$$$$
CHEMBL5079413
     RDKit          3D

  0  0  0  0  0  0  0  0  0  0999 V3000
M  V30 BEGIN CTAB
M  V30 COUNTS 56 60 0 0 0
M  V30 BEGIN ATOM
M  V30 1 C 1.801603 -0.198307 4.859853 0
M  V30 2 N 1.502965 -1.088363 3.783043 0
M  V30 3 C 2.628201 -1.829099 3.277532 0
M  V30 4 C 2.895264 -1.568236 1.818045 0
M  V30 5 C 2.840827 -0.125164 1.456983 0
M  V30 6 N 1.484940 0.372236 1.331063 0
M  V30 7 C 1.518502 1.788228 1.472562 0
M  V30 8 C 0.514326 2.570799 0.696826 0
M  V30 9 N 0.598752 2.420184 -0.731092 0
M  V30 10 C 0.386897 1.225857 -1.477209 0
M  V30 11 N 0.567693 1.235935 -2.803136 0
M  V30 12 C 0.395770 0.191747 -3.623799 0
M  V30 13 C -0.006168 -1.004232 -3.038691 0
M  V30 14 C -0.189965 -1.011251 -1.686327 0
M  V30 15 C -0.612212 -2.311118 -1.184720 0
M  V30 16 C -1.907551 -2.371898 -0.731778 0
M  V30 17 C -3.057788 -1.497795 -0.594654 0
M  V30 18 C -4.234906 -1.808766 -1.285900 0
M  V30 19 C -5.411830 -1.089578 -1.267425 0
M  V30 20 C -5.381580 0.040014 -0.477031 0
M  V30 21 C -4.271105 0.432575 0.243455 0
M  V30 22 O -4.292230 1.579788 1.025103 0
M  V30 23 C -3.141470 -0.350321 0.161895 0
M  V30 24 N -2.145084 -3.617914 -0.302016 0
M  V30 25 C -0.986460 -4.342118 -0.488835 0
M  V30 26 S -0.095568 -5.940542 -0.340122 0
M  V30 27 C 1.516311 -5.257176 -1.074524 0
M  V30 28 C 1.180404 -3.912860 -1.338751 0
M  V30 29 N -0.051303 -3.520165 -1.034315 0
M  V30 30 N 0.003574 0.081403 -0.926655 0
M  V30 31 S 0.534412 -0.403466 2.541998 0
M  V30 32 O -0.411322 0.557447 3.205451 0
M  V30 33 O -0.263076 -1.513338 1.929945 0
M  V30 34 H 2.136172 -0.818770 5.737717 0
M  V30 35 H 2.560024 0.569038 4.641579 0
M  V30 36 H 0.847054 0.250686 5.188826 0
M  V30 37 H 2.427340 -2.910533 3.398169 0
M  V30 38 H 3.528521 -1.591383 3.876820 0
M  V30 39 H 3.938486 -1.913911 1.599484 0
M  V30 40 H 2.231740 -2.183486 1.190526 0
M  V30 41 H 3.305284 0.473479 2.283074 0
M  V30 42 H 3.445700 0.101151 0.554714 0
M  V30 43 H 1.345013 2.006951 2.557116 0
M  V30 44 H 2.537731 2.144816 1.160959 0
M  V30 45 H -0.531945 2.353740 1.023892 0
M  V30 46 H 0.666954 3.636888 0.964675 0
M  V30 47 H 0.845910 3.295023 -1.291112 0
M  V30 48 H 0.561052 0.271993 -4.692651 0
M  V30 49 H -0.144752 -1.854042 -3.714932 0
M  V30 50 H -4.224517 -2.713493 -1.905294 0
M  V30 51 H -6.251776 -1.430365 -1.842641 0
M  V30 52 H -6.283557 0.642289 -0.428074 0
M  V30 53 H -4.396457 2.517133 0.663344 0
M  V30 54 H -2.254581 -0.072275 0.713163 0
M  V30 55 H 2.388772 -5.893809 -1.189263 0
M  V30 56 H 2.034515 -3.421489 -1.764025 0
M  V30 END ATOM
M  V30 BEGIN BOND
M  V30 1 1 1 2
M  V30 2 1 2 3
M  V30 3 1 3 4
M  V30 4 1 4 5
M  V30 5 1 5 6
M  V30 6 1 6 7
M  V30 7 1 7 8
M  V30 8 1 8 9
M  V30 9 1 9 10
M  V30 10 2 10 11
M  V30 11 1 11 12
M  V30 12 2 12 13
M  V30 13 1 13 14
M  V30 14 1 14 15
M  V30 15 2 15 16
M  V30 16 1 16 17
M  V30 17 2 17 18
M  V30 18 1 18 19
M  V30 19 2 19 20
M  V30 20 1 20 21
M  V30 21 1 21 22
M  V30 22 2 21 23
M  V30 23 1 16 24
M  V30 24 2 24 25
M  V30 25 1 25 26
M  V30 26 1 26 27
M  V30 27 2 27 28
M  V30 28 1 28 29
M  V30 29 2 14 30
M  V30 30 1 6 31
M  V30 31 2 31 32
M  V30 32 2 31 33
M  V30 33 1 31 2
M  V30 34 1 30 10
M  V30 35 1 29 15
M  V30 36 1 23 17
M  V30 37 1 29 25
M  V30 38 1 1 34
M  V30 39 1 1 35
M  V30 40 1 1 36
M  V30 41 1 3 37
M  V30 42 1 3 38
M  V30 43 1 4 39
M  V30 44 1 4 40
M  V30 45 1 5 41
M  V30 46 1 5 42
M  V30 47 1 7 43
M  V30 48 1 7 44
M  V30 49 1 8 45
M  V30 50 1 8 46
M  V30 51 1 9 47
M  V30 52 1 12 48
M  V30 53 1 13 49
M  V30 54 1 18 50
M  V30 55 1 19 51
M  V30 56 1 20 52
M  V30 57 1 22 53
M  V30 58 1 23 54
M  V30 59 1 27 55
M  V30 60 1 28 56
M  V30 END BOND
M  V30 END CTAB
M  END
>  <Dataset>  (204) 
ChEMBL_Kinases

>  <Ligand_Instance>  (204) 
nan

>  <PDB_ID>  (204) 
nan

>  <Standardized_SMILES>  (204) 
CN1CCCN(CCNc2nccc(-c3c(-c4cccc(O)c4)nc4sccn34)n2)S1(=O)=O

>  <Name>  (204) 
nan

>  <Pocket>  (204) 
nan

>  <ATP_Site>  (204) 
nan

>  <Peripheral>  (204) 
nan

>  <Num_H_Atoms_ProtBoundConf>  (204) 
nan

>  <Num_Resolved_Atoms>  (204) 
nan

>  <Num_Not_Resolved_Atoms>  (204) 
nan

$$$$
CHEMBL5079451
     RDKit          3D

  0  0  0  0  0  0  0  0  0  0999 V3000
M  V30 BEGIN CTAB
M  V30 COUNTS 46 47 0 0 0
M  V30 BEGIN ATOM
M  V30 1 C 1.076338 -3.538606 4.249229 0
M  V30 2 C 1.800008 -2.224094 4.429275 0
M  V30 3 C 0.902295 -1.326419 5.233579 0
M  V30 4 C 2.124227 -1.619693 3.070847 0
M  V30 5 C 2.986699 -2.500423 2.252128 0 CFG=2
M  V30 6 N 4.261360 -2.796821 2.897366 0
M  V30 7 C 3.317135 -2.035748 0.870253 0
M  V30 8 O 2.349035 -1.666106 0.010699 0
M  V30 9 C 1.394792 -0.752497 -0.165993 0
M  V30 10 C 0.907184 0.353212 0.489072 0
M  V30 11 C -0.123609 1.172491 0.096153 0
M  V30 12 C -0.719860 0.824267 -1.094564 0
M  V30 13 C -1.815673 1.697260 -1.509739 0
M  V30 14 C -1.770651 3.036041 -1.173425 0
M  V30 15 C -2.769314 3.905456 -1.533236 0
M  V30 16 N -3.792905 3.395083 -2.227420 0
M  V30 17 C -3.891601 2.103116 -2.583092 0
M  V30 18 C -5.094895 1.672624 -3.359791 0
M  V30 19 F -6.250081 1.829972 -2.622995 0
M  V30 20 F -5.158700 2.342660 -4.568914 0
M  V30 21 F -4.954836 0.323010 -3.607880 0
M  V30 22 C -2.886808 1.196064 -2.228677 0
M  V30 23 C -0.333821 -0.256815 -1.855249 0
M  V30 24 C 0.729277 -1.038605 -1.375746 0
M  V30 25 C 1.034396 -2.142437 -2.267868 0
M  V30 26 N 1.296836 -3.019995 -2.972563 0
M  V30 27 H 0.434630 -3.533115 3.340731 0
M  V30 28 H 1.829333 -4.352964 4.248148 0
M  V30 29 H 0.443385 -3.701066 5.148357 0
M  V30 30 H 2.708128 -2.424489 5.033546 0
M  V30 31 H -0.160370 -1.372295 4.928978 0
M  V30 32 H 1.324641 -0.309213 5.247444 0
M  V30 33 H 0.931850 -1.694344 6.299512 0
M  V30 34 H 2.484862 -0.603323 3.227533 0
M  V30 35 H 1.113148 -1.531876 2.567560 0
M  V30 36 H 2.506733 -3.515580 2.123864 0
M  V30 37 H 4.725905 -1.950889 3.283665 0
M  V30 38 H 4.237642 -3.605815 3.530002 0
M  V30 39 H 3.990786 -2.863777 0.438285 0
M  V30 40 H 4.078323 -1.180027 1.006843 0
M  V30 41 H 1.440597 0.543932 1.391937 0
M  V30 42 H -0.365584 1.995611 0.743914 0
M  V30 43 H -0.931759 3.434099 -0.609435 0
M  V30 44 H -2.685717 4.948749 -1.243645 0
M  V30 45 H -2.961270 0.159937 -2.511278 0
M  V30 46 H -0.873797 -0.423023 -2.759511 0
M  V30 END ATOM
M  V30 BEGIN BOND
M  V30 1 1 1 2
M  V30 2 1 2 3
M  V30 3 1 2 4
M  V30 4 1 4 5
M  V30 5 1 5 6
M  V30 6 1 5 7
M  V30 7 1 7 8
M  V30 8 1 8 9
M  V30 9 2 9 10
M  V30 10 1 10 11
M  V30 11 2 11 12
M  V30 12 1 12 13
M  V30 13 2 13 14
M  V30 14 1 14 15
M  V30 15 2 15 16
M  V30 16 1 16 17
M  V30 17 1 17 18
M  V30 18 1 18 19
M  V30 19 1 18 20
M  V30 20 1 18 21
M  V30 21 2 17 22
M  V30 22 1 12 23
M  V30 23 2 23 24
M  V30 24 1 24 25
M  V30 25 3 25 26
M  V30 26 1 24 9
M  V30 27 1 22 13
M  V30 28 1 1 27
M  V30 29 1 1 28
M  V30 30 1 1 29
M  V30 31 1 2 30
M  V30 32 1 3 31
M  V30 33 1 3 32
M  V30 34 1 3 33
M  V30 35 1 4 34
M  V30 36 1 4 35
M  V30 37 1 5 36 CFG=3
M  V30 38 1 6 37
M  V30 39 1 6 38
M  V30 40 1 7 39
M  V30 41 1 7 40
M  V30 42 1 10 41
M  V30 43 1 11 42
M  V30 44 1 14 43
M  V30 45 1 15 44
M  V30 46 1 22 45
M  V30 47 1 23 46
M  V30 END BOND
M  V30 END CTAB
M  END
>  <Dataset>  (205) 
ChEMBL_Kinases

>  <Ligand_Instance>  (205) 
nan

>  <PDB_ID>  (205) 
nan

>  <Standardized_SMILES>  (205) 
CC(C)C[C@H](N)COc1ccc(-c2ccnc(C(F)(F)F)c2)cc1C#N

>  <Name>  (205) 
nan

>  <Pocket>  (205) 
nan

>  <ATP_Site>  (205) 
nan

>  <Peripheral>  (205) 
nan

>  <Num_H_Atoms_ProtBoundConf>  (205) 
nan

>  <Num_Resolved_Atoms>  (205) 
nan

>  <Num_Not_Resolved_Atoms>  (205) 
nan

$$$$
CHEMBL507947
     RDKit          3D

  0  0  0  0  0  0  0  0  0  0999 V3000
M  V30 BEGIN CTAB
M  V30 COUNTS 42 43 0 0 0
M  V30 BEGIN ATOM
M  V30 1 C 0.022867 -5.289561 -0.951713 0
M  V30 2 C 0.690406 -4.606302 0.242560 0
M  V30 3 C -0.261472 -4.719490 1.406867 0
M  V30 4 C 1.072564 -3.217875 -0.083324 0
M  V30 5 O 2.243821 -2.761036 -0.050222 0
M  V30 6 O 0.203415 -2.217142 -0.472442 0
M  V30 7 C 0.609738 -0.906614 -0.775440 0
M  V30 8 C -0.577345 -0.049326 -1.165492 0
M  V30 9 C -1.199450 -0.413129 -2.462351 0
M  V30 10 O -0.289461 -0.465979 -3.524506 0
M  V30 11 C -0.174026 1.437467 -1.127447 0
M  V30 12 C 0.117301 1.541491 0.325814 0
M  V30 13 C 0.909459 2.247882 1.076868 0
M  V30 14 C 1.149865 2.310910 2.507857 0
M  V30 15 C 2.483245 2.210635 2.919298 0
M  V30 16 C 2.909071 2.276053 4.233769 0
M  V30 17 C 1.903013 2.453099 5.156695 0
M  V30 18 Cl 2.365867 2.545182 6.858930 0
M  V30 19 C 0.558137 2.558497 4.789022 0
M  V30 20 C 0.192055 2.485466 3.448767 0
M  V30 21 C -0.720772 0.511877 0.986344 0
M  V30 22 O -0.751082 0.148648 2.216247 0
M  V30 23 O -1.505860 -0.004179 -0.067591 0
M  V30 24 H 0.027512 -6.374722 -0.731287 0
M  V30 25 H -1.027392 -4.959175 -1.054689 0
M  V30 26 H 0.602474 -5.134832 -1.886525 0
M  V30 27 H 1.616188 -5.194752 0.470212 0
M  V30 28 H 0.000206 -4.085423 2.256728 0
M  V30 29 H -1.331501 -4.647449 1.089036 0
M  V30 30 H -0.160678 -5.784615 1.767271 0
M  V30 31 H 1.418612 -0.853887 -1.510840 0
M  V30 32 H 0.986120 -0.480682 0.202514 0
M  V30 33 H -1.819015 -1.325983 -2.422798 0
M  V30 34 H -1.898499 0.432144 -2.728906 0
M  V30 35 H 0.107571 0.436036 -3.621462 0
M  V30 36 H -1.060624 2.017533 -1.450028 0
M  V30 37 H 0.673062 1.582234 -1.787646 0
M  V30 38 H 1.542509 2.955625 0.512414 0
M  V30 39 H 3.283660 2.071790 2.173575 0
M  V30 40 H 3.962514 2.188052 4.471992 0
M  V30 41 H -0.166417 2.697979 5.577986 0
M  V30 42 H -0.842769 2.591008 3.215654 0
M  V30 END ATOM
M  V30 BEGIN BOND
M  V30 1 1 1 2
M  V30 2 1 2 3
M  V30 3 1 2 4
M  V30 4 2 4 5
M  V30 5 1 4 6
M  V30 6 1 6 7
M  V30 7 1 7 8
M  V30 8 1 8 9
M  V30 9 1 9 10
M  V30 10 1 8 11
M  V30 11 1 11 12
M  V30 12 2 12 13
M  V30 13 1 13 14
M  V30 14 2 14 15
M  V30 15 1 15 16
M  V30 16 2 16 17
M  V30 17 1 17 18
M  V30 18 1 17 19
M  V30 19 2 19 20
M  V30 20 1 12 21
M  V30 21 2 21 22
M  V30 22 1 21 23
M  V30 23 1 23 8
M  V30 24 1 20 14
M  V30 25 1 1 24
M  V30 26 1 1 25
M  V30 27 1 1 26
M  V30 28 1 2 27
M  V30 29 1 3 28
M  V30 30 1 3 29
M  V30 31 1 3 30
M  V30 32 1 7 31
M  V30 33 1 7 32
M  V30 34 1 9 33
M  V30 35 1 9 34
M  V30 36 1 10 35
M  V30 37 1 11 36
M  V30 38 1 11 37
M  V30 39 1 13 38
M  V30 40 1 15 39
M  V30 41 1 16 40
M  V30 42 1 19 41
M  V30 43 1 20 42
M  V30 END BOND
M  V30 END CTAB
M  END
>  <Dataset>  (206) 
ChEMBL_Kinases

>  <Ligand_Instance>  (206) 
nan

>  <PDB_ID>  (206) 
nan

>  <Standardized_SMILES>  (206) 
CC(C)C(=O)OCC1(CO)C/C(=C/c2ccc(Cl)cc2)C(=O)O1

>  <Name>  (206) 
nan

>  <Pocket>  (206) 
nan

>  <ATP_Site>  (206) 
nan

>  <Peripheral>  (206) 
nan

>  <Num_H_Atoms_ProtBoundConf>  (206) 
nan

>  <Num_Resolved_Atoms>  (206) 
nan

>  <Num_Not_Resolved_Atoms>  (206) 
nan

$$$$
CHEMBL5079497
     RDKit          3D

  0  0  0  0  0  0  0  0  0  0999 V3000
M  V30 BEGIN CTAB
M  V30 COUNTS 67 71 0 0 0
M  V30 BEGIN ATOM
M  V30 1 C -0.119292 -2.468596 4.908494 0
M  V30 2 C 0.766542 -2.807893 3.789998 0
M  V30 3 C 1.934071 -3.470512 4.110509 0
M  V30 4 C 2.810957 -3.817458 3.096751 0
M  V30 5 C 2.479988 -3.484459 1.797717 0
M  V30 6 N 3.301626 -3.784903 0.642316 0
M  V30 7 C 4.188450 -2.694806 0.426546 0
M  V30 8 O 4.023956 -1.768218 1.289638 0
M  V30 9 C 5.172462 -2.631924 -0.648983 0
M  V30 10 C 5.946046 -1.488126 -0.697059 0
M  V30 11 C 6.908360 -1.321453 -1.672396 0
M  V30 12 C 7.729624 -0.084287 -1.706911 0
M  V30 13 F 7.923462 0.317224 -3.011340 0
M  V30 14 F 8.977975 -0.250828 -1.137110 0
M  V30 15 F 7.109614 0.955511 -1.052247 0
M  V30 16 C 7.084177 -2.327172 -2.605783 0
M  V30 17 N 6.309544 -3.424239 -2.522466 0
M  V30 18 N 5.383296 -3.596589 -1.592370 0
M  V30 19 C 1.298391 -2.814742 1.480706 0
M  V30 20 C 0.408004 -2.461567 2.502628 0
M  V30 21 C -0.831134 -1.760092 2.175231 0
M  V30 22 C -2.082028 -2.013837 2.642170 0
M  V30 23 C -3.166333 -1.258822 2.238893 0
M  V30 24 C -3.007463 -0.238122 1.360392 0
M  V30 25 C -1.739877 0.024710 0.882397 0
M  V30 26 C -0.652965 -0.724509 1.280361 0
M  V30 27 O -1.516061 1.064191 -0.025370 0
M  V30 28 C -2.311323 1.547771 -1.090379 0
M  V30 29 C -2.837017 0.432197 -1.980454 0
M  V30 30 C -2.729151 0.763489 -3.450020 0
M  V30 31 O -1.441886 0.999225 -3.882510 0
M  V30 32 C -0.625813 1.438507 -2.850695 0
M  V30 33 C -1.399580 2.404926 -1.948099 0
M  V30 34 C -3.498018 2.341131 -0.640788 0
M  V30 35 C -4.372732 1.513427 0.226636 0
M  V30 36 O -5.567282 1.930649 0.175690 0
M  V30 37 N -4.291989 0.374412 1.117029 0
M  V30 38 C -5.479617 -0.113349 1.729565 0
M  V30 39 C -5.785909 0.532726 3.061333 0
M  V30 40 O -5.959393 1.920530 2.929050 0
M  V30 41 H 0.457035 -2.258590 5.857811 0
M  V30 42 H -0.724603 -1.549868 4.766074 0
M  V30 43 H -0.725067 -3.365973 5.180318 0
M  V30 44 H 2.198116 -3.733539 5.124812 0
M  V30 45 H 3.753043 -4.338751 3.244333 0
M  V30 46 H 3.362478 -4.607069 -0.026539 0
M  V30 47 H 5.810418 -0.686791 0.041587 0
M  V30 48 H 7.844326 -2.220978 -3.394789 0
M  V30 49 H 1.020158 -2.544597 0.470206 0
M  V30 50 H -2.164488 -2.830987 3.336257 0
M  V30 51 H -4.096250 -1.527718 2.651790 0
M  V30 52 H 0.301864 -0.413896 0.827005 0
M  V30 53 H -3.936878 0.264334 -1.803201 0
M  V30 54 H -2.252807 -0.486838 -1.799033 0
M  V30 55 H -3.354345 1.635315 -3.717950 0
M  V30 56 H -3.155362 -0.101209 -3.988457 0
M  V30 57 H 0.302642 1.906501 -3.250277 0
M  V30 58 H -0.387794 0.550413 -2.221537 0
M  V30 59 H -0.648192 2.936945 -1.335328 0
M  V30 60 H -1.992533 3.120172 -2.564978 0
M  V30 61 H -3.136307 3.214359 -0.056672 0
M  V30 62 H -4.061118 2.627938 -1.550198 0
M  V30 63 H -6.304941 0.336134 1.072214 0
M  V30 64 H -5.726098 -1.165975 1.632505 0
M  V30 65 H -6.719984 0.146382 3.509127 0
M  V30 66 H -4.890668 0.429244 3.705856 0
M  V30 67 H -5.103564 2.410699 3.044767 0
M  V30 END ATOM
M  V30 BEGIN BOND
M  V30 1 1 1 2
M  V30 2 2 2 3
M  V30 3 1 3 4
M  V30 4 2 4 5
M  V30 5 1 5 6
M  V30 6 1 6 7
M  V30 7 2 7 8
M  V30 8 1 7 9
M  V30 9 2 9 10
M  V30 10 1 10 11
M  V30 11 1 11 12
M  V30 12 1 12 13
M  V30 13 1 12 14
M  V30 14 1 12 15
M  V30 15 2 11 16
M  V30 16 1 16 17
M  V30 17 2 17 18
M  V30 18 1 5 19
M  V30 19 2 19 20
M  V30 20 1 20 21
M  V30 21 2 21 22
M  V30 22 1 22 23
M  V30 23 2 23 24
M  V30 24 1 24 25
M  V30 25 2 25 26
M  V30 26 1 25 27
M  V30 27 1 27 28
M  V30 28 1 28 29
M  V30 29 1 29 30
M  V30 30 1 30 31
M  V30 31 1 31 32
M  V30 32 1 32 33
M  V30 33 1 28 34
M  V30 34 1 34 35
M  V30 35 2 35 36
M  V30 36 1 35 37
M  V30 37 1 37 38
M  V30 38 1 38 39
M  V30 39 1 39 40
M  V30 40 1 20 2
M  V30 41 1 26 21
M  V30 42 1 33 28
M  V30 43 1 18 9
M  V30 44 1 37 24
M  V30 45 1 1 41
M  V30 46 1 1 42
M  V30 47 1 1 43
M  V30 48 1 3 44
M  V30 49 1 4 45
M  V30 50 1 6 46
M  V30 51 1 10 47
M  V30 52 1 16 48
M  V30 53 1 19 49
M  V30 54 1 22 50
M  V30 55 1 23 51
M  V30 56 1 26 52
M  V30 57 1 29 53
M  V30 58 1 29 54
M  V30 59 1 30 55
M  V30 60 1 30 56
M  V30 61 1 32 57
M  V30 62 1 32 58
M  V30 63 1 33 59
M  V30 64 1 33 60
M  V30 65 1 34 61
M  V30 66 1 34 62
M  V30 67 1 38 63
M  V30 68 1 38 64
M  V30 69 1 39 65
M  V30 70 1 39 66
M  V30 71 1 40 67
M  V30 END BOND
M  V30 END CTAB
M  END
>  <Dataset>  (207) 
ChEMBL_Kinases

>  <Ligand_Instance>  (207) 
nan

>  <PDB_ID>  (207) 
nan

>  <Standardized_SMILES>  (207) 
Cc1ccc(NC(=O)c2cc(C(F)(F)F)cnn2)cc1-c1ccc2c(c1)OC1(CCOCC1)CC(=O)N2CCO

>  <Name>  (207) 
nan

>  <Pocket>  (207) 
nan

>  <ATP_Site>  (207) 
nan

>  <Peripheral>  (207) 
nan

>  <Num_H_Atoms_ProtBoundConf>  (207) 
nan

>  <Num_Resolved_Atoms>  (207) 
nan

>  <Num_Not_Resolved_Atoms>  (207) 
nan

$$$$
CHEMBL3781064
     RDKit          3D

  0  0  0  0  0  0  0  0  0  0999 V3000
M  V30 BEGIN CTAB
M  V30 COUNTS 37 39 0 0 0
M  V30 BEGIN ATOM
M  V30 1 C -0.327008 -4.135559 4.456164 0
M  V30 2 C -0.129405 -4.911592 3.192843 0
M  V30 3 C 0.302980 -4.002493 2.111437 0
M  V30 4 C 1.654122 -3.801553 1.942423 0
M  V30 5 C 2.192289 -2.990000 0.985749 0
M  V30 6 C 1.354673 -2.299300 0.099378 0
M  V30 7 N 1.735293 -1.447504 -0.943007 0
M  V30 8 C 1.139595 -0.606797 -1.948724 0
M  V30 9 N 0.490004 0.571970 -1.462523 0
M  V30 10 C 1.309835 1.759826 -1.323966 0
M  V30 11 O 2.534612 1.958989 -1.547426 0
M  V30 12 C 0.544743 2.882360 -0.843663 0
M  V30 13 C 0.743527 4.209972 -0.525772 0
M  V30 14 C -0.268509 5.043052 -0.068522 0
M  V30 15 C -1.549066 4.555000 0.088422 0
M  V30 16 C -1.801359 3.237780 -0.214500 0
M  V30 17 C -0.756191 2.457193 -0.664915 0
M  V30 18 C -0.777922 1.051117 -1.044551 0
M  V30 19 O -1.762013 0.288906 -1.031748 0
M  V30 20 C 0.005093 -2.518487 0.290043 0
M  V30 21 C -0.535298 -3.339579 1.258478 0
M  V30 22 H 0.320259 -3.230371 4.448811 0
M  V30 23 H -1.397732 -3.793451 4.496748 0
M  V30 24 H -0.146126 -4.770788 5.333925 0
M  V30 25 H 0.652403 -5.702324 3.317599 0
M  V30 26 H -1.065442 -5.443439 2.926571 0
M  V30 27 H 2.429107 -4.267464 2.552060 0
M  V30 28 H 3.261253 -2.820962 0.839917 0
M  V30 29 H 2.791709 -1.438493 -0.972594 0
M  V30 30 H 0.387837 -1.218329 -2.537145 0
M  V30 31 H 1.911856 -0.370231 -2.707505 0
M  V30 32 H 1.759512 4.598398 -0.649951 0
M  V30 33 H 0.043385 6.077605 0.143596 0
M  V30 34 H -2.300831 5.221135 0.441010 0
M  V30 35 H -2.782391 2.831857 -0.103018 0
M  V30 36 H -0.778024 -2.075823 -0.308233 0
M  V30 37 H -1.589127 -3.517048 1.415559 0
M  V30 END ATOM
M  V30 BEGIN BOND
M  V30 1 1 1 2
M  V30 2 1 2 3
M  V30 3 2 3 4
M  V30 4 1 4 5
M  V30 5 2 5 6
M  V30 6 1 6 7
M  V30 7 1 7 8
M  V30 8 1 8 9
M  V30 9 1 9 10
M  V30 10 2 10 11
M  V30 11 1 10 12
M  V30 12 2 12 13
M  V30 13 1 13 14
M  V30 14 2 14 15
M  V30 15 1 15 16
M  V30 16 2 16 17
M  V30 17 1 17 18
M  V30 18 2 18 19
M  V30 19 1 6 20
M  V30 20 2 20 21
M  V30 21 1 21 3
M  V30 22 1 18 9
M  V30 23 1 17 12
M  V30 24 1 1 22
M  V30 25 1 1 23
M  V30 26 1 1 24
M  V30 27 1 2 25
M  V30 28 1 2 26
M  V30 29 1 4 27
M  V30 30 1 5 28
M  V30 31 1 7 29
M  V30 32 1 8 30
M  V30 33 1 8 31
M  V30 34 1 13 32
M  V30 35 1 14 33
M  V30 36 1 15 34
M  V30 37 1 16 35
M  V30 38 1 20 36
M  V30 39 1 21 37
M  V30 END BOND
M  V30 END CTAB
M  END
>  <Dataset>  (208) 
ChEMBL_Kinases

>  <Ligand_Instance>  (208) 
nan

>  <PDB_ID>  (208) 
nan

>  <Standardized_SMILES>  (208) 
CCc1ccc(NCN2C(=O)c3ccccc3C2=O)cc1

>  <Name>  (208) 
nan

>  <Pocket>  (208) 
nan

>  <ATP_Site>  (208) 
nan

>  <Peripheral>  (208) 
nan

>  <Num_H_Atoms_ProtBoundConf>  (208) 
nan

>  <Num_Resolved_Atoms>  (208) 
nan

>  <Num_Not_Resolved_Atoms>  (208) 
nan

$$$$
CHEMBL5078498
     RDKit          3D

  0  0  0  0  0  0  0  0  0  0999 V3000
M  V30 BEGIN CTAB
M  V30 COUNTS 46 49 0 0 0
M  V30 BEGIN ATOM
M  V30 1 C 1.093890 -2.324326 1.455856 0
M  V30 2 C -0.373265 -2.187315 1.355481 0
M  V30 3 C -0.926408 -0.937716 1.552286 0
M  V30 4 C -0.165390 0.270231 1.854887 0
M  V30 5 C 0.128448 0.670894 3.141510 0
M  V30 6 C 0.850223 1.818487 3.394701 0
M  V30 7 C 1.317251 2.628104 2.365464 0
M  V30 8 N 2.060032 3.808342 2.639659 0
M  V30 9 C 0.998801 2.186603 1.100476 0
M  V30 10 C 1.495902 3.046527 0.035645 0
M  V30 11 O 2.152922 4.090060 0.280992 0
M  V30 12 N 1.552024 3.215096 -1.354605 0
M  V30 13 C 2.317125 4.454866 -1.508136 0
M  V30 14 C 1.035047 2.447148 -2.488913 0
M  V30 15 C 0.281598 1.048595 0.807680 0
M  V30 16 F -0.000393 0.665866 -0.459831 0
M  V30 17 C -2.293345 -0.763935 1.467820 0
M  V30 18 N -3.094025 -1.819491 1.191658 0
M  V30 19 C -2.501755 -3.022044 1.007462 0
M  V30 20 C -1.131603 -3.301759 1.071453 0
M  V30 21 C -0.902143 -4.717892 0.813923 0
M  V30 22 C -0.208579 -5.645636 1.706426 0
M  V30 23 C 0.349477 -5.284263 0.306272 0
M  V30 24 C -2.197140 -5.207999 0.193381 0
M  V30 25 N -3.149393 -4.244970 0.711831 0
M  V30 26 H 1.619665 -2.437395 0.502136 0
M  V30 27 H 1.560889 -1.449289 1.976155 0
M  V30 28 H 1.365091 -3.192166 2.121802 0
M  V30 29 H -0.213596 0.073976 3.965617 0
M  V30 30 H 1.044190 2.072800 4.425058 0
M  V30 31 H 3.081017 3.664565 2.402268 0
M  V30 32 H 1.629764 4.693061 3.026354 0
M  V30 33 H 3.358393 4.368951 -1.188943 0
M  V30 34 H 1.773898 5.341008 -1.127463 0
M  V30 35 H 2.371702 4.616694 -2.625405 0
M  V30 36 H 1.467573 1.450888 -2.579912 0
M  V30 37 H -0.069025 2.434605 -2.492571 0
M  V30 38 H 1.334203 3.050881 -3.392418 0
M  V30 39 H -2.771564 0.193497 1.613889 0
M  V30 40 H -0.598677 -6.700633 1.757379 0
M  V30 41 H 0.375012 -5.353874 2.584606 0
M  V30 42 H 1.335272 -4.815988 0.354894 0
M  V30 43 H 0.260253 -6.059998 -0.486739 0
M  V30 44 H -2.432013 -6.252393 0.490272 0
M  V30 45 H -2.133205 -5.167963 -0.913596 0
M  V30 46 H -4.159846 -4.471168 0.831142 0
M  V30 END ATOM
M  V30 BEGIN BOND
M  V30 1 1 1 2
M  V30 2 2 2 3
M  V30 3 1 3 4
M  V30 4 2 4 5
M  V30 5 1 5 6
M  V30 6 2 6 7
M  V30 7 1 7 8
M  V30 8 1 7 9
M  V30 9 1 9 10
M  V30 10 2 10 11
M  V30 11 1 10 12
M  V30 12 1 12 13
M  V30 13 1 12 14
M  V30 14 2 9 15
M  V30 15 1 15 16
M  V30 16 1 3 17
M  V30 17 2 17 18
M  V30 18 1 18 19
M  V30 19 2 19 20
M  V30 20 1 20 21
M  V30 21 1 21 22
M  V30 22 1 22 23
M  V30 23 1 21 24
M  V30 24 1 24 25
M  V30 25 1 20 2
M  V30 26 1 23 21
M  V30 27 1 15 4
M  V30 28 1 25 19
M  V30 29 1 1 26
M  V30 30 1 1 27
M  V30 31 1 1 28
M  V30 32 1 5 29
M  V30 33 1 6 30
M  V30 34 1 8 31
M  V30 35 1 8 32
M  V30 36 1 13 33
M  V30 37 1 13 34
M  V30 38 1 13 35
M  V30 39 1 14 36
M  V30 40 1 14 37
M  V30 41 1 14 38
M  V30 42 1 17 39
M  V30 43 1 22 40
M  V30 44 1 22 41
M  V30 45 1 23 42
M  V30 46 1 23 43
M  V30 47 1 24 44
M  V30 48 1 24 45
M  V30 49 1 25 46
M  V30 END BOND
M  V30 END CTAB
M  END
>  <Dataset>  (209) 
ChEMBL_Kinases

>  <Ligand_Instance>  (209) 
nan

>  <PDB_ID>  (209) 
nan

>  <Standardized_SMILES>  (209) 
Cc1c(-c2ccc(N)c(C(=O)N(C)C)c2F)cnc2c1C1(CC1)CN2

>  <Name>  (209) 
nan

>  <Pocket>  (209) 
nan

>  <ATP_Site>  (209) 
nan

>  <Peripheral>  (209) 
nan

>  <Num_H_Atoms_ProtBoundConf>  (209) 
nan

>  <Num_Resolved_Atoms>  (209) 
nan

>  <Num_Not_Resolved_Atoms>  (209) 
nan

$$$$
CHEMBL378328
     RDKit          3D

  0  0  0  0  0  0  0  0  0  0999 V3000
M  V30 BEGIN CTAB
M  V30 COUNTS 39 42 0 0 0
M  V30 BEGIN ATOM
M  V30 1 C 2.018162 -4.591707 1.212896 0
M  V30 2 C 0.853906 -3.639436 1.077675 0
M  V30 3 C -0.410870 -4.425686 1.361779 0
M  V30 4 C 0.858963 -3.050976 -0.286541 0
M  V30 5 N 0.707066 -3.656729 -1.489833 0
M  V30 6 N 0.770722 -2.795537 -2.464212 0
M  V30 7 C 0.969973 -1.561074 -1.952417 0
M  V30 8 C 1.117127 -0.281176 -2.471951 0
M  V30 9 C 1.315447 0.795843 -1.598984 0
M  V30 10 C 1.362674 0.569025 -0.215390 0
M  V30 11 C 1.577345 1.817720 0.497443 0
M  V30 12 O 2.669446 2.555951 0.387566 0
M  V30 13 C 2.543145 3.617964 1.163458 0
M  V30 14 N 1.343511 3.539309 1.771250 0
M  V30 15 C 0.702915 2.405054 1.369442 0
M  V30 16 C -0.608555 2.004628 1.827686 0
M  V30 17 C -0.976270 0.915586 2.588433 0
M  V30 18 C -2.283582 0.662653 2.945839 0
M  V30 19 C -3.310935 1.500550 2.554704 0
M  V30 20 Cl -4.921765 1.080546 3.065823 0
M  V30 21 C -2.966827 2.609471 1.784823 0
M  V30 22 C -1.651235 2.853429 1.431762 0
M  V30 23 C 1.209969 -0.721439 0.233434 0
M  V30 24 N 1.021409 -1.736350 -0.619990 0
M  V30 25 H 1.947608 -5.171318 2.164368 0
M  V30 26 H 1.862652 -5.375288 0.415254 0
M  V30 27 H 2.997424 -4.093004 1.068534 0
M  V30 28 H 1.004911 -2.835739 1.846439 0
M  V30 29 H -0.850929 -4.018866 2.307106 0
M  V30 30 H -0.205736 -5.501101 1.565361 0
M  V30 31 H -1.128030 -4.401854 0.516947 0
M  V30 32 H 1.075070 -0.146887 -3.556483 0
M  V30 33 H 1.417419 1.748987 -2.116641 0
M  V30 34 H 3.255964 4.424464 1.307620 0
M  V30 35 H -0.149485 0.283348 2.879379 0
M  V30 36 H -2.441565 -0.223981 3.543584 0
M  V30 37 H -3.805661 3.225539 1.510755 0
M  V30 38 H -1.568031 3.765593 0.828289 0
M  V30 39 H 1.263613 -0.788317 1.290906 0
M  V30 END ATOM
M  V30 BEGIN BOND
M  V30 1 1 1 2
M  V30 2 1 2 3
M  V30 3 1 2 4
M  V30 4 2 4 5
M  V30 5 1 5 6
M  V30 6 2 6 7
M  V30 7 1 7 8
M  V30 8 2 8 9
M  V30 9 1 9 10
M  V30 10 1 10 11
M  V30 11 1 11 12
M  V30 12 1 12 13
M  V30 13 2 13 14
M  V30 14 1 14 15
M  V30 15 1 15 16
M  V30 16 2 16 17
M  V30 17 1 17 18
M  V30 18 2 18 19
M  V30 19 1 19 20
M  V30 20 1 19 21
M  V30 21 2 21 22
M  V30 22 2 10 23
M  V30 23 1 23 24
M  V30 24 1 24 4
M  V30 25 1 24 7
M  V30 26 2 15 11
M  V30 27 1 22 16
M  V30 28 1 1 25
M  V30 29 1 1 26
M  V30 30 1 1 27
M  V30 31 1 2 28
M  V30 32 1 3 29
M  V30 33 1 3 30
M  V30 34 1 3 31
M  V30 35 1 8 32
M  V30 36 1 9 33
M  V30 37 1 13 34
M  V30 38 1 17 35
M  V30 39 1 18 36
M  V30 40 1 21 37
M  V30 41 1 22 38
M  V30 42 1 23 39
M  V30 END BOND
M  V30 END CTAB
M  END
>  <Dataset>  (210) 
ChEMBL_Kinases

>  <Ligand_Instance>  (210) 
nan

>  <PDB_ID>  (210) 
nan

>  <Standardized_SMILES>  (210) 
CC(C)c1nnc2ccc(-c3ocnc3-c3ccc(Cl)cc3)cn12

>  <Name>  (210) 
nan

>  <Pocket>  (210) 
nan

>  <ATP_Site>  (210) 
nan

>  <Peripheral>  (210) 
nan

>  <Num_H_Atoms_ProtBoundConf>  (210) 
nan

>  <Num_Resolved_Atoms>  (210) 
nan

>  <Num_Not_Resolved_Atoms>  (210) 
nan

$$$$
CHEMBL378315
     RDKit          3D

  0  0  0  0  0  0  0  0  0  0999 V3000
M  V30 BEGIN CTAB
M  V30 COUNTS 54 56 0 0 0
M  V30 BEGIN ATOM
M  V30 1 C -0.192172 -1.580424 -1.966338 0
M  V30 2 C -0.659164 -2.901813 -1.450491 0 CFG=2
M  V30 3 N 0.193726 -3.452324 -0.399805 0
M  V30 4 C 0.358765 -2.697092 0.793889 0
M  V30 5 N 1.145684 -3.171853 1.803821 0
M  V30 6 C 1.331509 -2.494924 2.948312 0
M  V30 7 C 0.687356 -1.281773 3.068420 0
M  V30 8 C -0.128824 -0.747420 2.069238 0
M  V30 9 N -0.794953 0.519211 2.218924 0
M  V30 10 C 0.266067 1.262327 1.661972 0
M  V30 11 O 1.022665 0.252254 1.438839 0
M  V30 12 N 0.639400 2.594612 1.345011 0
M  V30 13 C 1.931215 2.706846 0.756463 0
M  V30 14 C 2.925446 2.879886 1.711074 0
M  V30 15 C 4.252186 3.010538 1.356260 0
M  V30 16 C 4.533930 2.958618 -0.013222 0
M  V30 17 C 3.564818 2.787625 -0.981594 0
M  V30 18 C 2.254441 2.661590 -0.582341 0
M  V30 19 Cl 0.902922 2.439741 -1.662570 0
M  V30 20 C -2.071329 0.619883 2.774003 0
M  V30 21 C -2.729804 1.811910 2.928264 0
M  V30 22 C -3.981070 1.923823 3.470913 0
M  V30 23 C -4.571098 0.735286 3.870635 0
M  V30 24 C -3.926243 -0.454065 3.722106 0
M  V30 25 C -2.666535 -0.552395 3.174135 0
M  V30 26 N -0.246276 -1.506775 0.965036 0
M  V30 27 C -0.832936 -3.895375 -2.577174 0
M  V30 28 C 0.517960 -4.321548 -3.083261 0
M  V30 29 C -1.565672 -5.129319 -2.053526 0
M  V30 30 O -1.651242 -3.367778 -3.585846 0
M  V30 31 H -0.589484 -1.468917 -3.001760 0
M  V30 32 H 0.911471 -1.586773 -2.059742 0
M  V30 33 H -0.578445 -0.707263 -1.395435 0
M  V30 34 H -1.642720 -2.714544 -0.948111 0
M  V30 35 H 0.676312 -4.361708 -0.492465 0
M  V30 36 H 1.955118 -2.872614 3.746941 0
M  V30 37 H 0.797185 -0.689442 3.965497 0
M  V30 38 H -0.178230 3.168088 1.644673 0
M  V30 39 H 2.760004 2.927293 2.790541 0
M  V30 40 H 5.044469 3.145617 2.071264 0
M  V30 41 H 5.569090 3.059311 -0.310247 0
M  V30 42 H 3.770805 2.746934 -2.027379 0
M  V30 43 H -2.291632 2.750012 2.624968 0
M  V30 44 H -4.518626 2.856628 3.601510 0
M  V30 45 H -5.556322 0.750086 4.306400 0
M  V30 46 H -4.421090 -1.373424 4.048369 0
M  V30 47 H -2.150137 -1.493921 3.053931 0
M  V30 48 H 0.861369 -5.166493 -2.469283 0
M  V30 49 H 0.415315 -4.662651 -4.138272 0
M  V30 50 H 1.276359 -3.512685 -3.079109 0
M  V30 51 H -1.063768 -5.548273 -1.171316 0
M  V30 52 H -1.672790 -5.838872 -2.884568 0
M  V30 53 H -2.572823 -4.787857 -1.720134 0
M  V30 54 H -1.421245 -3.751257 -4.468721 0
M  V30 END ATOM
M  V30 BEGIN BOND
M  V30 1 1 1 2
M  V30 2 1 2 3
M  V30 3 1 3 4
M  V30 4 2 4 5
M  V30 5 1 5 6
M  V30 6 2 6 7
M  V30 7 1 7 8
M  V30 8 1 8 9
M  V30 9 1 9 10
M  V30 10 2 10 11
M  V30 11 1 10 12
M  V30 12 1 12 13
M  V30 13 2 13 14
M  V30 14 1 14 15
M  V30 15 2 15 16
M  V30 16 1 16 17
M  V30 17 2 17 18
M  V30 18 1 18 19
M  V30 19 1 9 20
M  V30 20 2 20 21
M  V30 21 1 21 22
M  V30 22 2 22 23
M  V30 23 1 23 24
M  V30 24 2 24 25
M  V30 25 2 8 26
M  V30 26 1 2 27
M  V30 27 1 27 28
M  V30 28 1 27 29
M  V30 29 1 27 30
M  V30 30 1 26 4
M  V30 31 1 18 13
M  V30 32 1 25 20
M  V30 33 1 1 31
M  V30 34 1 1 32
M  V30 35 1 1 33
M  V30 36 1 2 34 CFG=1
M  V30 37 1 3 35
M  V30 38 1 6 36
M  V30 39 1 7 37
M  V30 40 1 12 38
M  V30 41 1 14 39
M  V30 42 1 15 40
M  V30 43 1 16 41
M  V30 44 1 17 42
M  V30 45 1 21 43
M  V30 46 1 22 44
M  V30 47 1 23 45
M  V30 48 1 24 46
M  V30 49 1 25 47
M  V30 50 1 28 48
M  V30 51 1 28 49
M  V30 52 1 28 50
M  V30 53 1 29 51
M  V30 54 1 29 52
M  V30 55 1 29 53
M  V30 56 1 30 54
M  V30 END BOND
M  V30 END CTAB
M  END
>  <Dataset>  (211) 
ChEMBL_Kinases

>  <Ligand_Instance>  (211) 
nan

>  <PDB_ID>  (211) 
nan

>  <Standardized_SMILES>  (211) 
C[C@H](Nc1nccc(N(C(=O)Nc2ccccc2Cl)c2ccccc2)n1)C(C)(C)O

>  <Name>  (211) 
nan

>  <Pocket>  (211) 
nan

>  <ATP_Site>  (211) 
nan

>  <Peripheral>  (211) 
nan

>  <Num_H_Atoms_ProtBoundConf>  (211) 
nan

>  <Num_Resolved_Atoms>  (211) 
nan

>  <Num_Not_Resolved_Atoms>  (211) 
nan

$$$$
CHEMBL378286
     RDKit          3D

  0  0  0  0  0  0  0  0  0  0999 V3000
M  V30 BEGIN CTAB
M  V30 COUNTS 36 39 0 0 0
M  V30 BEGIN ATOM
M  V30 1 N 2.280143 -7.091287 2.817459 0
M  V30 2 C 2.023635 -6.034847 2.409494 0
M  V30 3 C 1.702507 -4.723018 1.889369 0
M  V30 4 C 2.491441 -4.130139 0.911262 0
M  V30 5 C 2.129717 -2.873571 0.456527 0
M  V30 6 N 1.058367 -2.178716 0.898368 0
M  V30 7 C 0.568065 -0.963049 0.570802 0
M  V30 8 C 1.081925 -0.022159 -0.391333 0
M  V30 9 C 2.376568 0.422060 -0.114295 0
M  V30 10 C 3.039350 1.321805 -0.912410 0
M  V30 11 N 2.380213 1.775269 -2.003571 0
M  V30 12 C 1.128197 1.364960 -2.298497 0
M  V30 13 N 0.389942 1.809412 -3.433017 0
M  V30 14 N 0.515372 0.482760 -1.490267 0
M  V30 15 C -0.564615 -0.792237 1.371388 0
M  V30 16 C -1.474905 0.347678 1.421591 0
M  V30 17 C -2.185606 0.625574 0.256881 0
M  V30 18 C -3.075296 1.691420 0.207323 0
M  V30 19 C -3.253479 2.481126 1.327718 0
M  V30 20 F -4.128881 3.526704 1.272292 0
M  V30 21 C -2.557218 2.212070 2.475294 0
M  V30 22 C -1.660231 1.144332 2.538559 0
M  V30 23 N -0.719908 -1.899080 2.148630 0
M  V30 24 C 0.289664 -2.752263 1.848919 0
M  V30 25 C 0.602790 -4.004927 2.339971 0
M  V30 26 H 3.362916 -4.628954 0.512314 0
M  V30 27 H 2.755838 -2.408325 -0.316454 0
M  V30 28 H 2.949101 0.086683 0.752021 0
M  V30 29 H 4.046863 1.661794 -0.689866 0
M  V30 30 H 0.029243 2.747868 -3.110699 0
M  V30 31 H 0.217160 1.358992 -4.372251 0
M  V30 32 H -2.132075 0.081519 -0.680590 0
M  V30 33 H -3.646899 1.943037 -0.672499 0
M  V30 34 H -2.688208 2.821800 3.356050 0
M  V30 35 H -1.082408 0.880491 3.410009 0
M  V30 36 H -0.035620 -4.411652 3.088492 0
M  V30 END ATOM
M  V30 BEGIN BOND
M  V30 1 3 1 2
M  V30 2 1 2 3
M  V30 3 1 3 4
M  V30 4 2 4 5
M  V30 5 1 5 6
M  V30 6 1 6 7
M  V30 7 1 7 8
M  V30 8 2 8 9
M  V30 9 1 9 10
M  V30 10 2 10 11
M  V30 11 1 11 12
M  V30 12 1 12 13
M  V30 13 2 12 14
M  V30 14 2 7 15
M  V30 15 1 15 16
M  V30 16 2 16 17
M  V30 17 1 17 18
M  V30 18 2 18 19
M  V30 19 1 19 20
M  V30 20 1 19 21
M  V30 21 2 21 22
M  V30 22 1 15 23
M  V30 23 2 23 24
M  V30 24 1 24 25
M  V30 25 2 25 3
M  V30 26 1 24 6
M  V30 27 1 14 8
M  V30 28 1 22 16
M  V30 29 1 4 26
M  V30 30 1 5 27
M  V30 31 1 9 28
M  V30 32 1 10 29
M  V30 33 1 13 30
M  V30 34 1 13 31
M  V30 35 1 17 32
M  V30 36 1 18 33
M  V30 37 1 21 34
M  V30 38 1 22 35
M  V30 39 1 25 36
M  V30 END BOND
M  V30 END CTAB
M  END
>  <Dataset>  (212) 
ChEMBL_Kinases

>  <Ligand_Instance>  (212) 
nan

>  <PDB_ID>  (212) 
nan

>  <Standardized_SMILES>  (212) 
N#Cc1ccn2c(-c3ccnc(N)n3)c(-c3ccc(F)cc3)nc2c1

>  <Name>  (212) 
nan

>  <Pocket>  (212) 
nan

>  <ATP_Site>  (212) 
nan

>  <Peripheral>  (212) 
nan

>  <Num_H_Atoms_ProtBoundConf>  (212) 
nan

>  <Num_Resolved_Atoms>  (212) 
nan

>  <Num_Not_Resolved_Atoms>  (212) 
nan

$$$$
CHEMBL5078540
     RDKit          3D

  0  0  0  0  0  0  0  0  0  0999 V3000
M  V30 BEGIN CTAB
M  V30 COUNTS 55 59 0 0 0
M  V30 BEGIN ATOM
M  V30 1 C -0.432444 -5.393415 -3.116849 0
M  V30 2 C -0.943526 -4.705105 -1.907067 0
M  V30 3 C -0.507180 -3.481896 -1.422163 0
M  V30 4 N 0.491433 -2.621777 -1.937327 0
M  V30 5 C 0.894994 -1.374166 -1.389322 0
M  V30 6 N 1.862129 -0.644824 -1.974161 0
M  V30 7 C 2.237152 0.533620 -1.448283 0
M  V30 8 N 3.262785 1.262589 -2.105895 0
M  V30 9 C 1.675252 1.064091 -0.306608 0
M  V30 10 C 1.877466 2.227756 0.421064 0
M  V30 11 C 2.811155 3.264231 0.136217 0
M  V30 12 N 3.573299 4.092716 -0.091920 0
M  V30 13 C 0.973898 2.134799 1.461968 0
M  V30 14 N 0.794650 3.098055 2.494115 0
M  V30 15 C -0.128438 4.212624 2.426493 0
M  V30 16 C -0.050155 4.821137 3.817577 0
M  V30 17 C 1.346958 4.457530 4.271647 0
M  V30 18 C 1.523208 3.073065 3.743799 0 CFG=1
M  V30 19 C 0.993166 2.015085 4.685338 0
M  V30 20 N 0.266240 0.988302 1.374736 0
M  V30 21 C -0.778730 0.474451 2.236810 0
M  V30 22 C 0.684921 0.307862 0.284312 0
M  V30 23 N 0.341577 -0.865538 -0.276589 0
M  V30 24 C -1.258200 -3.267936 -0.313495 0
M  V30 25 N -2.108408 -4.299395 -0.125586 0
M  V30 26 N -1.897348 -5.171862 -1.117773 0
M  V30 27 C -2.597459 -6.401384 -1.281183 0
M  V30 28 C -3.469791 -6.650422 -2.430208 0
M  V30 29 O -4.289604 -7.424387 -1.570321 0
M  V30 30 C -3.920785 -6.528829 -0.564711 0
M  V30 31 H 0.590471 -4.976273 -3.356847 0
M  V30 32 H -0.207000 -6.475524 -2.950794 0
M  V30 33 H -1.019761 -5.198578 -4.028518 0
M  V30 34 H 0.968824 -2.951988 -2.806598 0
M  V30 35 H 4.241034 0.907765 -2.283455 0
M  V30 36 H 3.264712 2.238508 -2.524463 0
M  V30 37 H -1.164676 3.869441 2.259484 0
M  V30 38 H 0.246005 4.911033 1.656770 0
M  V30 39 H -0.791478 4.379370 4.500915 0
M  V30 40 H -0.209216 5.926890 3.771788 0
M  V30 41 H 2.065392 5.145553 3.773254 0
M  V30 42 H 1.455344 4.486628 5.374486 0
M  V30 43 H 2.577357 2.808300 3.501122 0
M  V30 44 H 1.509910 2.152945 5.661557 0
M  V30 45 H -0.078611 2.085223 4.861784 0
M  V30 46 H 1.266316 1.000274 4.333319 0
M  V30 47 H -1.193367 1.369807 2.759162 0
M  V30 48 H -1.605520 0.054930 1.629445 0
M  V30 49 H -0.399221 -0.286370 2.945929 0
M  V30 50 H -1.281730 -2.454306 0.397375 0
M  V30 51 H -1.986996 -7.311664 -1.070121 0
M  V30 52 H -4.106574 -5.888823 -2.862896 0
M  V30 53 H -3.067676 -7.288797 -3.264835 0
M  V30 54 H -4.473039 -5.569980 -0.554321 0
M  V30 55 H -3.883636 -7.072275 0.409090 0
M  V30 END ATOM
M  V30 BEGIN BOND
M  V30 1 1 1 2
M  V30 2 2 2 3
M  V30 3 1 3 4
M  V30 4 1 4 5
M  V30 5 2 5 6
M  V30 6 1 6 7
M  V30 7 1 7 8
M  V30 8 2 7 9
M  V30 9 1 9 10
M  V30 10 1 10 11
M  V30 11 3 11 12
M  V30 12 2 10 13
M  V30 13 1 13 14
M  V30 14 1 14 15
M  V30 15 1 15 16
M  V30 16 1 16 17
M  V30 17 1 17 18
M  V30 18 1 18 19
M  V30 19 1 13 20
M  V30 20 1 20 21
M  V30 21 1 20 22
M  V30 22 2 22 23
M  V30 23 1 3 24
M  V30 24 2 24 25
M  V30 25 1 25 26
M  V30 26 1 26 27
M  V30 27 1 27 28
M  V30 28 1 28 29
M  V30 29 1 29 30
M  V30 30 1 26 2
M  V30 31 1 30 27
M  V30 32 1 23 5
M  V30 33 1 22 9
M  V30 34 1 18 14
M  V30 35 1 1 31
M  V30 36 1 1 32
M  V30 37 1 1 33
M  V30 38 1 4 34
M  V30 39 1 8 35
M  V30 40 1 8 36
M  V30 41 1 15 37
M  V30 42 1 15 38
M  V30 43 1 16 39
M  V30 44 1 16 40
M  V30 45 1 17 41
M  V30 46 1 17 42
M  V30 47 1 18 43 CFG=3
M  V30 48 1 19 44
M  V30 49 1 19 45
M  V30 50 1 19 46
M  V30 51 1 21 47
M  V30 52 1 21 48
M  V30 53 1 21 49
M  V30 54 1 24 50
M  V30 55 1 27 51
M  V30 56 1 28 52
M  V30 57 1 28 53
M  V30 58 1 30 54
M  V30 59 1 30 55
M  V30 END BOND
M  V30 END CTAB
M  END
>  <Dataset>  (213) 
ChEMBL_Kinases

>  <Ligand_Instance>  (213) 
nan

>  <PDB_ID>  (213) 
nan

>  <Standardized_SMILES>  (213) 
Cc1c(Nc2nc(N)c3c(C#N)c(N4CCC[C@H]4C)n(C)c3n2)cnn1C1COC1

>  <Name>  (213) 
nan

>  <Pocket>  (213) 
nan

>  <ATP_Site>  (213) 
nan

>  <Peripheral>  (213) 
nan

>  <Num_H_Atoms_ProtBoundConf>  (213) 
nan

>  <Num_Resolved_Atoms>  (213) 
nan

>  <Num_Not_Resolved_Atoms>  (213) 
nan

$$$$
CHEMBL378211
     RDKit          3D

  0  0  0  0  0  0  0  0  0  0999 V3000
M  V30 BEGIN CTAB
M  V30 COUNTS 64 69 0 0 0
M  V30 BEGIN ATOM
M  V30 1 N 3.403263 1.309115 3.799904 0
M  V30 2 C 2.928275 0.020394 3.355093 0 CFG=2
M  V30 3 C 2.779093 0.070159 1.859910 0
M  V30 4 O 4.066383 0.356549 1.325740 0
M  V30 5 C 4.249773 0.461939 -0.054796 0
M  V30 6 C 5.440634 0.733731 -0.695560 0
M  V30 7 N 5.524443 0.816628 -2.034047 0
M  V30 8 C 4.439970 0.636155 -2.809138 0
M  V30 9 C 3.186295 0.356369 -2.263328 0
M  V30 10 C 1.963633 0.146327 -3.033130 0
M  V30 11 C 1.650246 0.742657 -4.237675 0
M  V30 12 C 0.457853 0.479540 -4.894755 0
M  V30 13 C -0.434691 -0.419353 -4.297899 0
M  V30 14 C -1.634878 -0.675842 -4.971817 0
M  V30 15 N -2.509239 -1.545988 -4.402871 0
M  V30 16 C -2.263871 -2.159105 -3.232751 0
M  V30 17 C -3.161737 -3.082191 -2.601692 0
M  V30 18 C -3.933481 -3.847008 -2.061364 0
M  V30 19 C -4.829662 -4.767076 -1.423463 0
M  V30 20 C -4.344493 -5.885630 -0.743329 0
M  V30 21 C -5.345206 -6.655649 -0.195581 0
M  V30 22 C -6.703385 -6.460605 -0.238196 0
M  V30 23 C -7.127652 -5.320732 -0.935236 0
M  V30 24 C -6.178555 -4.499656 -1.512497 0
M  V30 25 C -1.091177 -1.897180 -2.592162 0
M  V30 26 C -0.143275 -1.028249 -3.093436 0
M  V30 27 C 1.051265 -0.746489 -2.463719 0
M  V30 28 C 3.165421 0.284276 -0.887612 0
M  V30 29 C 1.720910 -0.440135 4.075608 0
M  V30 30 C 0.536863 0.414080 3.982096 0
M  V30 31 C -0.527347 0.140073 3.116261 0
M  V30 32 N -1.476423 1.076195 3.210174 0
M  V30 33 C -1.053262 1.968871 4.129680 0
M  V30 34 C -1.606608 3.142599 4.650882 0
M  V30 35 C -0.997700 3.924380 5.611529 0
M  V30 36 C 0.227329 3.451033 6.030470 0
M  V30 37 C 0.861495 2.312845 5.586146 0
M  V30 38 C 0.196380 1.579820 4.625341 0
M  V30 39 H 4.013069 1.775527 3.107379 0
M  V30 40 H 3.793669 1.262251 4.762905 0
M  V30 41 H 3.796469 -0.684716 3.534603 0
M  V30 42 H 2.009816 0.764682 1.494069 0
M  V30 43 H 2.424050 -0.952821 1.554918 0
M  V30 44 H 6.303762 0.875192 -0.038692 0
M  V30 45 H 4.476135 0.697514 -3.895390 0
M  V30 46 H 2.381831 1.423554 -4.638399 0
M  V30 47 H 0.240795 0.962598 -5.838234 0
M  V30 48 H -1.852410 -0.193814 -5.914104 0
M  V30 49 H -3.301369 -6.099555 -0.669949 0
M  V30 50 H -5.033478 -7.551432 0.354306 0
M  V30 51 H -7.398210 -7.139469 0.234650 0
M  V30 52 H -8.187651 -5.154608 -0.976426 0
M  V30 53 H -6.519639 -3.613693 -2.054382 0
M  V30 54 H -0.857160 -2.380580 -1.633815 0
M  V30 55 H 1.167157 -1.279714 -1.533697 0
M  V30 56 H 2.212083 0.069925 -0.423975 0
M  V30 57 H 1.498294 -1.489758 3.721507 0
M  V30 58 H 2.007073 -0.606576 5.155079 0
M  V30 59 H -0.622115 -0.705901 2.436619 0
M  V30 60 H -2.380421 1.108649 2.669176 0
M  V30 61 H -2.587159 3.501329 4.301644 0
M  V30 62 H -1.436082 4.820536 5.999950 0
M  V30 63 H 0.768161 4.020993 6.792072 0
M  V30 64 H 1.806916 1.991659 5.949124 0
M  V30 END ATOM
M  V30 BEGIN BOND
M  V30 1 1 1 2
M  V30 2 1 2 3
M  V30 3 1 3 4
M  V30 4 1 4 5
M  V30 5 2 5 6
M  V30 6 1 6 7
M  V30 7 2 7 8
M  V30 8 1 8 9
M  V30 9 1 9 10
M  V30 10 2 10 11
M  V30 11 1 11 12
M  V30 12 2 12 13
M  V30 13 1 13 14
M  V30 14 2 14 15
M  V30 15 1 15 16
M  V30 16 1 16 17
M  V30 17 3 17 18
M  V30 18 1 18 19
M  V30 19 2 19 20
M  V30 20 1 20 21
M  V30 21 2 21 22
M  V30 22 1 22 23
M  V30 23 2 23 24
M  V30 24 2 16 25
M  V30 25 1 25 26
M  V30 26 2 26 27
M  V30 27 2 9 28
M  V30 28 1 2 29
M  V30 29 1 29 30
M  V30 30 2 30 31
M  V30 31 1 31 32
M  V30 32 1 32 33
M  V30 33 2 33 34
M  V30 34 1 34 35
M  V30 35 2 35 36
M  V30 36 1 36 37
M  V30 37 2 37 38
M  V30 38 1 28 5
M  V30 39 1 38 30
M  V30 40 1 27 10
M  V30 41 1 38 33
M  V30 42 1 26 13
M  V30 43 1 24 19
M  V30 44 1 1 39
M  V30 45 1 1 40
M  V30 46 1 2 41 CFG=3
M  V30 47 1 3 42
M  V30 48 1 3 43
M  V30 49 1 6 44
M  V30 50 1 8 45
M  V30 51 1 11 46
M  V30 52 1 12 47
M  V30 53 1 14 48
M  V30 54 1 20 49
M  V30 55 1 21 50
M  V30 56 1 22 51
M  V30 57 1 23 52
M  V30 58 1 24 53
M  V30 59 1 25 54
M  V30 60 1 27 55
M  V30 61 1 28 56
M  V30 62 1 29 57
M  V30 63 1 29 58
M  V30 64 1 31 59
M  V30 65 1 32 60
M  V30 66 1 34 61
M  V30 67 1 35 62
M  V30 68 1 36 63
M  V30 69 1 37 64
M  V30 END BOND
M  V30 END CTAB
M  END
>  <Dataset>  (214) 
ChEMBL_Kinases

>  <Ligand_Instance>  (214) 
nan

>  <PDB_ID>  (214) 
nan

>  <Standardized_SMILES>  (214) 
N[C@H](COc1cncc(-c2ccc3cnc(C#Cc4ccccc4)cc3c2)c1)Cc1c[nH]c2ccccc12

>  <Name>  (214) 
nan

>  <Pocket>  (214) 
nan

>  <ATP_Site>  (214) 
nan

>  <Peripheral>  (214) 
nan

>  <Num_H_Atoms_ProtBoundConf>  (214) 
nan

>  <Num_Resolved_Atoms>  (214) 
nan

>  <Num_Not_Resolved_Atoms>  (214) 
nan

$$$$
CHEMBL5078558
     RDKit          3D

  0  0  0  0  0  0  0  0  0  0999 V3000
M  V30 BEGIN CTAB
M  V30 COUNTS 65 70 0 0 0
M  V30 BEGIN ATOM
M  V30 1 C -0.288073 -4.485837 3.630484 0
M  V30 2 C 0.476399 -3.261458 3.355219 0
M  V30 3 C 1.494234 -2.777538 4.154761 0
M  V30 4 C 2.160174 -1.616183 3.818198 0
M  V30 5 C 1.815762 -0.913833 2.666228 0
M  V30 6 N 2.537532 0.275743 2.371874 0
M  V30 7 C 1.944017 1.424366 2.943691 0
M  V30 8 O 0.900285 1.166098 3.596024 0
M  V30 9 C 2.476720 2.773797 2.799534 0
M  V30 10 C 1.788525 3.798748 3.415025 0
M  V30 11 C 2.291631 5.089208 3.281343 0
M  V30 12 O 1.601788 6.108517 3.897049 0
M  V30 13 C 1.940881 7.466000 3.882572 0
M  V30 14 C 1.442746 8.338222 4.999402 0
M  V30 15 C 0.778592 8.441135 3.689197 0
M  V30 16 C 3.447513 5.262538 2.541369 0
M  V30 17 N 4.099610 4.230311 1.948696 0
M  V30 18 N 3.614112 2.995701 2.079362 0
M  V30 19 C 0.787107 -1.419465 1.875043 0
M  V30 20 C 0.117671 -2.582603 2.208993 0
M  V30 21 C -0.923014 -2.935861 1.247980 0
M  V30 22 C -2.193395 -3.346019 1.603503 0
M  V30 23 C -3.168437 -3.677451 0.685154 0
M  V30 24 C -2.854534 -3.593805 -0.671915 0
M  V30 25 C -1.594425 -3.187600 -1.070740 0
M  V30 26 C -0.627321 -2.858312 -0.119650 0
M  V30 27 O -1.158036 -3.063280 -2.381541 0
M  V30 28 C -1.750412 -3.196512 -3.636386 0
M  V30 29 C -0.964385 -2.310291 -4.588324 0
M  V30 30 C -0.699255 -2.999505 -5.903540 0
M  V30 31 O -1.877344 -3.648915 -6.268438 0
M  V30 32 C -1.935610 -4.831498 -5.534018 0
M  V30 33 C -1.708795 -4.645222 -4.063328 0
M  V30 34 C -3.182465 -2.753744 -3.717227 0
M  V30 35 C -4.077764 -3.658117 -2.910363 0
M  V30 36 O -5.077667 -4.272037 -3.402440 0
M  V30 37 N -3.963213 -3.967824 -1.517290 0
M  V30 38 H 0.430640 -5.191255 4.142131 0
M  V30 39 H -0.624210 -4.974713 2.712988 0
M  V30 40 H -1.093031 -4.338662 4.398843 0
M  V30 41 H 1.739208 -3.356619 5.055056 0
M  V30 42 H 2.964500 -1.253539 4.470143 0
M  V30 43 H 3.426423 0.391965 1.800238 0
M  V30 44 H 0.891983 3.630117 3.983648 0
M  V30 45 H 2.851302 7.780118 3.327165 0
M  V30 46 H 0.862541 7.866190 5.808607 0
M  V30 47 H 2.028959 9.202251 5.343174 0
M  V30 48 H 0.932098 9.344523 3.060764 0
M  V30 49 H -0.244696 7.996056 3.549420 0
M  V30 50 H 3.847855 6.239761 2.427289 0
M  V30 51 H 0.594397 -0.797754 0.997660 0
M  V30 52 H -2.445355 -3.413690 2.645680 0
M  V30 53 H -4.158442 -3.996729 0.989400 0
M  V30 54 H 0.337192 -2.548382 -0.497302 0
M  V30 55 H -1.517181 -1.372689 -4.804407 0
M  V30 56 H 0.001954 -1.975633 -4.144689 0
M  V30 57 H -0.357938 -2.274566 -6.641979 0
M  V30 58 H 0.114265 -3.749105 -5.774749 0
M  V30 59 H -2.910160 -5.311429 -5.766433 0
M  V30 60 H -1.128960 -5.497984 -5.929206 0
M  V30 61 H -2.567897 -5.149996 -3.543456 0
M  V30 62 H -0.813802 -5.189113 -3.700391 0
M  V30 63 H -3.307408 -1.696697 -3.399154 0
M  V30 64 H -3.483281 -2.828932 -4.781110 0
M  V30 65 H -4.723173 -4.508773 -1.030039 0
M  V30 END ATOM
M  V30 BEGIN BOND
M  V30 1 1 1 2
M  V30 2 2 2 3
M  V30 3 1 3 4
M  V30 4 2 4 5
M  V30 5 1 5 6
M  V30 6 1 6 7
M  V30 7 2 7 8
M  V30 8 1 7 9
M  V30 9 2 9 10
M  V30 10 1 10 11
M  V30 11 1 11 12
M  V30 12 1 12 13
M  V30 13 1 13 14
M  V30 14 1 14 15
M  V30 15 2 11 16
M  V30 16 1 16 17
M  V30 17 2 17 18
M  V30 18 1 5 19
M  V30 19 2 19 20
M  V30 20 1 20 21
M  V30 21 2 21 22
M  V30 22 1 22 23
M  V30 23 2 23 24
M  V30 24 1 24 25
M  V30 25 2 25 26
M  V30 26 1 25 27
M  V30 27 1 27 28
M  V30 28 1 28 29
M  V30 29 1 29 30
M  V30 30 1 30 31
M  V30 31 1 31 32
M  V30 32 1 32 33
M  V30 33 1 28 34
M  V30 34 1 34 35
M  V30 35 2 35 36
M  V30 36 1 35 37
M  V30 37 1 20 2
M  V30 38 1 26 21
M  V30 39 1 33 28
M  V30 40 1 18 9
M  V30 41 1 37 24
M  V30 42 1 15 13
M  V30 43 1 1 38
M  V30 44 1 1 39
M  V30 45 1 1 40
M  V30 46 1 3 41
M  V30 47 1 4 42
M  V30 48 1 6 43
M  V30 49 1 10 44
M  V30 50 1 13 45
M  V30 51 1 14 46
M  V30 52 1 14 47
M  V30 53 1 15 48
M  V30 54 1 15 49
M  V30 55 1 16 50
M  V30 56 1 19 51
M  V30 57 1 22 52
M  V30 58 1 23 53
M  V30 59 1 26 54
M  V30 60 1 29 55
M  V30 61 1 29 56
M  V30 62 1 30 57
M  V30 63 1 30 58
M  V30 64 1 32 59
M  V30 65 1 32 60
M  V30 66 1 33 61
M  V30 67 1 33 62
M  V30 68 1 34 63
M  V30 69 1 34 64
M  V30 70 1 37 65
M  V30 END BOND
M  V30 END CTAB
M  END
>  <Dataset>  (215) 
ChEMBL_Kinases

>  <Ligand_Instance>  (215) 
nan

>  <PDB_ID>  (215) 
nan

>  <Standardized_SMILES>  (215) 
Cc1ccc(NC(=O)c2cc(OC3CC3)cnn2)cc1-c1ccc2c(c1)OC1(CCOCC1)CC(=O)N2

>  <Name>  (215) 
nan

>  <Pocket>  (215) 
nan

>  <ATP_Site>  (215) 
nan

>  <Peripheral>  (215) 
nan

>  <Num_H_Atoms_ProtBoundConf>  (215) 
nan

>  <Num_Resolved_Atoms>  (215) 
nan

>  <Num_Not_Resolved_Atoms>  (215) 
nan

$$$$
CHEMBL5078580
     RDKit          3D

  0  0  0  0  0  0  0  0  0  0999 V3000
M  V30 BEGIN CTAB
M  V30 COUNTS 49 51 0 0 0
M  V30 BEGIN ATOM
M  V30 1 C -1.273600 -6.493506 0.078633 0
M  V30 2 C -1.140371 -4.968600 0.280895 0
M  V30 3 C 0.205550 -4.614025 -0.188784 0
M  V30 4 C 1.237172 -5.468248 -0.600123 0
M  V30 5 N 2.323758 -4.800403 -0.954162 0
M  V30 6 C 2.064104 -3.483364 -0.795284 0
M  V30 7 N 2.864539 -2.411406 -1.029103 0
M  V30 8 C 2.324622 -1.199834 -0.777081 0
M  V30 9 C 1.019795 -1.007329 -0.302012 0
M  V30 10 C 0.784411 0.411776 -0.103579 0
M  V30 11 C 0.930206 1.214822 -1.240770 0
M  V30 12 C 0.763101 2.594129 -1.220527 0
M  V30 13 C 0.439202 3.222408 -0.040335 0
M  V30 14 N 0.268667 4.632295 -0.019827 0
M  V30 15 C 0.294252 2.441103 1.083825 0
M  V30 16 C -0.043175 3.140529 2.299270 0
M  V30 17 O -0.180881 4.390649 2.303041 0
M  V30 18 N -0.297166 2.830912 3.641572 0
M  V30 19 C -0.590305 4.038669 4.400088 0
M  V30 20 C -0.297438 1.536272 4.286117 0
M  V30 21 C 0.461498 1.079232 1.054696 0
M  V30 22 C 0.224388 -2.108741 -0.072930 0
M  V30 23 C -1.141845 -1.866588 0.379462 0
M  V30 24 C -2.036988 -1.428471 -0.799816 0
M  V30 25 C 0.753367 -3.359087 -0.321496 0
M  V30 26 H -2.326577 -6.800800 0.215812 0
M  V30 27 H -0.880866 -6.778877 -0.916845 0
M  V30 28 H -0.590007 -6.965531 0.831755 0
M  V30 29 H -1.236728 -4.886953 1.394842 0
M  V30 30 H -1.976635 -4.578488 -0.291405 0
M  V30 31 H 1.161743 -6.556895 -0.627852 0
M  V30 32 H 3.214264 -5.227300 -1.293752 0
M  V30 33 H 3.066061 -0.413362 -1.004321 0
M  V30 34 H 1.186158 0.808663 -2.224086 0
M  V30 35 H 0.883059 3.188305 -2.115743 0
M  V30 36 H -0.738637 4.883389 -0.141201 0
M  V30 37 H 1.073528 5.289836 0.103241 0
M  V30 38 H -1.555979 4.499430 4.103926 0
M  V30 39 H -0.552809 3.848105 5.492410 0
M  V30 40 H 0.214445 4.776008 4.202522 0
M  V30 41 H -1.098283 0.931103 3.797044 0
M  V30 42 H -0.688841 1.675978 5.336127 0
M  V30 43 H 0.659144 1.013628 4.273930 0
M  V30 44 H 0.358432 0.517476 1.945333 0
M  V30 45 H -1.144263 -0.951741 1.030821 0
M  V30 46 H -1.616025 -2.616353 1.000662 0
M  V30 47 H -2.014226 -0.345100 -0.964544 0
M  V30 48 H -1.699610 -1.999031 -1.709779 0
M  V30 49 H -3.061310 -1.742137 -0.535071 0
M  V30 END ATOM
M  V30 BEGIN BOND
M  V30 1 1 1 2
M  V30 2 1 2 3
M  V30 3 2 3 4
M  V30 4 1 4 5
M  V30 5 1 5 6
M  V30 6 2 6 7
M  V30 7 1 7 8
M  V30 8 2 8 9
M  V30 9 1 9 10
M  V30 10 2 10 11
M  V30 11 1 11 12
M  V30 12 2 12 13
M  V30 13 1 13 14
M  V30 14 1 13 15
M  V30 15 1 15 16
M  V30 16 2 16 17
M  V30 17 1 16 18
M  V30 18 1 18 19
M  V30 19 1 18 20
M  V30 20 2 15 21
M  V30 21 1 9 22
M  V30 22 1 22 23
M  V30 23 1 23 24
M  V30 24 2 22 25
M  V30 25 1 25 3
M  V30 26 1 25 6
M  V30 27 1 21 10
M  V30 28 1 1 26
M  V30 29 1 1 27
M  V30 30 1 1 28
M  V30 31 1 2 29
M  V30 32 1 2 30
M  V30 33 1 4 31
M  V30 34 1 5 32
M  V30 35 1 8 33
M  V30 36 1 11 34
M  V30 37 1 12 35
M  V30 38 1 14 36
M  V30 39 1 14 37
M  V30 40 1 19 38
M  V30 41 1 19 39
M  V30 42 1 19 40
M  V30 43 1 20 41
M  V30 44 1 20 42
M  V30 45 1 20 43
M  V30 46 1 21 44
M  V30 47 1 23 45
M  V30 48 1 23 46
M  V30 49 1 24 47
M  V30 50 1 24 48
M  V30 51 1 24 49
M  V30 END BOND
M  V30 END CTAB
M  END
>  <Dataset>  (216) 
ChEMBL_Kinases

>  <Ligand_Instance>  (216) 
nan

>  <PDB_ID>  (216) 
nan

>  <Standardized_SMILES>  (216) 
CCc1c[nH]c2ncc(-c3ccc(N)c(C(=O)N(C)C)c3)c(CC)c12

>  <Name>  (216) 
nan

>  <Pocket>  (216) 
nan

>  <ATP_Site>  (216) 
nan

>  <Peripheral>  (216) 
nan

>  <Num_H_Atoms_ProtBoundConf>  (216) 
nan

>  <Num_Resolved_Atoms>  (216) 
nan

>  <Num_Not_Resolved_Atoms>  (216) 
nan

$$$$
CHEMBL3782009
     RDKit          3D

  0  0  0  0  0  0  0  0  0  0999 V3000
M  V30 BEGIN CTAB
M  V30 COUNTS 77 81 0 0 0
M  V30 BEGIN ATOM
M  V30 1 C 6.847770 -4.559953 2.975802 0
M  V30 2 C 6.594639 -3.219217 3.589636 0
M  V30 3 O 6.422528 -3.158018 4.835458 0
M  V30 4 N 6.560674 -2.079274 2.736737 0
M  V30 5 C 6.318942 -0.809288 3.333042 0
M  V30 6 N 6.119983 -0.614042 4.652021 0
M  V30 7 C 5.923281 0.723712 4.840714 0
M  V30 8 C 6.007734 1.334483 3.605000 0
M  V30 9 N 6.251844 0.383567 2.679790 0
M  V30 10 C 6.415706 0.554485 1.270240 0
M  V30 11 C 5.148365 0.456586 0.483718 0
M  V30 12 O 4.174994 1.397094 0.824300 0
M  V30 13 C 2.951868 1.409846 0.164940 0
M  V30 14 C 2.661614 0.504378 -0.836494 0
M  V30 15 C 1.398857 0.630149 -1.412487 0
M  V30 16 C 0.517764 1.607256 -0.987230 0
M  V30 17 N -0.749430 1.604370 -1.685311 0
M  V30 18 C -1.721684 0.756917 -1.035777 0
M  V30 19 O -1.358885 0.155156 0.008991 0
M  V30 20 N -3.026895 0.667177 -1.633140 0
M  V30 21 C -3.986249 -0.183557 -0.971882 0
M  V30 22 C -4.965679 -0.112504 0.009990 0
M  V30 23 C -5.510225 -1.374405 0.130972 0
M  V30 24 C -6.587675 -1.565005 1.123356 0
M  V30 25 C -7.062982 -3.008274 1.117331 0
M  V30 26 C -7.791064 -0.687938 0.874891 0
M  V30 27 C -6.070034 -1.312651 2.544988 0
M  V30 28 N -4.879675 -2.175420 -0.747755 0
M  V30 29 N -3.963849 -1.473244 -1.414903 0
M  V30 30 C -3.196894 -2.184925 -2.397986 0
M  V30 31 C -3.753902 -2.140801 -3.661885 0
M  V30 32 C -3.103669 -2.792911 -4.699256 0
M  V30 33 C -1.923441 -3.457994 -4.412643 0
M  V30 34 C -1.280926 -4.133939 -5.569810 0
M  V30 35 C -1.379984 -3.493148 -3.146451 0
M  V30 36 C -2.020508 -2.847471 -2.110750 0
M  V30 37 C 0.839580 2.498620 0.018407 0
M  V30 38 C -0.115779 3.429497 0.359908 0
M  V30 39 C 0.250364 4.312210 1.381821 0
M  V30 40 C 1.484771 4.241109 1.993102 0
M  V30 41 C 2.403394 3.282855 1.605978 0
M  V30 42 C 2.099891 2.398715 0.617115 0
M  V30 43 H 7.889738 -4.860883 3.286826 0
M  V30 44 H 6.194357 -5.345509 3.362776 0
M  V30 45 H 6.894750 -4.484914 1.878274 0
M  V30 46 H 6.704976 -2.136549 1.698034 0
M  V30 47 H 5.733940 1.268479 5.746172 0
M  V30 48 H 5.911344 2.374999 3.322367 0
M  V30 49 H 7.092204 -0.246090 0.903183 0
M  V30 50 H 6.918975 1.521735 1.008193 0
M  V30 51 H 4.717606 -0.571200 0.527443 0
M  V30 52 H 5.419540 0.619664 -0.586815 0
M  V30 53 H 3.369864 -0.244630 -1.144453 0
M  V30 54 H 1.156396 -0.069607 -2.196367 0
M  V30 55 H -0.959646 2.140862 -2.554023 0
M  V30 56 H -3.242978 1.192892 -2.489986 0
M  V30 57 H -5.073665 0.873113 0.437501 0
M  V30 58 H -7.467265 -3.245077 2.127058 0
M  V30 59 H -7.836008 -3.212577 0.361688 0
M  V30 60 H -6.215896 -3.699879 0.900245 0
M  V30 61 H -8.349232 -1.072264 -0.004809 0
M  V30 62 H -8.413870 -0.749368 1.812630 0
M  V30 63 H -7.525321 0.378201 0.786055 0
M  V30 64 H -5.342714 -0.477690 2.497062 0
M  V30 65 H -6.918253 -1.107748 3.229069 0
M  V30 66 H -5.528750 -2.183711 2.954234 0
M  V30 67 H -4.677366 -1.623485 -3.898998 0
M  V30 68 H -3.543993 -2.758731 -5.701320 0
M  V30 69 H -1.256336 -3.440332 -6.423620 0
M  V30 70 H -0.271254 -4.497726 -5.255958 0
M  V30 71 H -1.868631 -5.041645 -5.873137 0
M  V30 72 H -0.462940 -4.016689 -2.952057 0
M  V30 73 H -1.647218 -2.831927 -1.074982 0
M  V30 74 H -1.069263 3.443713 -0.150119 0
M  V30 75 H -0.510688 5.053368 1.653500 0
M  V30 76 H 1.721073 4.945579 2.777987 0
M  V30 77 H 3.373133 3.228431 2.087530 0
M  V30 END ATOM
M  V30 BEGIN BOND
M  V30 1 1 1 2
M  V30 2 2 2 3
M  V30 3 1 2 4
M  V30 4 1 4 5
M  V30 5 2 5 6
M  V30 6 1 6 7
M  V30 7 2 7 8
M  V30 8 1 8 9
M  V30 9 1 9 10
M  V30 10 1 10 11
M  V30 11 1 11 12
M  V30 12 1 12 13
M  V30 13 2 13 14
M  V30 14 1 14 15
M  V30 15 2 15 16
M  V30 16 1 16 17
M  V30 17 1 17 18
M  V30 18 2 18 19
M  V30 19 1 18 20
M  V30 20 1 20 21
M  V30 21 2 21 22
M  V30 22 1 22 23
M  V30 23 1 23 24
M  V30 24 1 24 25
M  V30 25 1 24 26
M  V30 26 1 24 27
M  V30 27 2 23 28
M  V30 28 1 28 29
M  V30 29 1 29 30
M  V30 30 2 30 31
M  V30 31 1 31 32
M  V30 32 2 32 33
M  V30 33 1 33 34
M  V30 34 1 33 35
M  V30 35 2 35 36
M  V30 36 1 16 37
M  V30 37 2 37 38
M  V30 38 1 38 39
M  V30 39 2 39 40
M  V30 40 1 40 41
M  V30 41 2 41 42
M  V30 42 1 9 5
M  V30 43 1 42 13
M  V30 44 1 29 21
M  V30 45 1 36 30
M  V30 46 1 42 37
M  V30 47 1 1 43
M  V30 48 1 1 44
M  V30 49 1 1 45
M  V30 50 1 4 46
M  V30 51 1 7 47
M  V30 52 1 8 48
M  V30 53 1 10 49
M  V30 54 1 10 50
M  V30 55 1 11 51
M  V30 56 1 11 52
M  V30 57 1 14 53
M  V30 58 1 15 54
M  V30 59 1 17 55
M  V30 60 1 20 56
M  V30 61 1 22 57
M  V30 62 1 25 58
M  V30 63 1 25 59
M  V30 64 1 25 60
M  V30 65 1 26 61
M  V30 66 1 26 62
M  V30 67 1 26 63
M  V30 68 1 27 64
M  V30 69 1 27 65
M  V30 70 1 27 66
M  V30 71 1 31 67
M  V30 72 1 32 68
M  V30 73 1 34 69
M  V30 74 1 34 70
M  V30 75 1 34 71
M  V30 76 1 35 72
M  V30 77 1 36 73
M  V30 78 1 38 74
M  V30 79 1 39 75
M  V30 80 1 40 76
M  V30 81 1 41 77
M  V30 END BOND
M  V30 END CTAB
M  END
>  <Dataset>  (217) 
ChEMBL_Kinases

>  <Ligand_Instance>  (217) 
nan

>  <PDB_ID>  (217) 
nan

>  <Standardized_SMILES>  (217) 
CC(=O)Nc1nccn1CCOc1ccc(NC(=O)Nc2cc(C(C)(C)C)nn2-c2ccc(C)cc2)c2ccccc12

>  <Name>  (217) 
nan

>  <Pocket>  (217) 
nan

>  <ATP_Site>  (217) 
nan

>  <Peripheral>  (217) 
nan

>  <Num_H_Atoms_ProtBoundConf>  (217) 
nan

>  <Num_Resolved_Atoms>  (217) 
nan

>  <Num_Not_Resolved_Atoms>  (217) 
nan

$$$$
CHEMBL5078647
     RDKit          3D

  0  0  0  0  0  0  0  0  0  0999 V3000
M  V30 BEGIN CTAB
M  V30 COUNTS 47 49 0 0 0
M  V30 BEGIN ATOM
M  V30 1 C 1.660599 -3.630752 0.789194 0
M  V30 2 C 1.557181 -3.502193 -0.725525 0
M  V30 3 C 2.167779 -2.259468 -1.205000 0
M  V30 4 C 3.395269 -2.191427 -1.827170 0
M  V30 5 C 3.970766 -1.014037 -2.258772 0
M  V30 6 O 5.208090 -1.108296 -2.865890 0
M  V30 7 C 3.249871 0.141382 -2.039428 0
M  V30 8 F 3.813454 1.289873 -2.461246 0
M  V30 9 C 2.003461 0.089897 -1.410241 0
M  V30 10 C 1.439548 -1.117708 -0.981106 0
M  V30 11 C 0.136363 -0.891633 -0.381581 0
M  V30 12 C 0.079612 0.034651 0.667991 0
M  V30 13 C -1.049859 0.421796 1.377200 0
M  V30 14 N -1.010695 1.395372 2.436351 0
M  V30 15 C 0.111276 2.102821 2.972572 0 CFG=1
M  V30 16 C -0.439306 3.159687 3.953729 0
M  V30 17 C 0.989291 1.170052 3.821146 0
M  V30 18 O 0.173401 0.686906 4.873906 0
M  V30 19 C -2.229672 -0.197454 0.972372 0
M  V30 20 N -3.370521 0.101447 1.585191 0
M  V30 21 C -4.558488 -0.450589 1.257189 0
M  V30 22 N -5.767213 -0.110158 1.932993 0
M  V30 23 N -4.547265 -1.347454 0.250753 0
M  V30 24 C -3.430592 -1.687688 -0.402515 0
M  V30 25 C -2.231141 -1.112492 -0.051338 0
M  V30 26 C -1.068893 -1.438563 -0.699997 0
M  V30 27 H 2.375409 -2.864732 1.172277 0
M  V30 28 H 1.990030 -4.656759 1.091271 0
M  V30 29 H 0.668591 -3.432877 1.226100 0
M  V30 30 H 0.548544 -3.707837 -1.078798 0
M  V30 31 H 2.191019 -4.339565 -1.153113 0
M  V30 32 H 3.888392 -3.149870 -1.956659 0
M  V30 33 H 6.049239 -1.457858 -2.433452 0
M  V30 34 H 1.553410 1.089419 -1.307192 0
M  V30 35 H 1.005944 0.514922 0.962454 0
M  V30 36 H -1.980523 1.576281 2.843073 0
M  V30 37 H 0.775404 2.571498 2.226740 0
M  V30 38 H -0.663779 2.574242 4.892836 0
M  V30 39 H -1.396700 3.559635 3.605913 0
M  V30 40 H 0.319528 3.915549 4.206292 0
M  V30 41 H 1.285799 0.261540 3.269797 0
M  V30 42 H 1.851715 1.718103 4.234836 0
M  V30 43 H 0.611646 -0.102337 5.280219 0
M  V30 44 H -6.334136 0.531997 1.305777 0
M  V30 45 H -5.901155 -0.518662 2.881090 0
M  V30 46 H -3.398404 -2.412787 -1.222005 0
M  V30 47 H -1.102204 -2.148146 -1.506636 0
M  V30 END ATOM
M  V30 BEGIN BOND
M  V30 1 1 1 2
M  V30 2 1 2 3
M  V30 3 2 3 4
M  V30 4 1 4 5
M  V30 5 1 5 6
M  V30 6 2 5 7
M  V30 7 1 7 8
M  V30 8 1 7 9
M  V30 9 2 9 10
M  V30 10 1 10 11
M  V30 11 2 11 12
M  V30 12 1 12 13
M  V30 13 1 13 14
M  V30 14 1 14 15
M  V30 15 1 15 16
M  V30 16 1 15 17
M  V30 17 1 17 18
M  V30 18 2 13 19
M  V30 19 1 19 20
M  V30 20 2 20 21
M  V30 21 1 21 22
M  V30 22 1 21 23
M  V30 23 2 23 24
M  V30 24 1 24 25
M  V30 25 2 25 26
M  V30 26 1 10 3
M  V30 27 1 26 11
M  V30 28 1 25 19
M  V30 29 1 1 27
M  V30 30 1 1 28
M  V30 31 1 1 29
M  V30 32 1 2 30
M  V30 33 1 2 31
M  V30 34 1 4 32
M  V30 35 1 6 33
M  V30 36 1 9 34
M  V30 37 1 12 35
M  V30 38 1 14 36
M  V30 39 1 15 37 CFG=3
M  V30 40 1 16 38
M  V30 41 1 16 39
M  V30 42 1 16 40
M  V30 43 1 17 41
M  V30 44 1 17 42
M  V30 45 1 18 43
M  V30 46 1 22 44
M  V30 47 1 22 45
M  V30 48 1 24 46
M  V30 49 1 26 47
M  V30 END BOND
M  V30 END CTAB
M  END
>  <Dataset>  (218) 
ChEMBL_Kinases

>  <Ligand_Instance>  (218) 
nan

>  <PDB_ID>  (218) 
nan

>  <Standardized_SMILES>  (218) 
CCc1cc(O)c(F)cc1-c1cc(N[C@@H](C)CO)c2nc(N)ncc2c1

>  <Name>  (218) 
nan

>  <Pocket>  (218) 
nan

>  <ATP_Site>  (218) 
nan

>  <Peripheral>  (218) 
nan

>  <Num_H_Atoms_ProtBoundConf>  (218) 
nan

>  <Num_Resolved_Atoms>  (218) 
nan

>  <Num_Not_Resolved_Atoms>  (218) 
nan

$$$$
CHEMBL5078891
     RDKit          3D

  0  0  0  0  0  0  0  0  0  0999 V3000
M  V30 BEGIN CTAB
M  V30 COUNTS 48 49 0 0 0
M  V30 BEGIN ATOM
M  V30 1 C -1.298248 -7.326433 2.019957 0
M  V30 2 C -1.808255 -5.937819 2.153642 0
M  V30 3 C -1.218749 -4.939462 1.413320 0
M  V30 4 C -1.682528 -3.652055 1.530316 0
M  V30 5 C -1.207850 -2.459041 0.845690 0
M  V30 6 C 0.117936 -2.353555 0.511589 0
M  V30 7 N 0.587380 -1.296132 -0.105899 0
M  V30 8 C -0.152518 -0.241974 -0.463932 0
M  V30 9 O 0.089321 0.886418 -1.067692 0
M  V30 10 C 0.932740 1.729975 -1.665196 0
M  V30 11 C 2.078912 2.228546 -0.851244 0 CFG=1
M  V30 12 C 3.160852 1.189501 -0.618255 0
M  V30 13 N 2.779918 3.160855 -1.815668 0
M  V30 14 C 1.822935 3.109468 0.278916 0
M  V30 15 C 1.021099 2.777440 1.439538 0
M  V30 16 C 1.469366 1.588203 2.251941 0
M  V30 17 C -0.477765 2.767105 1.297151 0
M  V30 18 C -1.501353 -0.332808 -0.132264 0
M  V30 19 C -2.495827 0.671492 -0.426043 0
M  V30 20 N -3.281417 1.490804 -0.671256 0
M  V30 21 C -2.062304 -1.438853 0.528463 0
M  V30 22 C -2.743001 -3.446822 2.412706 0
M  V30 23 C -3.304905 -4.466858 3.133563 0
M  V30 24 N -2.821721 -5.720293 2.992039 0
M  V30 25 H -1.438719 -7.842687 3.004186 0
M  V30 26 H -1.852225 -7.827228 1.196614 0
M  V30 27 H -0.201179 -7.319338 1.856966 0
M  V30 28 H -0.404593 -5.070894 0.731363 0
M  V30 29 H 0.856441 -3.122333 0.728105 0
M  V30 30 H 1.333814 1.167232 -2.592566 0
M  V30 31 H 0.424474 2.593981 -2.207044 0
M  V30 32 H 3.861462 1.095122 -1.501216 0
M  V30 33 H 3.836189 1.478367 0.207978 0
M  V30 34 H 2.786906 0.169948 -0.482739 0
M  V30 35 H 3.190108 2.608266 -2.594561 0
M  V30 36 H 3.416066 3.781580 -1.309589 0
M  V30 37 H 2.834001 3.479045 0.636879 0
M  V30 38 H 1.378834 4.064811 -0.151008 0
M  V30 39 H 1.222468 3.638319 2.173321 0
M  V30 40 H 2.414223 1.831851 2.822460 0
M  V30 41 H 0.701643 1.463124 3.052589 0
M  V30 42 H 1.529629 0.645977 1.717488 0
M  V30 43 H -0.946283 3.550699 1.968569 0
M  V30 44 H -0.843685 3.053248 0.291720 0
M  V30 45 H -0.926329 1.824868 1.693629 0
M  V30 46 H -3.078536 -1.569763 0.808754 0
M  V30 47 H -3.228709 -2.488307 2.622125 0
M  V30 48 H -4.125995 -4.360798 3.829322 0
M  V30 END ATOM
M  V30 BEGIN BOND
M  V30 1 1 1 2
M  V30 2 2 2 3
M  V30 3 1 3 4
M  V30 4 1 4 5
M  V30 5 2 5 6
M  V30 6 1 6 7
M  V30 7 2 7 8
M  V30 8 1 8 9
M  V30 9 1 9 10
M  V30 10 1 10 11
M  V30 11 1 11 12
M  V30 12 1 11 13 CFG=3
M  V30 13 1 11 14
M  V30 14 1 14 15
M  V30 15 1 15 16
M  V30 16 1 15 17
M  V30 17 1 8 18
M  V30 18 1 18 19
M  V30 19 3 19 20
M  V30 20 2 18 21
M  V30 21 2 4 22
M  V30 22 1 22 23
M  V30 23 2 23 24
M  V30 24 1 24 2
M  V30 25 1 21 5
M  V30 26 1 1 25
M  V30 27 1 1 26
M  V30 28 1 1 27
M  V30 29 1 3 28
M  V30 30 1 6 29
M  V30 31 1 10 30
M  V30 32 1 10 31
M  V30 33 1 12 32
M  V30 34 1 12 33
M  V30 35 1 12 34
M  V30 36 1 13 35
M  V30 37 1 13 36
M  V30 38 1 14 37
M  V30 39 1 14 38
M  V30 40 1 15 39
M  V30 41 1 16 40
M  V30 42 1 16 41
M  V30 43 1 16 42
M  V30 44 1 17 43
M  V30 45 1 17 44
M  V30 46 1 17 45
M  V30 47 1 21 46
M  V30 48 1 22 47
M  V30 49 1 23 48
M  V30 END BOND
M  V30 END CTAB
M  END
>  <Dataset>  (219) 
ChEMBL_Kinases

>  <Ligand_Instance>  (219) 
nan

>  <PDB_ID>  (219) 
nan

>  <Standardized_SMILES>  (219) 
Cc1cc(-c2cnc(OC[C@@](C)(N)CC(C)C)c(C#N)c2)ccn1

>  <Name>  (219) 
nan

>  <Pocket>  (219) 
nan

>  <ATP_Site>  (219) 
nan

>  <Peripheral>  (219) 
nan

>  <Num_H_Atoms_ProtBoundConf>  (219) 
nan

>  <Num_Resolved_Atoms>  (219) 
nan

>  <Num_Not_Resolved_Atoms>  (219) 
nan

$$$$
CHEMBL3781939
     RDKit          3D

  0  0  0  0  0  0  0  0  0  0999 V3000
M  V30 BEGIN CTAB
M  V30 COUNTS 45 48 0 0 0
M  V30 BEGIN ATOM
M  V30 1 C -1.554430 -7.194408 -1.304842 0
M  V30 2 O -1.922626 -5.975700 -1.887520 0
M  V30 3 C -1.064284 -4.922479 -2.062249 0
M  V30 4 C 0.258093 -4.973922 -1.672416 0
M  V30 5 C 1.099257 -3.884208 -1.866312 0
M  V30 6 C 0.557832 -2.760919 -2.459834 0
M  V30 7 N 1.313119 -1.557317 -2.722573 0
M  V30 8 C 1.306233 -0.604403 -1.683024 0
M  V30 9 O 0.649158 -0.956591 -0.706686 0
M  V30 10 N 1.934572 0.636129 -1.644229 0
M  V30 11 C 2.048647 1.703745 -0.730758 0
M  V30 12 C 2.803323 2.781938 -1.127604 0
M  V30 13 N 2.979279 3.848165 -0.343343 0
M  V30 14 C 2.437392 3.941862 0.875471 0
M  V30 15 C 1.666803 2.906284 1.351002 0
M  V30 16 N 1.104182 2.960198 2.569806 0
M  V30 17 C 0.348337 1.961858 3.055026 0
M  V30 18 C -0.257307 2.029071 4.376997 0
M  V30 19 C -1.042864 1.044853 4.938727 0
M  V30 20 C -1.575127 1.216471 6.221658 0
M  V30 21 C -1.324297 2.361485 6.936300 0
M  V30 22 C -0.543394 3.358248 6.397674 0
M  V30 23 C -0.036436 3.158861 5.137071 0
M  V30 24 C 0.205357 0.892530 2.199395 0
M  V30 25 N 0.763481 0.836857 0.987970 0
M  V30 26 C 1.504000 1.823938 0.522262 0
M  V30 27 C -0.748726 -2.682673 -2.855798 0
M  V30 28 C -1.563270 -3.791079 -2.647104 0
M  V30 29 H -1.195653 -7.957896 -2.031426 0
M  V30 30 H -0.791587 -7.095560 -0.514204 0
M  V30 31 H -2.463257 -7.615061 -0.823716 0
M  V30 32 H 0.673992 -5.857283 -1.208428 0
M  V30 33 H 2.152319 -3.859081 -1.581890 0
M  V30 34 H 1.868085 -1.306205 -3.597024 0
M  V30 35 H 2.443415 0.747252 -2.574201 0
M  V30 36 H 3.318291 2.874307 -2.090662 0
M  V30 37 H 2.602922 4.817274 1.475918 0
M  V30 38 H -1.228356 0.151025 4.359583 0
M  V30 39 H -2.169621 0.386731 6.555401 0
M  V30 40 H -1.770057 2.439499 7.940018 0
M  V30 41 H -0.347847 4.259493 6.964054 0
M  V30 42 H 0.579190 3.993896 4.765434 0
M  V30 43 H -0.387748 0.042226 2.508134 0
M  V30 44 H -1.191250 -1.806916 -3.324234 0
M  V30 45 H -2.610308 -3.745496 -2.957677 0
M  V30 END ATOM
M  V30 BEGIN BOND
M  V30 1 1 1 2
M  V30 2 1 2 3
M  V30 3 2 3 4
M  V30 4 1 4 5
M  V30 5 2 5 6
M  V30 6 1 6 7
M  V30 7 1 7 8
M  V30 8 2 8 9
M  V30 9 1 8 10
M  V30 10 1 10 11
M  V30 11 2 11 12
M  V30 12 1 12 13
M  V30 13 2 13 14
M  V30 14 1 14 15
M  V30 15 2 15 16
M  V30 16 1 16 17
M  V30 17 1 17 18
M  V30 18 2 18 19
M  V30 19 1 19 20
M  V30 20 2 20 21
M  V30 21 1 21 22
M  V30 22 2 22 23
M  V30 23 2 17 24
M  V30 24 1 24 25
M  V30 25 2 25 26
M  V30 26 1 6 27
M  V30 27 2 27 28
M  V30 28 1 28 3
M  V30 29 1 26 11
M  V30 30 1 26 15
M  V30 31 1 23 18
M  V30 32 1 1 29
M  V30 33 1 1 30
M  V30 34 1 1 31
M  V30 35 1 4 32
M  V30 36 1 5 33
M  V30 37 1 7 34
M  V30 38 1 10 35
M  V30 39 1 12 36
M  V30 40 1 14 37
M  V30 41 1 19 38
M  V30 42 1 20 39
M  V30 43 1 21 40
M  V30 44 1 22 41
M  V30 45 1 23 42
M  V30 46 1 24 43
M  V30 47 1 27 44
M  V30 48 1 28 45
M  V30 END BOND
M  V30 END CTAB
M  END
>  <Dataset>  (220) 
ChEMBL_Kinases

>  <Ligand_Instance>  (220) 
nan

>  <PDB_ID>  (220) 
nan

>  <Standardized_SMILES>  (220) 
COc1ccc(NC(=O)Nc2cncc3nc(-c4ccccc4)cnc23)cc1

>  <Name>  (220) 
nan

>  <Pocket>  (220) 
nan

>  <ATP_Site>  (220) 
nan

>  <Peripheral>  (220) 
nan

>  <Num_H_Atoms_ProtBoundConf>  (220) 
nan

>  <Num_Resolved_Atoms>  (220) 
nan

>  <Num_Not_Resolved_Atoms>  (220) 
nan

$$$$
CHEMBL3781760
     RDKit          3D

  0  0  0  0  0  0  0  0  0  0999 V3000
M  V30 BEGIN CTAB
M  V30 COUNTS 34 36 0 0 0
M  V30 BEGIN ATOM
M  V30 1 C -3.657511 -2.959896 3.790861 0
M  V30 2 C -2.688680 -2.788631 2.699197 0
M  V30 3 C -1.384221 -2.441033 2.981121 0
M  V30 4 C -0.570522 -2.309755 1.877213 0
M  V30 5 C -0.931309 -2.488216 0.562053 0
M  V30 6 N -0.091884 -2.340806 -0.561143 0
M  V30 7 C 1.278335 -1.964588 -0.792941 0
M  V30 8 N 1.561023 -0.581405 -0.529947 0
M  V30 9 C 1.353754 0.266591 -1.682301 0
M  V30 10 O 0.972341 0.083765 -2.873731 0
M  V30 11 C 1.673374 1.651608 -1.340414 0
M  V30 12 C 1.691614 2.899424 -1.943074 0
M  V30 13 C 2.068059 4.045846 -1.281984 0
M  V30 14 C 2.452084 4.018558 0.029518 0
M  V30 15 C 2.452125 2.801862 0.677338 0
M  V30 16 C 2.069199 1.683016 -0.020333 0
M  V30 17 C 2.000246 0.324587 0.469499 0
M  V30 18 O 2.260369 -0.145082 1.592318 0
M  V30 19 C -2.248551 -2.834253 0.354384 0
M  V30 20 C -3.120400 -2.983866 1.405984 0
M  V30 21 H -4.031969 -2.014687 4.206720 0
M  V30 22 H -4.505142 -3.577096 3.463628 0
M  V30 23 H -3.189371 -3.501969 4.639323 0
M  V30 24 H -1.021083 -2.282693 3.980703 0
M  V30 25 H 0.449260 -2.048039 2.092295 0
M  V30 26 H -0.516826 -2.539123 -1.503162 0
M  V30 27 H 1.852384 -2.547325 0.012436 0
M  V30 28 H 1.711842 -2.340631 -1.724888 0
M  V30 29 H 1.385057 2.933659 -2.996628 0
M  V30 30 H 2.044328 4.979071 -1.858933 0
M  V30 31 H 2.729618 4.947112 0.472536 0
M  V30 32 H 2.751241 2.770019 1.704485 0
M  V30 33 H -2.653102 -3.003529 -0.652636 0
M  V30 34 H -4.147290 -3.255980 1.208746 0
M  V30 END ATOM
M  V30 BEGIN BOND
M  V30 1 1 1 2
M  V30 2 2 2 3
M  V30 3 1 3 4
M  V30 4 2 4 5
M  V30 5 1 5 6
M  V30 6 1 6 7
M  V30 7 1 7 8
M  V30 8 1 8 9
M  V30 9 2 9 10
M  V30 10 1 9 11
M  V30 11 2 11 12
M  V30 12 1 12 13
M  V30 13 2 13 14
M  V30 14 1 14 15
M  V30 15 2 15 16
M  V30 16 1 16 17
M  V30 17 2 17 18
M  V30 18 1 5 19
M  V30 19 2 19 20
M  V30 20 1 20 2
M  V30 21 1 17 8
M  V30 22 1 16 11
M  V30 23 1 1 21
M  V30 24 1 1 22
M  V30 25 1 1 23
M  V30 26 1 3 24
M  V30 27 1 4 25
M  V30 28 1 6 26
M  V30 29 1 7 27
M  V30 30 1 7 28
M  V30 31 1 12 29
M  V30 32 1 13 30
M  V30 33 1 14 31
M  V30 34 1 15 32
M  V30 35 1 19 33
M  V30 36 1 20 34
M  V30 END BOND
M  V30 END CTAB
M  END
>  <Dataset>  (221) 
ChEMBL_Kinases

>  <Ligand_Instance>  (221) 
nan

>  <PDB_ID>  (221) 
nan

>  <Standardized_SMILES>  (221) 
Cc1ccc(NCN2C(=O)c3ccccc3C2=O)cc1

>  <Name>  (221) 
nan

>  <Pocket>  (221) 
nan

>  <ATP_Site>  (221) 
nan

>  <Peripheral>  (221) 
nan

>  <Num_H_Atoms_ProtBoundConf>  (221) 
nan

>  <Num_Resolved_Atoms>  (221) 
nan

>  <Num_Not_Resolved_Atoms>  (221) 
nan

$$$$
CHEMBL3781731
     RDKit          3D

  0  0  0  0  0  0  0  0  0  0999 V3000
M  V30 BEGIN CTAB
M  V30 COUNTS 35 37 0 0 0
M  V30 BEGIN ATOM
M  V30 1 C -0.269756 -4.346317 5.303003 0
M  V30 2 O 0.427497 -3.201545 4.875399 0
M  V30 3 C 0.601312 -2.861639 3.547026 0
M  V30 4 C 0.077370 -3.663831 2.558042 0
M  V30 5 C 0.218542 -3.376212 1.226859 0
M  V30 6 C 0.920363 -2.225348 0.845344 0
M  V30 7 N 1.106278 -1.895073 -0.517004 0
M  V30 8 C 1.710296 -0.827839 -1.282985 0
M  V30 9 N 0.994873 0.429389 -1.209836 0
M  V30 10 C 0.921535 1.639638 -0.476064 0
M  V30 11 O 1.730320 1.804957 0.468633 0
M  V30 12 C -0.128567 2.514919 -0.976201 0
M  V30 13 C -0.458481 3.760310 -0.483527 0
M  V30 14 C -1.495583 4.424893 -1.111498 0
M  V30 15 C -2.139217 3.829671 -2.176041 0
M  V30 16 C -1.752225 2.579565 -2.612810 0
M  V30 17 C -0.727126 1.862631 -2.032307 0
M  V30 18 C -0.048771 0.581375 -2.188319 0
M  V30 19 O -0.481346 -0.150779 -3.126479 0
M  V30 20 C 1.423592 -1.459140 1.875507 0
M  V30 21 C 1.300813 -1.717503 3.225010 0
M  V30 22 H 0.308928 -5.289383 5.220536 0
M  V30 23 H -1.198733 -4.447571 4.672937 0
M  V30 24 H -0.576714 -4.232350 6.381597 0
M  V30 25 H -0.476296 -4.568059 2.771042 0
M  V30 26 H -0.207623 -4.030023 0.453777 0
M  V30 27 H 0.693790 -2.613979 -1.177193 0
M  V30 28 H 2.758544 -0.677542 -0.832492 0
M  V30 29 H 1.926346 -1.132023 -2.318475 0
M  V30 30 H 0.046026 4.213531 0.341973 0
M  V30 31 H -1.791211 5.404395 -0.761406 0
M  V30 32 H -2.949568 4.364483 -2.656318 0
M  V30 33 H -2.260990 2.096743 -3.462537 0
M  V30 34 H 1.985935 -0.561359 1.671612 0
M  V30 35 H 1.704011 -1.100439 3.992489 0
M  V30 END ATOM
M  V30 BEGIN BOND
M  V30 1 1 1 2
M  V30 2 1 2 3
M  V30 3 2 3 4
M  V30 4 1 4 5
M  V30 5 2 5 6
M  V30 6 1 6 7
M  V30 7 1 7 8
M  V30 8 1 8 9
M  V30 9 1 9 10
M  V30 10 2 10 11
M  V30 11 1 10 12
M  V30 12 2 12 13
M  V30 13 1 13 14
M  V30 14 2 14 15
M  V30 15 1 15 16
M  V30 16 2 16 17
M  V30 17 1 17 18
M  V30 18 2 18 19
M  V30 19 1 6 20
M  V30 20 2 20 21
M  V30 21 1 21 3
M  V30 22 1 18 9
M  V30 23 1 17 12
M  V30 24 1 1 22
M  V30 25 1 1 23
M  V30 26 1 1 24
M  V30 27 1 4 25
M  V30 28 1 5 26
M  V30 29 1 7 27
M  V30 30 1 8 28
M  V30 31 1 8 29
M  V30 32 1 13 30
M  V30 33 1 14 31
M  V30 34 1 15 32
M  V30 35 1 16 33
M  V30 36 1 20 34
M  V30 37 1 21 35
M  V30 END BOND
M  V30 END CTAB
M  END
>  <Dataset>  (222) 
ChEMBL_Kinases

>  <Ligand_Instance>  (222) 
nan

>  <PDB_ID>  (222) 
nan

>  <Standardized_SMILES>  (222) 
COc1ccc(NCN2C(=O)c3ccccc3C2=O)cc1

>  <Name>  (222) 
nan

>  <Pocket>  (222) 
nan

>  <ATP_Site>  (222) 
nan

>  <Peripheral>  (222) 
nan

>  <Num_H_Atoms_ProtBoundConf>  (222) 
nan

>  <Num_Resolved_Atoms>  (222) 
nan

>  <Num_Not_Resolved_Atoms>  (222) 
nan

$$$$
CHEMBL5078693
     RDKit          3D

  0  0  0  0  0  0  0  0  0  0999 V3000
M  V30 BEGIN CTAB
M  V30 COUNTS 46 49 0 0 0
M  V30 BEGIN ATOM
M  V30 1 C -0.099816 -3.384789 7.630165 0
M  V30 2 N -0.145849 -3.209379 6.183462 0
M  V30 3 C 0.819744 -3.842371 5.317380 0
M  V30 4 O 1.656379 -4.520101 5.916373 0
M  V30 5 C 0.518990 -3.487226 3.910208 0
M  V30 6 C 0.855865 -2.283250 3.327504 0
M  V30 7 C 0.494520 -2.119237 2.009428 0
M  V30 8 C 0.793310 -0.882878 1.288425 0
M  V30 9 C 1.442129 0.208503 1.809513 0
M  V30 10 C 1.679073 1.356048 1.095306 0
M  V30 11 C 1.260991 1.482812 -0.244070 0
M  V30 12 N 1.585924 2.747088 -0.784854 0
M  V30 13 S 0.647877 3.820820 -1.737001 0
M  V30 14 O 1.318998 5.156432 -1.885354 0
M  V30 15 O -0.649515 4.073760 -0.951608 0
M  V30 16 C 0.187200 3.197222 -3.275264 0
M  V30 17 C 0.499694 2.104822 -4.020345 0
M  V30 18 C 0.019936 1.808752 -5.276101 0
M  V30 19 C -0.864436 2.727796 -5.813543 0
M  V30 20 C -1.253377 3.881970 -5.140475 0
M  V30 21 Cl -2.374732 4.913756 -5.983952 0
M  V30 22 C -0.713090 4.103572 -3.859209 0
M  V30 23 Cl -1.336457 5.621105 -3.191849 0
M  V30 24 C 0.622459 0.378226 -0.719681 0
M  V30 25 C 0.386950 -0.759299 -0.012900 0
M  V30 26 N -0.162494 -3.095724 1.320102 0
M  V30 27 C -0.480978 -4.276905 1.926743 0
M  V30 28 N -1.123447 -5.378070 1.442186 0
M  V30 29 N -1.194007 -6.265712 2.412640 0
M  V30 30 C -0.616476 -5.777768 3.516769 0
M  V30 31 C -0.145325 -4.504396 3.248984 0
M  V30 32 H -1.132808 -3.336867 8.081287 0
M  V30 33 H 0.449603 -4.303951 7.927243 0
M  V30 34 H 0.464079 -2.524853 8.066217 0
M  V30 35 H -0.950037 -2.582780 5.881723 0
M  V30 36 H 1.373194 -1.540719 3.908317 0
M  V30 37 H 1.779339 0.141158 2.850029 0
M  V30 38 H 2.212251 2.157745 1.635779 0
M  V30 39 H 2.572379 3.108259 -0.585978 0
M  V30 40 H 1.215022 1.486828 -3.504377 0
M  V30 41 H 0.361789 0.908856 -5.731457 0
M  V30 42 H -1.242586 2.492033 -6.804275 0
M  V30 43 H 0.274896 0.434007 -1.730020 0
M  V30 44 H -0.134518 -1.570286 -0.518164 0
M  V30 45 H -1.478439 -5.457544 0.466801 0
M  V30 46 H -0.505907 -6.253939 4.485795 0
M  V30 END ATOM
M  V30 BEGIN BOND
M  V30 1 1 1 2
M  V30 2 1 2 3
M  V30 3 2 3 4
M  V30 4 1 3 5
M  V30 5 2 5 6
M  V30 6 1 6 7
M  V30 7 1 7 8
M  V30 8 2 8 9
M  V30 9 1 9 10
M  V30 10 2 10 11
M  V30 11 1 11 12
M  V30 12 1 12 13
M  V30 13 2 13 14
M  V30 14 2 13 15
M  V30 15 1 13 16
M  V30 16 2 16 17
M  V30 17 1 17 18
M  V30 18 2 18 19
M  V30 19 1 19 20
M  V30 20 1 20 21
M  V30 21 2 20 22
M  V30 22 1 22 23
M  V30 23 1 11 24
M  V30 24 2 24 25
M  V30 25 2 7 26
M  V30 26 1 26 27
M  V30 27 1 27 28
M  V30 28 1 28 29
M  V30 29 2 29 30
M  V30 30 1 30 31
M  V30 31 1 31 5
M  V30 32 1 25 8
M  V30 33 2 31 27
M  V30 34 1 22 16
M  V30 35 1 1 32
M  V30 36 1 1 33
M  V30 37 1 1 34
M  V30 38 1 2 35
M  V30 39 1 6 36
M  V30 40 1 9 37
M  V30 41 1 10 38
M  V30 42 1 12 39
M  V30 43 1 17 40
M  V30 44 1 18 41
M  V30 45 1 19 42
M  V30 46 1 24 43
M  V30 47 1 25 44
M  V30 48 1 28 45
M  V30 49 1 30 46
M  V30 END BOND
M  V30 END CTAB
M  END
>  <Dataset>  (223) 
ChEMBL_Kinases

>  <Ligand_Instance>  (223) 
nan

>  <PDB_ID>  (223) 
nan

>  <Standardized_SMILES>  (223) 
CNC(=O)c1cc(-c2ccc(NS(=O)(=O)c3cccc(Cl)c3Cl)cc2)nc2[nH]ncc12

>  <Name>  (223) 
nan

>  <Pocket>  (223) 
nan

>  <ATP_Site>  (223) 
nan

>  <Peripheral>  (223) 
nan

>  <Num_H_Atoms_ProtBoundConf>  (223) 
nan

>  <Num_Resolved_Atoms>  (223) 
nan

>  <Num_Not_Resolved_Atoms>  (223) 
nan

$$$$
CHEMBL5078779
     RDKit          3D

  0  0  0  0  0  0  0  0  0  0999 V3000
M  V30 BEGIN CTAB
M  V30 COUNTS 32 34 0 0 0
M  V30 BEGIN ATOM
M  V30 1 C -0.799986 -2.635734 3.187047 0
M  V30 2 C -1.118712 -2.076411 1.818626 0 CFG=2
M  V30 3 C -1.556621 -3.212894 0.882226 0
M  V30 4 C -0.258593 -3.984830 0.774821 0
M  V30 5 C 0.795773 -2.943863 1.170946 0
M  V30 6 N 0.085510 -1.675209 1.111010 0
M  V30 7 C 0.554070 -0.475660 0.504790 0
M  V30 8 N 1.760279 -0.439103 -0.088464 0
M  V30 9 C 1.876229 0.835318 -0.548364 0
M  V30 10 N 2.873414 1.427969 -1.217106 0
M  V30 11 C 2.791201 2.712909 -1.584791 0
M  V30 12 N 1.689693 3.456475 -1.289324 0
M  V30 13 C 0.650187 2.899147 -0.611368 0
M  V30 14 N -0.533239 3.603125 -0.263856 0
M  V30 15 C 0.760066 1.570179 -0.243071 0
M  V30 16 C -0.100753 0.729815 0.438436 0
M  V30 17 C -1.374649 1.077296 0.942633 0
M  V30 18 N -2.393232 1.375662 1.349086 0
M  V30 19 H 0.007467 -2.090684 3.708375 0
M  V30 20 H -1.689480 -2.535067 3.852530 0
M  V30 21 H -0.590611 -3.717328 3.099322 0
M  V30 22 H -1.905197 -1.332605 1.856876 0
M  V30 23 H -2.386659 -3.785108 1.307023 0
M  V30 24 H -1.783987 -2.731078 -0.080751 0
M  V30 25 H -0.252780 -4.857919 1.442421 0
M  V30 26 H -0.083661 -4.346295 -0.266302 0
M  V30 27 H 1.601291 -3.007506 0.419403 0
M  V30 28 H 1.237461 -3.148367 2.154590 0
M  V30 29 H 2.488432 -1.176171 -0.205952 0
M  V30 30 H 3.533219 3.286908 -2.124583 0
M  V30 31 H -1.262661 4.135697 -0.795636 0
M  V30 32 H -0.915586 3.717035 0.706781 0
M  V30 END ATOM
M  V30 BEGIN BOND
M  V30 1 1 1 2
M  V30 2 1 2 3
M  V30 3 1 3 4
M  V30 4 1 4 5
M  V30 5 1 5 6
M  V30 6 1 6 7
M  V30 7 1 7 8
M  V30 8 1 8 9
M  V30 9 2 9 10
M  V30 10 1 10 11
M  V30 11 2 11 12
M  V30 12 1 12 13
M  V30 13 1 13 14
M  V30 14 2 13 15
M  V30 15 1 15 16
M  V30 16 1 16 17
M  V30 17 3 17 18
M  V30 18 1 6 2
M  V30 19 2 16 7
M  V30 20 1 15 9
M  V30 21 1 1 19
M  V30 22 1 1 20
M  V30 23 1 1 21
M  V30 24 1 2 22 CFG=1
M  V30 25 1 3 23
M  V30 26 1 3 24
M  V30 27 1 4 25
M  V30 28 1 4 26
M  V30 29 1 5 27
M  V30 30 1 5 28
M  V30 31 1 8 29
M  V30 32 1 11 30
M  V30 33 1 14 31
M  V30 34 1 14 32
M  V30 END BOND
M  V30 END CTAB
M  END
>  <Dataset>  (224) 
ChEMBL_Kinases

>  <Ligand_Instance>  (224) 
nan

>  <PDB_ID>  (224) 
nan

>  <Standardized_SMILES>  (224) 
C[C@@H]1CCCN1c1[nH]c2ncnc(N)c2c1C#N

>  <Name>  (224) 
nan

>  <Pocket>  (224) 
nan

>  <ATP_Site>  (224) 
nan

>  <Peripheral>  (224) 
nan

>  <Num_H_Atoms_ProtBoundConf>  (224) 
nan

>  <Num_Resolved_Atoms>  (224) 
nan

>  <Num_Not_Resolved_Atoms>  (224) 
nan

$$$$
CHEMBL3781690
     RDKit          3D

  0  0  0  0  0  0  0  0  0  0999 V3000
M  V30 BEGIN CTAB
M  V30 COUNTS 52 55 0 0 0
M  V30 BEGIN ATOM
M  V30 1 C 1.552003 -5.229435 4.090380 0
M  V30 2 C 2.797431 -5.158718 4.904553 0
M  V30 3 O 3.063192 -3.833768 5.249288 0
M  V30 4 C 3.284112 -2.781816 4.409556 0
M  V30 5 C 3.522368 -1.579588 5.037144 0
M  V30 6 C 3.767302 -0.400364 4.380726 0
M  V30 7 C 3.773154 -0.432488 2.979721 0
M  V30 8 N 4.029267 0.708249 2.184417 0
M  V30 9 C 4.089917 1.093232 0.793294 0
M  V30 10 N 2.779552 1.102615 0.180262 0
M  V30 11 C 2.089922 2.370653 0.301315 0
M  V30 12 O 2.381720 3.490784 0.843580 0
M  V30 13 C 0.787555 2.309265 -0.349943 0
M  V30 14 C -0.294037 3.132842 -0.577223 0
M  V30 15 C -1.414671 2.724046 -1.265099 0
M  V30 16 C -1.494092 1.435232 -1.765434 0
M  V30 17 N -2.623829 0.944361 -2.487109 0
M  V30 18 C -3.639955 0.339256 -1.695515 0
M  V30 19 O -3.493606 0.271704 -0.447190 0
M  V30 20 C -4.842540 -0.205892 -2.264529 0
M  V30 21 C -5.779994 -0.776502 -1.426874 0
M  V30 22 C -6.939800 -1.305059 -1.950860 0
M  V30 23 C -7.208709 -1.288201 -3.298551 0
M  V30 24 C -6.295956 -0.727455 -4.159613 0
M  V30 25 C -5.128430 -0.197356 -3.614754 0
M  V30 26 C -0.444342 0.564105 -1.570586 0
M  V30 27 C 0.654902 1.040249 -0.868904 0
M  V30 28 C 1.868100 0.301841 -0.547644 0
M  V30 29 O 2.190841 -0.861370 -0.810592 0
M  V30 30 C 3.533651 -1.642294 2.361539 0
M  V30 31 C 3.288327 -2.821902 3.032585 0
M  V30 32 H 0.756930 -5.845108 4.565528 0
M  V30 33 H 1.145191 -4.215279 3.926210 0
M  V30 34 H 1.755024 -5.750571 3.116474 0
M  V30 35 H 3.626814 -5.663275 4.374600 0
M  V30 36 H 2.627260 -5.707039 5.867088 0
M  V30 37 H 3.536299 -1.463938 6.114759 0
M  V30 38 H 3.955475 0.549436 4.882608 0
M  V30 39 H 4.243123 1.557648 2.786130 0
M  V30 40 H 4.667089 2.005449 0.626496 0
M  V30 41 H 4.677809 0.286714 0.235174 0
M  V30 42 H -0.237762 4.141533 -0.188480 0
M  V30 43 H -2.248529 3.400404 -1.425473 0
M  V30 44 H -2.716579 1.015242 -3.525388 0
M  V30 45 H -5.666738 -0.841595 -0.349207 0
M  V30 46 H -7.710817 -1.763940 -1.353527 0
M  V30 47 H -8.112150 -1.696661 -3.735436 0
M  V30 48 H -6.486558 -0.702146 -5.232391 0
M  V30 49 H -4.432503 0.233939 -4.304271 0
M  V30 50 H -0.486446 -0.439321 -1.950596 0
M  V30 51 H 3.519642 -1.806926 1.302645 0
M  V30 52 H 3.098411 -3.777336 2.602804 0
M  V30 END ATOM
M  V30 BEGIN BOND
M  V30 1 1 1 2
M  V30 2 1 2 3
M  V30 3 1 3 4
M  V30 4 2 4 5
M  V30 5 1 5 6
M  V30 6 2 6 7
M  V30 7 1 7 8
M  V30 8 1 8 9
M  V30 9 1 9 10
M  V30 10 1 10 11
M  V30 11 2 11 12
M  V30 12 1 11 13
M  V30 13 2 13 14
M  V30 14 1 14 15
M  V30 15 2 15 16
M  V30 16 1 16 17
M  V30 17 1 17 18
M  V30 18 2 18 19
M  V30 19 1 18 20
M  V30 20 2 20 21
M  V30 21 1 21 22
M  V30 22 2 22 23
M  V30 23 1 23 24
M  V30 24 2 24 25
M  V30 25 1 16 26
M  V30 26 2 26 27
M  V30 27 1 27 28
M  V30 28 2 28 29
M  V30 29 1 7 30
M  V30 30 2 30 31
M  V30 31 1 31 4
M  V30 32 1 28 10
M  V30 33 1 27 13
M  V30 34 1 25 20
M  V30 35 1 1 32
M  V30 36 1 1 33
M  V30 37 1 1 34
M  V30 38 1 2 35
M  V30 39 1 2 36
M  V30 40 1 5 37
M  V30 41 1 6 38
M  V30 42 1 8 39
M  V30 43 1 9 40
M  V30 44 1 9 41
M  V30 45 1 14 42
M  V30 46 1 15 43
M  V30 47 1 17 44
M  V30 48 1 21 45
M  V30 49 1 22 46
M  V30 50 1 23 47
M  V30 51 1 24 48
M  V30 52 1 25 49
M  V30 53 1 26 50
M  V30 54 1 30 51
M  V30 55 1 31 52
M  V30 END BOND
M  V30 END CTAB
M  END
>  <Dataset>  (225) 
ChEMBL_Kinases

>  <Ligand_Instance>  (225) 
nan

>  <PDB_ID>  (225) 
nan

>  <Standardized_SMILES>  (225) 
CCOc1ccc(NCN2C(=O)c3ccc(NC(=O)c4ccccc4)cc3C2=O)cc1

>  <Name>  (225) 
nan

>  <Pocket>  (225) 
nan

>  <ATP_Site>  (225) 
nan

>  <Peripheral>  (225) 
nan

>  <Num_H_Atoms_ProtBoundConf>  (225) 
nan

>  <Num_Resolved_Atoms>  (225) 
nan

>  <Num_Not_Resolved_Atoms>  (225) 
nan

$$$$
CHEMBL590322
     RDKit          3D

  0  0  0  0  0  0  0  0  0  0999 V3000
M  V30 BEGIN CTAB
M  V30 COUNTS 62 64 0 0 0
M  V30 BEGIN ATOM
M  V30 1 C -1.876385 -0.230496 6.598756 0
M  V30 2 O -1.177151 -1.387989 6.190644 0
M  V30 3 C -0.198046 -1.273041 5.220448 0
M  V30 4 C -0.004199 -0.000111 4.742767 0
M  V30 5 C 0.961199 0.250065 3.755637 0
M  V30 6 C 1.682145 -0.809809 3.305166 0
M  V30 7 C 2.730978 -0.917320 2.367556 0
M  V30 8 O 2.743580 0.356762 2.049067 0
M  V30 9 N 3.742134 -1.067984 1.474484 0
M  V30 10 C 4.439464 -0.144524 0.583350 0
M  V30 11 C 3.613832 0.003167 -0.637635 0
M  V30 12 C 3.976221 -0.907706 -1.655580 0
M  V30 13 C 3.388094 -1.013918 -2.892383 0
M  V30 14 C 2.341324 -0.162871 -3.191822 0
M  V30 15 C 1.976490 0.718351 -2.225136 0
M  V30 16 N 0.870604 1.652677 -2.407826 0
M  V30 17 C -0.313044 0.911038 -2.015192 0
M  V30 18 O 0.357981 -0.141440 -1.745871 0
M  V30 19 C -1.496049 1.772946 -2.158770 0
M  V30 20 C -2.824778 1.171797 -1.960084 0
M  V30 21 C -3.284322 0.136024 -2.906000 0
M  V30 22 C -2.468342 -1.103836 -3.046288 0
M  V30 23 C -2.456567 -1.914719 -1.762375 0
M  V30 24 C -3.897032 -2.182653 -1.334189 0
M  V30 25 N -4.659905 -0.973709 -1.248681 0
M  V30 26 C -4.711635 -0.318688 -2.538943 0
M  V30 27 C 2.568413 0.813935 -1.008574 0
M  V30 28 C 1.472961 -2.105722 3.801825 0
M  V30 29 C 0.512229 -2.381407 4.789662 0
M  V30 30 O 0.159739 -3.566229 5.394745 0
M  V30 31 C 0.765780 -4.798512 5.067404 0
M  V30 32 H -2.354804 0.249966 5.698809 0
M  V30 33 H -2.683108 -0.408420 7.308812 0
M  V30 34 H -1.137553 0.531766 6.975958 0
M  V30 35 H -0.534415 0.893479 5.045597 0
M  V30 36 H 1.131878 1.230426 3.362744 0
M  V30 37 H 3.760190 -2.120551 1.737255 0
M  V30 38 H 4.586482 0.840250 1.060269 0
M  V30 39 H 5.439608 -0.523248 0.332101 0
M  V30 40 H 4.800536 -1.624705 -1.511147 0
M  V30 41 H 3.711899 -1.729296 -3.625160 0
M  V30 42 H 1.824761 -0.171867 -4.119287 0
M  V30 43 H 1.060765 2.650782 -2.765694 0
M  V30 44 H -1.380313 2.588368 -1.386331 0
M  V30 45 H -1.498253 2.308541 -3.136589 0
M  V30 46 H -2.993976 0.780432 -0.926981 0
M  V30 47 H -3.566255 2.033106 -2.009582 0
M  V30 48 H -3.321833 0.612565 -3.927500 0
M  V30 49 H -1.461889 -0.982361 -3.426246 0
M  V30 50 H -3.076314 -1.761887 -3.757557 0
M  V30 51 H -1.904196 -1.456368 -0.939957 0
M  V30 52 H -1.995314 -2.892429 -1.987297 0
M  V30 53 H -3.857904 -2.648815 -0.348407 0
M  V30 54 H -4.394411 -2.884363 -2.038605 0
M  V30 55 H -5.623860 -1.192626 -0.895443 0
M  V30 56 H -4.982341 -1.076376 -3.294991 0
M  V30 57 H -5.407447 0.523310 -2.528967 0
M  V30 58 H 2.279495 1.522493 -0.260746 0
M  V30 59 H 1.976837 -3.027623 3.525838 0
M  V30 60 H 0.951707 -5.416351 5.983008 0
M  V30 61 H 0.150236 -5.379239 4.324131 0
M  V30 62 H 1.762893 -4.675273 4.609511 0
M  V30 END ATOM
M  V30 BEGIN BOND
M  V30 1 1 1 2
M  V30 2 1 2 3
M  V30 3 2 3 4
M  V30 4 1 4 5
M  V30 5 2 5 6
M  V30 6 1 6 7
M  V30 7 2 7 8
M  V30 8 1 7 9
M  V30 9 1 9 10
M  V30 10 1 10 11
M  V30 11 2 11 12
M  V30 12 1 12 13
M  V30 13 2 13 14
M  V30 14 1 14 15
M  V30 15 1 15 16
M  V30 16 1 16 17
M  V30 17 2 17 18
M  V30 18 1 17 19
M  V30 19 1 19 20
M  V30 20 1 20 21
M  V30 21 1 21 22
M  V30 22 1 22 23
M  V30 23 1 23 24
M  V30 24 1 24 25
M  V30 25 1 25 26
M  V30 26 2 15 27
M  V30 27 1 6 28
M  V30 28 2 28 29
M  V30 29 1 29 30
M  V30 30 1 30 31
M  V30 31 1 29 3
M  V30 32 1 27 11
M  V30 33 1 26 21
M  V30 34 1 1 32
M  V30 35 1 1 33
M  V30 36 1 1 34
M  V30 37 1 4 35
M  V30 38 1 5 36
M  V30 39 1 9 37
M  V30 40 1 10 38
M  V30 41 1 10 39
M  V30 42 1 12 40
M  V30 43 1 13 41
M  V30 44 1 14 42
M  V30 45 1 16 43
M  V30 46 1 19 44
M  V30 47 1 19 45
M  V30 48 1 20 46
M  V30 49 1 20 47
M  V30 50 1 21 48
M  V30 51 1 22 49
M  V30 52 1 22 50
M  V30 53 1 23 51
M  V30 54 1 23 52
M  V30 55 1 24 53
M  V30 56 1 24 54
M  V30 57 1 25 55
M  V30 58 1 26 56
M  V30 59 1 26 57
M  V30 60 1 27 58
M  V30 61 1 28 59
M  V30 62 1 31 60
M  V30 63 1 31 61
M  V30 64 1 31 62
M  V30 END BOND
M  V30 END CTAB
M  END
>  <Dataset>  (226) 
ChEMBL_Kinases

>  <Ligand_Instance>  (226) 
nan

>  <PDB_ID>  (226) 
nan

>  <Standardized_SMILES>  (226) 
COc1ccc(C(=O)NCc2cccc(NC(=O)CCC3CCCNC3)c2)cc1OC

>  <Name>  (226) 
nan

>  <Pocket>  (226) 
nan

>  <ATP_Site>  (226) 
nan

>  <Peripheral>  (226) 
nan

>  <Num_H_Atoms_ProtBoundConf>  (226) 
nan

>  <Num_Resolved_Atoms>  (226) 
nan

>  <Num_Not_Resolved_Atoms>  (226) 
nan

$$$$
CHEMBL378167
     RDKit          3D

  0  0  0  0  0  0  0  0  0  0999 V3000
M  V30 BEGIN CTAB
M  V30 COUNTS 59 64 0 0 0
M  V30 BEGIN ATOM
M  V30 1 C 0.042222 -3.171992 3.454247 0
M  V30 2 C 1.245002 -2.492685 3.537891 0
M  V30 3 C 1.979959 -2.252619 2.375699 0
M  V30 4 C 1.556142 -2.667148 1.131837 0
M  V30 5 C 2.379123 -2.379161 -0.041165 0
M  V30 6 N 2.933238 -3.357724 -0.803707 0
M  V30 7 N 3.631239 -2.814531 -1.805214 0
M  V30 8 C 3.525884 -1.477945 -1.686840 0
M  V30 9 C 2.751034 -1.154716 -0.596355 0
M  V30 10 C 2.321326 0.107662 -0.016100 0
M  V30 11 C 3.329337 0.957393 0.427850 0
M  V30 12 C 2.987138 2.182604 0.994766 0
M  V30 13 C 1.670190 2.571719 1.125561 0
M  V30 14 N 1.057490 3.680472 1.626440 0
M  V30 15 C -0.277574 3.516212 1.494188 0
M  V30 16 N -0.518534 2.315922 0.915187 0
M  V30 17 C -1.850637 1.832735 0.631619 0
M  V30 18 C -2.384958 1.045523 1.820717 0
M  V30 19 C -3.764094 0.535951 1.548260 0
M  V30 20 N -3.768484 -0.327914 0.396852 0
M  V30 21 C -5.135267 -0.778275 0.177940 0
M  V30 22 C -5.333121 -1.808728 1.251761 0
M  V30 23 C -3.964068 -2.438640 1.350748 0
M  V30 24 C -3.018294 -1.534804 0.552014 0
M  V30 25 C 0.667454 1.733871 0.687435 0
M  V30 26 C 1.014072 0.533604 0.132540 0
M  V30 27 C 4.286049 -0.813224 -2.778836 0
M  V30 28 C 4.229602 -1.914840 -3.833588 0
M  V30 29 C 4.451376 -3.130845 -2.958682 0
M  V30 30 N 0.369350 -3.337048 1.052376 0
M  V30 31 C -0.347364 -3.570609 2.188732 0
M  V30 32 H -0.622210 -3.422028 4.277991 0
M  V30 33 H 1.557021 -2.177347 4.524309 0
M  V30 34 H 2.908969 -1.720981 2.486889 0
M  V30 35 H 4.382155 0.723715 0.360015 0
M  V30 36 H 3.694544 2.907310 1.367231 0
M  V30 37 H -0.979047 4.269658 1.822961 0
M  V30 38 H -2.520246 2.704133 0.432123 0
M  V30 39 H -1.775170 1.197360 -0.270054 0
M  V30 40 H -1.670718 0.256740 2.100242 0
M  V30 41 H -2.425921 1.726003 2.715038 0
M  V30 42 H -4.077167 -0.080871 2.438235 0
M  V30 43 H -4.504097 1.351351 1.427151 0
M  V30 44 H -5.256709 -1.202741 -0.828949 0
M  V30 45 H -5.849823 0.060669 0.296110 0
M  V30 46 H -6.038745 -2.628662 0.947021 0
M  V30 47 H -5.674986 -1.354704 2.214180 0
M  V30 48 H -3.918714 -3.433789 0.845198 0
M  V30 49 H -3.685880 -2.485550 2.419350 0
M  V30 50 H -2.814042 -1.959458 -0.456003 0
M  V30 51 H -2.110160 -1.477910 1.145535 0
M  V30 52 H 0.246077 -0.140884 -0.218819 0
M  V30 53 H 3.820819 0.116594 -3.121575 0
M  V30 54 H 5.333137 -0.719001 -2.428313 0
M  V30 55 H 5.012200 -1.803207 -4.606085 0
M  V30 56 H 3.200088 -2.003086 -4.232757 0
M  V30 57 H 4.164700 -4.083340 -3.436651 0
M  V30 58 H 5.499142 -3.109163 -2.605167 0
M  V30 59 H -1.291182 -4.115971 2.040169 0
M  V30 END ATOM
M  V30 BEGIN BOND
M  V30 1 2 1 2
M  V30 2 1 2 3
M  V30 3 2 3 4
M  V30 4 1 4 5
M  V30 5 2 5 6
M  V30 6 1 6 7
M  V30 7 1 7 8
M  V30 8 2 8 9
M  V30 9 1 9 10
M  V30 10 2 10 11
M  V30 11 1 11 12
M  V30 12 2 12 13
M  V30 13 1 13 14
M  V30 14 2 14 15
M  V30 15 1 15 16
M  V30 16 1 16 17
M  V30 17 1 17 18
M  V30 18 1 18 19
M  V30 19 1 19 20
M  V30 20 1 20 21
M  V30 21 1 21 22
M  V30 22 1 22 23
M  V30 23 1 23 24
M  V30 24 1 16 25
M  V30 25 2 25 26
M  V30 26 1 8 27
M  V30 27 1 27 28
M  V30 28 1 28 29
M  V30 29 1 4 30
M  V30 30 2 30 31
M  V30 31 1 31 1
M  V30 32 1 9 5
M  V30 33 1 26 10
M  V30 34 1 29 7
M  V30 35 1 25 13
M  V30 36 1 24 20
M  V30 37 1 1 32
M  V30 38 1 2 33
M  V30 39 1 3 34
M  V30 40 1 11 35
M  V30 41 1 12 36
M  V30 42 1 15 37
M  V30 43 1 17 38
M  V30 44 1 17 39
M  V30 45 1 18 40
M  V30 46 1 18 41
M  V30 47 1 19 42
M  V30 48 1 19 43
M  V30 49 1 21 44
M  V30 50 1 21 45
M  V30 51 1 22 46
M  V30 52 1 22 47
M  V30 53 1 23 48
M  V30 54 1 23 49
M  V30 55 1 24 50
M  V30 56 1 24 51
M  V30 57 1 26 52
M  V30 58 1 27 53
M  V30 59 1 27 54
M  V30 60 1 28 55
M  V30 61 1 28 56
M  V30 62 1 29 57
M  V30 63 1 29 58
M  V30 64 1 31 59
M  V30 END BOND
M  V30 END CTAB
M  END
>  <Dataset>  (227) 
ChEMBL_Kinases

>  <Ligand_Instance>  (227) 
nan

>  <PDB_ID>  (227) 
nan

>  <Standardized_SMILES>  (227) 
c1ccc(-c2nn3c(c2-c2ccc4ncn(CCCN5CCCC5)c4c2)CCC3)nc1

>  <Name>  (227) 
nan

>  <Pocket>  (227) 
nan

>  <ATP_Site>  (227) 
nan

>  <Peripheral>  (227) 
nan

>  <Num_H_Atoms_ProtBoundConf>  (227) 
nan

>  <Num_Resolved_Atoms>  (227) 
nan

>  <Num_Not_Resolved_Atoms>  (227) 
nan

$$$$
CHEMBL5078832
     RDKit          3D

  0  0  0  0  0  0  0  0  0  0999 V3000
M  V30 BEGIN CTAB
M  V30 COUNTS 39 41 0 0 0
M  V30 BEGIN ATOM
M  V30 1 N 0.907295 -1.933329 6.549752 0
M  V30 2 C 0.362164 -1.350071 5.375583 0
M  V30 3 O -0.530773 -0.468470 5.467697 0
M  V30 4 C 0.804670 -1.740068 4.048937 0
M  V30 5 S 2.059729 -2.975761 3.823857 0
M  V30 6 C 2.064889 -2.914782 2.017004 0
M  V30 7 N 2.779869 -3.587338 1.117072 0
M  V30 8 C 2.615844 -3.372328 -0.223047 0
M  V30 9 C 1.661760 -2.416849 -0.507106 0
M  V30 10 C 0.909484 -1.708071 0.404544 0
M  V30 11 N -0.002093 -0.797314 -0.201517 0
M  V30 12 C -1.473057 -0.787208 -0.170671 0
M  V30 13 C -1.871469 0.668233 -0.082295 0
M  V30 14 C -1.606467 1.233313 -1.485310 0
M  V30 15 C -0.196068 1.011971 -1.891410 0
M  V30 16 C 0.482307 2.351382 -2.209172 0
M  V30 17 O 0.456831 3.164196 -1.079935 0
M  V30 18 C 0.657725 0.234673 -0.935149 0
M  V30 19 C 1.098605 -1.947520 1.748773 0
M  V30 20 C 0.471862 -1.364904 2.810406 0
M  V30 21 N -0.532126 -0.359814 2.735180 0
M  V30 22 H 0.779494 -2.723389 7.249196 0
M  V30 23 H 0.262388 -2.754786 6.750296 0
M  V30 24 H 3.191396 -3.914404 -0.925012 0
M  V30 25 H 1.564235 -2.277477 -1.596719 0
M  V30 26 H -1.867165 -1.141628 -1.155108 0
M  V30 27 H -1.906070 -1.439525 0.579107 0
M  V30 28 H -2.943857 0.790580 0.149032 0
M  V30 29 H -1.217807 1.272093 0.578863 0
M  V30 30 H -1.846668 2.315032 -1.548207 0
M  V30 31 H -2.316537 0.705705 -2.150335 0
M  V30 32 H -0.198179 0.475391 -2.863590 0
M  V30 33 H 1.552540 2.198957 -2.454118 0
M  V30 34 H 0.000092 2.787572 -3.095355 0
M  V30 35 H 1.350844 3.269450 -0.651940 0
M  V30 36 H 1.194074 0.981793 -0.297863 0
M  V30 37 H 1.487245 -0.238198 -1.535327 0
M  V30 38 H -0.051240 0.577873 2.623176 0
M  V30 39 H -1.568800 -0.465783 2.776825 0
M  V30 END ATOM
M  V30 BEGIN BOND
M  V30 1 1 1 2
M  V30 2 2 2 3
M  V30 3 1 2 4
M  V30 4 1 4 5
M  V30 5 1 5 6
M  V30 6 2 6 7
M  V30 7 1 7 8
M  V30 8 2 8 9
M  V30 9 1 9 10
M  V30 10 1 10 11
M  V30 11 1 11 12
M  V30 12 1 12 13
M  V30 13 1 13 14
M  V30 14 1 14 15
M  V30 15 1 15 16
M  V30 16 1 16 17
M  V30 17 1 15 18
M  V30 18 2 10 19
M  V30 19 1 19 20
M  V30 20 1 20 21
M  V30 21 2 20 4
M  V30 22 1 19 6
M  V30 23 1 18 11
M  V30 24 1 1 22
M  V30 25 1 1 23
M  V30 26 1 8 24
M  V30 27 1 9 25
M  V30 28 1 12 26
M  V30 29 1 12 27
M  V30 30 1 13 28
M  V30 31 1 13 29
M  V30 32 1 14 30
M  V30 33 1 14 31
M  V30 34 1 15 32
M  V30 35 1 16 33
M  V30 36 1 16 34
M  V30 37 1 17 35
M  V30 38 1 18 36
M  V30 39 1 18 37
M  V30 40 1 21 38
M  V30 41 1 21 39
M  V30 END BOND
M  V30 END CTAB
M  END
>  <Dataset>  (228) 
ChEMBL_Kinases

>  <Ligand_Instance>  (228) 
nan

>  <PDB_ID>  (228) 
nan

>  <Standardized_SMILES>  (228) 
NC(=O)c1sc2nccc(N3CCCC(CO)C3)c2c1N

>  <Name>  (228) 
nan

>  <Pocket>  (228) 
nan

>  <ATP_Site>  (228) 
nan

>  <Peripheral>  (228) 
nan

>  <Num_H_Atoms_ProtBoundConf>  (228) 
nan

>  <Num_Resolved_Atoms>  (228) 
nan

>  <Num_Not_Resolved_Atoms>  (228) 
nan

$$$$
CHEMBL5078889
     RDKit          3D

  0  0  0  0  0  0  0  0  0  0999 V3000
M  V30 BEGIN CTAB
M  V30 COUNTS 63 67 0 0 0
M  V30 BEGIN ATOM
M  V30 1 C 2.904067 0.496170 5.918214 0
M  V30 2 O 3.988532 -0.198940 5.341010 0
M  V30 3 C 4.299428 -0.164986 3.995348 0
M  V30 4 C 5.386668 -0.887488 3.552103 0
M  V30 5 C 5.755861 -0.898418 2.214746 0
M  V30 6 C 4.938911 -0.128136 1.396096 0
M  V30 7 C 3.848901 0.610815 1.766552 0
M  V30 8 C 3.079574 1.380095 0.794885 0
M  V30 9 N 3.573367 2.591632 0.509951 0
M  V30 10 C 2.710072 3.132674 -0.404725 0
M  V30 11 S 2.335115 4.610832 -1.462824 0
M  V30 12 C 0.851141 3.895606 -2.160556 0
M  V30 13 C 0.766796 2.656232 -1.562754 0
M  V30 14 N 1.709614 2.300560 -0.689156 0
M  V30 15 C 1.931031 1.204950 0.053598 0
M  V30 16 C 1.255866 -0.069452 0.233707 0
M  V30 17 C 0.702804 -0.526077 1.408271 0
M  V30 18 C 0.121552 -1.771812 1.354137 0
M  V30 19 N 0.077666 -2.521054 0.247437 0
M  V30 20 C 0.623988 -2.053116 -0.884683 0
M  V30 21 N 0.643691 -2.782949 -2.126746 0
M  V30 22 C 0.081510 -4.056290 -2.442142 0
M  V30 23 C -1.382707 -4.138002 -2.647321 0
M  V30 24 C -2.275419 -3.730963 -1.539193 0
M  V30 25 N -3.654803 -3.963514 -2.001476 0
M  V30 26 S -4.819600 -3.543156 -0.831678 0
M  V30 27 O -4.726161 -4.427199 0.391424 0
M  V30 28 O -6.187075 -3.809747 -1.428516 0
M  V30 29 C -4.770661 -1.859465 -0.408624 0
M  V30 30 C -5.493818 -0.936357 -1.110744 0
M  V30 31 C -5.416700 0.380438 -0.725188 0
M  V30 32 C -4.621518 0.725934 0.345333 0
M  V30 33 C -4.475430 2.122960 0.833338 0
M  V30 34 C -3.878831 -0.215259 1.067912 0
M  V30 35 C -3.968010 -1.548363 0.663749 0
M  V30 36 N 1.196899 -0.839683 -0.856521 0
M  V30 37 C 3.522001 0.588470 3.112911 0
M  V30 38 H 2.033713 0.405098 5.236403 0
M  V30 39 H 2.635801 -0.049814 6.861456 0
M  V30 40 H 3.166906 1.541240 6.182118 0
M  V30 41 H 5.988857 -1.476674 4.260734 0
M  V30 42 H 6.596224 -1.445503 1.813201 0
M  V30 43 H 5.198702 -0.113383 0.340569 0
M  V30 44 H 0.295835 4.453026 -2.860857 0
M  V30 45 H -0.098712 2.106718 -1.897934 0
M  V30 46 H 0.772358 0.129499 2.264431 0
M  V30 47 H -0.318605 -2.143435 2.275142 0
M  V30 48 H 1.142542 -2.314348 -2.927966 0
M  V30 49 H 0.422988 -4.813839 -1.660697 0
M  V30 50 H 0.595352 -4.458066 -3.370516 0
M  V30 51 H -1.644813 -3.533832 -3.553015 0
M  V30 52 H -1.703447 -5.183126 -2.947219 0
M  V30 53 H -2.085124 -4.346700 -0.648640 0
M  V30 54 H -2.168276 -2.662739 -1.244274 0
M  V30 55 H -3.760431 -4.963974 -2.274771 0
M  V30 56 H -6.115719 -1.240533 -1.954992 0
M  V30 57 H -5.975487 1.155059 -1.254236 0
M  V30 58 H -5.211882 2.810906 0.371419 0
M  V30 59 H -3.448449 2.487935 0.596028 0
M  V30 60 H -4.639158 2.173370 1.915038 0
M  V30 61 H -3.248789 0.050356 1.914961 0
M  V30 62 H -3.391999 -2.283368 1.223782 0
M  V30 63 H 2.671824 1.156613 3.442253 0
M  V30 END ATOM
M  V30 BEGIN BOND
M  V30 1 1 1 2
M  V30 2 1 2 3
M  V30 3 2 3 4
M  V30 4 1 4 5
M  V30 5 2 5 6
M  V30 6 1 6 7
M  V30 7 1 7 8
M  V30 8 1 8 9
M  V30 9 2 9 10
M  V30 10 1 10 11
M  V30 11 1 11 12
M  V30 12 2 12 13
M  V30 13 1 13 14
M  V30 14 1 14 15
M  V30 15 1 15 16
M  V30 16 2 16 17
M  V30 17 1 17 18
M  V30 18 2 18 19
M  V30 19 1 19 20
M  V30 20 1 20 21
M  V30 21 1 21 22
M  V30 22 1 22 23
M  V30 23 1 23 24
M  V30 24 1 24 25
M  V30 25 1 25 26
M  V30 26 2 26 27
M  V30 27 2 26 28
M  V30 28 1 26 29
M  V30 29 2 29 30
M  V30 30 1 30 31
M  V30 31 2 31 32
M  V30 32 1 32 33
M  V30 33 1 32 34
M  V30 34 2 34 35
M  V30 35 2 20 36
M  V30 36 2 7 37
M  V30 37 1 37 3
M  V30 38 2 15 8
M  V30 39 1 36 16
M  V30 40 1 14 10
M  V30 41 1 35 29
M  V30 42 1 1 38
M  V30 43 1 1 39
M  V30 44 1 1 40
M  V30 45 1 4 41
M  V30 46 1 5 42
M  V30 47 1 6 43
M  V30 48 1 12 44
M  V30 49 1 13 45
M  V30 50 1 17 46
M  V30 51 1 18 47
M  V30 52 1 21 48
M  V30 53 1 22 49
M  V30 54 1 22 50
M  V30 55 1 23 51
M  V30 56 1 23 52
M  V30 57 1 24 53
M  V30 58 1 24 54
M  V30 59 1 25 55
M  V30 60 1 30 56
M  V30 61 1 31 57
M  V30 62 1 33 58
M  V30 63 1 33 59
M  V30 64 1 33 60
M  V30 65 1 34 61
M  V30 66 1 35 62
M  V30 67 1 37 63
M  V30 END BOND
M  V30 END CTAB
M  END
>  <Dataset>  (229) 
ChEMBL_Kinases

>  <Ligand_Instance>  (229) 
nan

>  <PDB_ID>  (229) 
nan

>  <Standardized_SMILES>  (229) 
COc1cccc(-c2nc3sccn3c2-c2ccnc(NCCCNS(=O)(=O)c3ccc(C)cc3)n2)c1

>  <Name>  (229) 
nan

>  <Pocket>  (229) 
nan

>  <ATP_Site>  (229) 
nan

>  <Peripheral>  (229) 
nan

>  <Num_H_Atoms_ProtBoundConf>  (229) 
nan

>  <Num_Resolved_Atoms>  (229) 
nan

>  <Num_Not_Resolved_Atoms>  (229) 
nan

$$$$
CHEMBL3781532
     RDKit          3D

  0  0  0  0  0  0  0  0  0  0999 V3000
M  V30 BEGIN CTAB
M  V30 COUNTS 80 84 0 0 0
M  V30 BEGIN ATOM
M  V30 1 C 4.304682 -1.451797 3.846245 0
M  V30 2 O 4.516928 -2.803795 3.362860 0
M  V30 3 C 5.025564 -2.965344 2.104833 0
M  V30 4 O 5.488665 -2.607723 0.950905 0
M  V30 5 N 5.146888 -4.366013 1.827427 0
M  V30 6 C 5.672518 -4.746062 0.540768 0
M  V30 7 C 4.833017 -4.793599 -0.571940 0
M  V30 8 C 5.140147 -5.143667 -1.853910 0
M  V30 9 C 4.110364 -5.100119 -2.933636 0
M  V30 10 C 4.138860 -3.757879 -3.634407 0
M  V30 11 O 3.904713 -2.661626 -2.844016 0
M  V30 12 C 2.804287 -2.289623 -2.136364 0
M  V30 13 C 1.571605 -2.960283 -2.062366 0
M  V30 14 C 0.562775 -2.428436 -1.287328 0
M  V30 15 C 0.717297 -1.235771 -0.565084 0
M  V30 16 N -0.339201 -0.692413 0.216227 0
M  V30 17 C -1.379271 0.270464 -0.053631 0
M  V30 18 O -1.591048 0.875872 -1.116587 0
M  V30 19 N -2.156329 0.420969 1.148598 0
M  V30 20 C -3.244811 1.359243 1.096002 0
M  V30 21 C -2.818247 2.648407 1.475660 0
M  V30 22 C -3.941183 3.483565 1.387651 0
M  V30 23 C -3.968050 4.962868 1.702806 0
M  V30 24 C -4.282981 5.112385 3.155580 0
M  V30 25 C -4.923646 5.644732 0.781286 0
M  V30 26 C -2.557850 5.519489 1.474155 0
M  V30 27 N -4.972558 2.682480 0.968518 0
M  V30 28 N -4.544969 1.464344 0.806349 0
M  V30 29 C -5.182193 0.273644 0.387888 0
M  V30 30 C -4.886747 -1.015105 0.758021 0
M  V30 31 C -5.581627 -2.096575 0.263960 0
M  V30 32 C -6.612843 -1.945033 -0.627814 0
M  V30 33 C -7.391497 -3.071613 -1.200628 0
M  V30 34 C -6.893522 -0.636627 -0.985160 0
M  V30 35 C -6.226323 0.499183 -0.520530 0
M  V30 36 C 1.933147 -0.551086 -0.625572 0
M  V30 37 C 2.052680 0.636300 0.102805 0
M  V30 38 C 3.271623 1.249053 -0.005952 0
M  V30 39 C 4.326066 0.787132 -0.753214 0
M  V30 40 C 4.092493 -0.362765 -1.410514 0
M  V30 41 C 2.919159 -1.143686 -1.429046 0
M  V30 42 C 6.455920 -5.488549 -2.040490 0
M  V30 43 C 7.326134 -5.460045 -0.978757 0
M  V30 44 N 6.933645 -5.094900 0.277732 0
M  V30 45 H 4.937938 -1.253042 4.705221 0
M  V30 46 H 3.236490 -1.363706 4.021234 0
M  V30 47 H 4.573720 -0.753347 3.029085 0
M  V30 48 H 4.936504 -5.274790 2.348057 0
M  V30 49 H 3.789633 -4.507133 -0.356598 0
M  V30 50 H 4.453921 -5.850300 -3.699188 0
M  V30 51 H 3.120012 -5.373297 -2.647073 0
M  V30 52 H 5.100519 -3.630359 -4.204613 0
M  V30 53 H 3.343549 -3.809953 -4.436479 0
M  V30 54 H 1.412342 -3.865138 -2.613544 0
M  V30 55 H -0.400040 -2.916906 -1.201902 0
M  V30 56 H -0.145156 -1.212383 1.094964 0
M  V30 57 H -2.084210 -0.022657 2.102604 0
M  V30 58 H -1.864261 3.084079 1.796398 0
M  V30 59 H -3.791391 6.022676 3.567123 0
M  V30 60 H -3.771741 4.251145 3.679067 0
M  V30 61 H -5.360334 5.040006 3.408311 0
M  V30 62 H -4.377614 6.446037 0.229243 0
M  V30 63 H -5.777331 6.133493 1.306329 0
M  V30 64 H -5.305841 4.950499 -0.017209 0
M  V30 65 H -2.644146 6.612532 1.324217 0
M  V30 66 H -2.148291 5.082957 0.535134 0
M  V30 67 H -1.910307 5.354388 2.331864 0
M  V30 68 H -4.080567 -1.121073 1.460418 0
M  V30 69 H -5.323989 -3.107658 0.571099 0
M  V30 70 H -8.410489 -3.089040 -0.812187 0
M  V30 71 H -6.856491 -4.016470 -0.882197 0
M  V30 72 H -7.328055 -3.029530 -2.310912 0
M  V30 73 H -7.710062 -0.472356 -1.686906 0
M  V30 74 H -6.540343 1.475719 -0.882150 0
M  V30 75 H 1.207937 0.975868 0.685227 0
M  V30 76 H 3.412078 2.177484 0.543229 0
M  V30 77 H 5.267045 1.289549 -0.826753 0
M  V30 78 H 4.922489 -0.760432 -2.015978 0
M  V30 79 H 6.770218 -5.773283 -3.047013 0
M  V30 80 H 8.363398 -5.742120 -1.133640 0
M  V30 END ATOM
M  V30 BEGIN BOND
M  V30 1 1 1 2
M  V30 2 1 2 3
M  V30 3 2 3 4
M  V30 4 1 3 5
M  V30 5 1 5 6
M  V30 6 2 6 7
M  V30 7 1 7 8
M  V30 8 1 8 9
M  V30 9 1 9 10
M  V30 10 1 10 11
M  V30 11 1 11 12
M  V30 12 2 12 13
M  V30 13 1 13 14
M  V30 14 2 14 15
M  V30 15 1 15 16
M  V30 16 1 16 17
M  V30 17 2 17 18
M  V30 18 1 17 19
M  V30 19 1 19 20
M  V30 20 2 20 21
M  V30 21 1 21 22
M  V30 22 1 22 23
M  V30 23 1 23 24
M  V30 24 1 23 25
M  V30 25 1 23 26
M  V30 26 2 22 27
M  V30 27 1 27 28
M  V30 28 1 28 29
M  V30 29 2 29 30
M  V30 30 1 30 31
M  V30 31 2 31 32
M  V30 32 1 32 33
M  V30 33 1 32 34
M  V30 34 2 34 35
M  V30 35 1 15 36
M  V30 36 2 36 37
M  V30 37 1 37 38
M  V30 38 2 38 39
M  V30 39 1 39 40
M  V30 40 2 40 41
M  V30 41 2 8 42
M  V30 42 1 42 43
M  V30 43 2 43 44
M  V30 44 1 44 6
M  V30 45 1 41 12
M  V30 46 1 28 20
M  V30 47 1 35 29
M  V30 48 1 41 36
M  V30 49 1 1 45
M  V30 50 1 1 46
M  V30 51 1 1 47
M  V30 52 1 5 48
M  V30 53 1 7 49
M  V30 54 1 9 50
M  V30 55 1 9 51
M  V30 56 1 10 52
M  V30 57 1 10 53
M  V30 58 1 13 54
M  V30 59 1 14 55
M  V30 60 1 16 56
M  V30 61 1 19 57
M  V30 62 1 21 58
M  V30 63 1 24 59
M  V30 64 1 24 60
M  V30 65 1 24 61
M  V30 66 1 25 62
M  V30 67 1 25 63
M  V30 68 1 25 64
M  V30 69 1 26 65
M  V30 70 1 26 66
M  V30 71 1 26 67
M  V30 72 1 30 68
M  V30 73 1 31 69
M  V30 74 1 33 70
M  V30 75 1 33 71
M  V30 76 1 33 72
M  V30 77 1 34 73
M  V30 78 1 35 74
M  V30 79 1 37 75
M  V30 80 1 38 76
M  V30 81 1 39 77
M  V30 82 1 40 78
M  V30 83 1 42 79
M  V30 84 1 43 80
M  V30 END BOND
M  V30 END CTAB
M  END
>  <Dataset>  (230) 
ChEMBL_Kinases

>  <Ligand_Instance>  (230) 
nan

>  <PDB_ID>  (230) 
nan

>  <Standardized_SMILES>  (230) 
COC(=O)Nc1cc(CCOc2ccc(NC(=O)Nc3cc(C(C)(C)C)nn3-c3ccc(C)cc3)c3ccccc23)ccn1

>  <Name>  (230) 
nan

>  <Pocket>  (230) 
nan

>  <ATP_Site>  (230) 
nan

>  <Peripheral>  (230) 
nan

>  <Num_H_Atoms_ProtBoundConf>  (230) 
nan

>  <Num_Resolved_Atoms>  (230) 
nan

>  <Num_Not_Resolved_Atoms>  (230) 
nan

$$$$
CHEMBL5078653
     RDKit          3D

  0  0  0  0  0  0  0  0  0  0999 V3000
M  V30 BEGIN CTAB
M  V30 COUNTS 48 49 0 0 0
M  V30 BEGIN ATOM
M  V30 1 C 2.476999 -3.555680 3.926417 0
M  V30 2 C 2.060077 -2.547012 2.817028 0
M  V30 3 C 1.235363 -3.339675 1.872435 0
M  V30 4 C 3.326579 -1.969393 2.331645 0
M  V30 5 C 3.349604 -0.940406 1.279881 0 CFG=2
M  V30 6 C 4.884716 -0.627632 1.103829 0
M  V30 7 N 2.833356 0.360195 1.644152 0
M  V30 8 C 2.938021 -1.400827 -0.062189 0
M  V30 9 O 1.606570 -1.514459 -0.367442 0
M  V30 10 C 0.591457 -0.625535 -0.397604 0
M  V30 11 N 0.636082 0.691424 -0.116475 0
M  V30 12 C -0.481831 1.436991 -0.198265 0
M  V30 13 C -1.710133 0.922434 -0.563259 0
M  V30 14 C -2.938720 1.707316 -0.660990 0
M  V30 15 C -2.981629 3.040575 -1.027055 0
M  V30 16 C -4.210414 3.655537 -1.076437 0
M  V30 17 N -5.391012 3.078419 -0.799430 0
M  V30 18 C -5.390305 1.762661 -0.433985 0
M  V30 19 C -6.653717 1.049898 -0.110707 0
M  V30 20 F -7.474432 1.009150 -1.235363 0
M  V30 21 F -7.281413 1.691745 0.934397 0
M  V30 22 C -4.163534 1.134563 -0.380843 0
M  V30 23 C -1.794637 -0.424538 -0.858976 0
M  V30 24 C -0.632672 -1.194327 -0.772925 0
M  V30 25 C -0.791561 -2.591663 -1.094369 0
M  V30 26 N -0.906858 -3.701134 -1.363753 0
M  V30 27 H 2.774905 -4.460233 3.381288 0
M  V30 28 H 3.309775 -3.159102 4.514370 0
M  V30 29 H 1.566919 -3.789580 4.521752 0
M  V30 30 H 1.408952 -1.846073 3.377601 0
M  V30 31 H 0.324991 -2.756391 1.622433 0
M  V30 32 H 1.747164 -3.809430 1.034209 0
M  V30 33 H 0.803174 -4.223588 2.449050 0
M  V30 34 H 3.986626 -2.858687 2.055300 0
M  V30 35 H 3.866405 -1.596503 3.267566 0
M  V30 36 H 5.260598 -0.121141 1.998181 0
M  V30 37 H 5.029062 -0.032725 0.178819 0
M  V30 38 H 5.331243 -1.623839 0.967128 0
M  V30 39 H 1.993119 0.256305 2.289215 0
M  V30 40 H 3.518309 0.868666 2.283420 0
M  V30 41 H 3.375474 -0.726884 -0.865689 0
M  V30 42 H 3.472104 -2.373915 -0.289137 0
M  V30 43 H -0.488992 2.493104 0.018005 0
M  V30 44 H -2.054806 3.540853 -1.257884 0
M  V30 45 H -4.281250 4.708294 -1.361883 0
M  V30 46 H -6.389545 0.012478 0.153258 0
M  V30 47 H -4.204175 0.080321 -0.083640 0
M  V30 48 H -2.741982 -0.857770 -1.148352 0
M  V30 END ATOM
M  V30 BEGIN BOND
M  V30 1 1 1 2
M  V30 2 1 2 3
M  V30 3 1 2 4
M  V30 4 1 4 5
M  V30 5 1 5 6
M  V30 6 1 5 7 CFG=1
M  V30 7 1 5 8
M  V30 8 1 8 9
M  V30 9 1 9 10
M  V30 10 2 10 11
M  V30 11 1 11 12
M  V30 12 2 12 13
M  V30 13 1 13 14
M  V30 14 2 14 15
M  V30 15 1 15 16
M  V30 16 2 16 17
M  V30 17 1 17 18
M  V30 18 1 18 19
M  V30 19 1 19 20
M  V30 20 1 19 21
M  V30 21 2 18 22
M  V30 22 1 13 23
M  V30 23 2 23 24
M  V30 24 1 24 25
M  V30 25 3 25 26
M  V30 26 1 24 10
M  V30 27 1 22 14
M  V30 28 1 1 27
M  V30 29 1 1 28
M  V30 30 1 1 29
M  V30 31 1 2 30
M  V30 32 1 3 31
M  V30 33 1 3 32
M  V30 34 1 3 33
M  V30 35 1 4 34
M  V30 36 1 4 35
M  V30 37 1 6 36
M  V30 38 1 6 37
M  V30 39 1 6 38
M  V30 40 1 7 39
M  V30 41 1 7 40
M  V30 42 1 8 41
M  V30 43 1 8 42
M  V30 44 1 12 43
M  V30 45 1 15 44
M  V30 46 1 16 45
M  V30 47 1 19 46
M  V30 48 1 22 47
M  V30 49 1 23 48
M  V30 END BOND
M  V30 END CTAB
M  END
>  <Dataset>  (231) 
ChEMBL_Kinases

>  <Ligand_Instance>  (231) 
nan

>  <PDB_ID>  (231) 
nan

>  <Standardized_SMILES>  (231) 
CC(C)C[C@](C)(N)COc1ncc(-c2ccnc(C(F)F)c2)cc1C#N

>  <Name>  (231) 
nan

>  <Pocket>  (231) 
nan

>  <ATP_Site>  (231) 
nan

>  <Peripheral>  (231) 
nan

>  <Num_H_Atoms_ProtBoundConf>  (231) 
nan

>  <Num_Resolved_Atoms>  (231) 
nan

>  <Num_Not_Resolved_Atoms>  (231) 
nan

$$$$
CHEMBL3780949
     RDKit          3D

  0  0  0  0  0  0  0  0  0  0999 V3000
M  V30 BEGIN CTAB
M  V30 COUNTS 38 40 0 0 0
M  V30 BEGIN ATOM
M  V30 1 C -0.157029 -5.998575 1.972044 0
M  V30 2 C 0.235678 -5.247205 3.215664 0
M  V30 3 O -0.681885 -4.226002 3.529136 0
M  V30 4 C -0.907585 -3.190988 2.642576 0
M  V30 5 C -0.335671 -2.973137 1.409883 0
M  V30 6 C -0.728615 -1.858659 0.706121 0
M  V30 7 C -1.643088 -0.923092 1.103710 0
M  V30 8 N -2.003966 0.216337 0.347904 0
M  V30 9 C -1.581924 0.771177 -0.905424 0
M  V30 10 N -0.253486 1.349510 -0.890180 0
M  V30 11 C -0.208553 2.748524 -0.513989 0
M  V30 12 O -1.089943 3.582553 -0.181246 0
M  V30 13 C 1.161843 3.244411 -0.542419 0
M  V30 14 C 1.842216 4.419833 -0.302858 0
M  V30 15 C 3.208850 4.546889 -0.431418 0
M  V30 16 C 3.965471 3.444974 -0.822558 0
M  V30 17 C 3.342249 2.241148 -1.076700 0
M  V30 18 C 1.972461 2.196653 -0.925232 0
M  V30 19 C 1.107126 1.046449 -1.135943 0
M  V30 20 O 1.414477 -0.099859 -1.487365 0
M  V30 21 C -2.198507 -1.165592 2.338657 0
M  V30 22 C -1.850857 -2.260825 3.094579 0
M  V30 23 H 0.645907 -6.063410 1.211747 0
M  V30 24 H -1.051906 -5.563607 1.459516 0
M  V30 25 H -0.400267 -7.076918 2.208279 0
M  V30 26 H 0.398252 -5.929067 4.065982 0
M  V30 27 H 1.225140 -4.741120 3.027182 0
M  V30 28 H 0.384678 -3.697579 1.090904 0
M  V30 29 H -0.240202 -1.774350 -0.250597 0
M  V30 30 H -2.764565 0.809399 0.811252 0
M  V30 31 H -2.349231 1.459921 -1.277427 0
M  V30 32 H -1.550056 -0.037235 -1.707626 0
M  V30 33 H 1.243430 5.278967 0.003153 0
M  V30 34 H 3.662770 5.514083 -0.221654 0
M  V30 35 H 5.033591 3.589101 -0.910802 0
M  V30 36 H 3.917468 1.384877 -1.379120 0
M  V30 37 H -2.945673 -0.471151 2.748659 0
M  V30 38 H -2.343880 -2.367569 4.057789 0
M  V30 END ATOM
M  V30 BEGIN BOND
M  V30 1 1 1 2
M  V30 2 1 2 3
M  V30 3 1 3 4
M  V30 4 2 4 5
M  V30 5 1 5 6
M  V30 6 2 6 7
M  V30 7 1 7 8
M  V30 8 1 8 9
M  V30 9 1 9 10
M  V30 10 1 10 11
M  V30 11 2 11 12
M  V30 12 1 11 13
M  V30 13 2 13 14
M  V30 14 1 14 15
M  V30 15 2 15 16
M  V30 16 1 16 17
M  V30 17 2 17 18
M  V30 18 1 18 19
M  V30 19 2 19 20
M  V30 20 1 7 21
M  V30 21 2 21 22
M  V30 22 1 22 4
M  V30 23 1 19 10
M  V30 24 1 18 13
M  V30 25 1 1 23
M  V30 26 1 1 24
M  V30 27 1 1 25
M  V30 28 1 2 26
M  V30 29 1 2 27
M  V30 30 1 5 28
M  V30 31 1 6 29
M  V30 32 1 8 30
M  V30 33 1 9 31
M  V30 34 1 9 32
M  V30 35 1 14 33
M  V30 36 1 15 34
M  V30 37 1 16 35
M  V30 38 1 17 36
M  V30 39 1 21 37
M  V30 40 1 22 38
M  V30 END BOND
M  V30 END CTAB
M  END
>  <Dataset>  (232) 
ChEMBL_Kinases

>  <Ligand_Instance>  (232) 
nan

>  <PDB_ID>  (232) 
nan

>  <Standardized_SMILES>  (232) 
CCOc1ccc(NCN2C(=O)c3ccccc3C2=O)cc1

>  <Name>  (232) 
nan

>  <Pocket>  (232) 
nan

>  <ATP_Site>  (232) 
nan

>  <Peripheral>  (232) 
nan

>  <Num_H_Atoms_ProtBoundConf>  (232) 
nan

>  <Num_Resolved_Atoms>  (232) 
nan

>  <Num_Not_Resolved_Atoms>  (232) 
nan

$$$$
CHEMBL5080807
     RDKit          3D

  0  0  0  0  0  0  0  0  0  0999 V3000
M  V30 BEGIN CTAB
M  V30 COUNTS 50 53 0 0 0
M  V30 BEGIN ATOM
M  V30 1 O 4.703027 4.157646 1.345151 0
M  V30 2 C 4.298661 2.969305 1.427884 0
M  V30 3 N 5.111744 2.012875 2.096664 0
M  V30 4 C 6.390061 2.366239 2.684581 0
M  V30 5 C 7.051563 1.166097 3.334066 0
M  V30 6 F 6.265425 0.652817 4.326426 0
M  V30 7 F 7.325516 0.179668 2.424604 0
M  V30 8 F 8.230868 1.596497 3.904892 0
M  V30 9 C 3.018957 2.645767 0.831784 0
M  V30 10 C 2.323223 3.662299 0.209998 0
M  V30 11 C 1.083107 3.453918 -0.393929 0
M  V30 12 C 0.525578 2.189098 -0.373059 0
M  V30 13 C 1.242067 1.179620 0.257946 0
M  V30 14 C 2.475223 1.377461 0.860822 0
M  V30 15 C 0.873809 -0.225439 0.413962 0
M  V30 16 O 1.755663 -1.075138 0.734429 0
M  V30 17 C -0.492400 -0.751233 0.220875 0
M  V30 18 C -0.465909 -2.128843 0.319897 0
M  V30 19 C -1.632437 -2.844005 0.173316 0
M  V30 20 C -2.783720 -2.127018 -0.069005 0
M  V30 21 N -4.006498 -2.833809 -0.224583 0
M  V30 22 C -4.246551 -4.232058 -0.144017 0
M  V30 23 C -4.753903 -5.010036 -1.164770 0
M  V30 24 C -4.968146 -6.366868 -1.029064 0
M  V30 25 C -4.657659 -6.964202 0.187226 0
M  V30 26 F -4.878562 -8.293969 0.288914 0
M  V30 27 C -4.149669 -6.178812 1.205777 0
M  V30 28 C -3.935242 -4.818335 1.068647 0
M  V30 29 F -3.433406 -4.219815 2.175877 0
M  V30 30 C -2.873272 -0.756736 -0.178118 0
M  V30 31 C -1.672133 -0.061615 -0.024367 0
M  V30 32 C -1.841068 1.406232 -0.153478 0
M  V30 33 C -0.796836 2.042963 -1.036085 0
M  V30 34 H 4.803077 1.037460 2.176873 0
M  V30 35 H 6.161711 3.080781 3.511814 0
M  V30 36 H 7.065090 2.853983 1.973955 0
M  V30 37 H 2.692065 4.686477 0.149408 0
M  V30 38 H 0.517089 4.238771 -0.889260 0
M  V30 39 H 3.001736 0.569856 1.340941 0
M  V30 40 H 0.489514 -2.621412 0.513987 0
M  V30 41 H -1.566699 -3.904985 0.256554 0
M  V30 42 H -4.930625 -2.399694 -0.427619 0
M  V30 43 H -4.975046 -4.487946 -2.084329 0
M  V30 44 H -5.363589 -6.933367 -1.846636 0
M  V30 45 H -3.936022 -6.735129 2.122792 0
M  V30 46 H -3.790826 -0.237399 -0.367694 0
M  V30 47 H -1.717689 1.824635 0.877103 0
M  V30 48 H -2.828202 1.650258 -0.592254 0
M  V30 49 H -0.650057 1.490624 -1.983906 0
M  V30 50 H -1.157085 3.075079 -1.265726 0
M  V30 END ATOM
M  V30 BEGIN BOND
M  V30 1 2 1 2
M  V30 2 1 2 3
M  V30 3 1 3 4
M  V30 4 1 4 5
M  V30 5 1 5 6
M  V30 6 1 5 7
M  V30 7 1 5 8
M  V30 8 1 2 9
M  V30 9 2 9 10
M  V30 10 1 10 11
M  V30 11 2 11 12
M  V30 12 1 12 13
M  V30 13 2 13 14
M  V30 14 1 13 15
M  V30 15 2 15 16
M  V30 16 1 15 17
M  V30 17 2 17 18
M  V30 18 1 18 19
M  V30 19 2 19 20
M  V30 20 1 20 21
M  V30 21 1 21 22
M  V30 22 2 22 23
M  V30 23 1 23 24
M  V30 24 2 24 25
M  V30 25 1 25 26
M  V30 26 1 25 27
M  V30 27 2 27 28
M  V30 28 1 28 29
M  V30 29 1 20 30
M  V30 30 2 30 31
M  V30 31 1 31 32
M  V30 32 1 32 33
M  V30 33 1 14 9
M  V30 34 1 31 17
M  V30 35 1 33 12
M  V30 36 1 28 22
M  V30 37 1 3 34
M  V30 38 1 4 35
M  V30 39 1 4 36
M  V30 40 1 10 37
M  V30 41 1 11 38
M  V30 42 1 14 39
M  V30 43 1 18 40
M  V30 44 1 19 41
M  V30 45 1 21 42
M  V30 46 1 23 43
M  V30 47 1 24 44
M  V30 48 1 27 45
M  V30 49 1 30 46
M  V30 50 1 32 47
M  V30 51 1 32 48
M  V30 52 1 33 49
M  V30 53 1 33 50
M  V30 END BOND
M  V30 END CTAB
M  END
>  <Dataset>  (233) 
ChEMBL_Kinases

>  <Ligand_Instance>  (233) 
nan

>  <PDB_ID>  (233) 
nan

>  <Standardized_SMILES>  (233) 
O=C(NCC(F)(F)F)c1ccc2c(c1)C(=O)c1ccc(Nc3ccc(F)cc3F)cc1CC2

>  <Name>  (233) 
nan

>  <Pocket>  (233) 
nan

>  <ATP_Site>  (233) 
nan

>  <Peripheral>  (233) 
nan

>  <Num_H_Atoms_ProtBoundConf>  (233) 
nan

>  <Num_Resolved_Atoms>  (233) 
nan

>  <Num_Not_Resolved_Atoms>  (233) 
nan

$$$$
CHEMBL5080831
     RDKit          3D

  0  0  0  0  0  0  0  0  0  0999 V3000
M  V30 BEGIN CTAB
M  V30 COUNTS 60 64 0 0 0
M  V30 BEGIN ATOM
M  V30 1 O 1.002743 -0.941265 4.789243 0
M  V30 2 C 1.150793 0.039257 3.999917 0
M  V30 3 N 2.032935 1.025901 4.534340 0
M  V30 4 C 2.499913 0.615657 5.822427 0
M  V30 5 C 3.442821 1.639338 6.424072 0
M  V30 6 C 4.638616 1.869760 5.596591 0
M  V30 7 C 5.686064 1.004335 5.924880 0
M  V30 8 C 6.908079 1.051021 5.267165 0
M  V30 9 C 7.098131 1.964995 4.271590 0
M  V30 10 F 8.279831 2.053607 3.592723 0
M  V30 11 C 6.074473 2.822260 3.939461 0
M  V30 12 C 4.858962 2.781999 4.587619 0
M  V30 13 C 0.488492 0.143146 2.687443 0
M  V30 14 C 0.654143 1.215001 1.834943 0
M  V30 15 C 0.007564 1.255878 0.617035 0
M  V30 16 C -0.805819 0.191556 0.285346 0
M  V30 17 C -0.973714 -0.882869 1.136613 0
M  V30 18 C -0.325481 -0.920003 2.353530 0
M  V30 19 C -1.787881 -2.076880 0.942562 0
M  V30 20 O -2.027144 -2.805790 1.940025 0
M  V30 21 C -2.354063 -2.498618 -0.332510 0
M  V30 22 C -3.227538 -3.552020 -0.212095 0
M  V30 23 C -3.880599 -4.119777 -1.260802 0
M  V30 24 C -3.668455 -3.626704 -2.518590 0
M  V30 25 N -4.291269 -4.136709 -3.690800 0
M  V30 26 C -4.189939 -3.731274 -5.050267 0
M  V30 27 C -3.748745 -4.509513 -6.100202 0
M  V30 28 C -3.687277 -4.023897 -7.389831 0
M  V30 29 C -4.080916 -2.711728 -7.642038 0
M  V30 30 F -4.012293 -2.250809 -8.924854 0
M  V30 31 C -4.526454 -1.920728 -6.591483 0
M  V30 32 C -4.582631 -2.424856 -5.296926 0
M  V30 33 F -5.044329 -1.504478 -4.406464 0
M  V30 34 C -2.791299 -2.562607 -2.671845 0
M  V30 35 C -2.134435 -1.995038 -1.598987 0
M  V30 36 C -1.232232 -0.869467 -1.918562 0
M  V30 37 C -1.448841 0.345003 -1.048638 0
M  V30 38 H 2.217093 1.884107 3.943333 0
M  V30 39 H 3.057478 -0.349212 5.776304 0
M  V30 40 H 1.649513 0.467697 6.511144 0
M  V30 41 H 2.859764 2.605725 6.475999 0
M  V30 42 H 3.693995 1.413539 7.467829 0
M  V30 43 H 5.649770 0.240038 6.695908 0
M  V30 44 H 7.737052 0.403525 5.490148 0
M  V30 45 H 6.180271 3.573781 3.146047 0
M  V30 46 H 4.005552 3.409975 4.397492 0
M  V30 47 H 1.298678 2.026963 2.131401 0
M  V30 48 H 0.137913 2.093274 -0.047275 0
M  V30 49 H -0.484573 -1.779827 2.989862 0
M  V30 50 H -3.401950 -3.949240 0.779883 0
M  V30 51 H -4.574404 -4.962404 -1.134760 0
M  V30 52 H -4.936115 -4.945930 -3.552203 0
M  V30 53 H -3.452615 -5.523297 -5.859118 0
M  V30 54 H -3.327211 -4.687048 -8.192805 0
M  V30 55 H -4.808482 -0.918263 -6.891442 0
M  V30 56 H -2.532671 -2.077325 -3.609231 0
M  V30 57 H -0.193775 -1.223552 -1.673725 0
M  V30 58 H -1.205467 -0.638969 -3.001594 0
M  V30 59 H -2.543836 0.422920 -0.871491 0
M  V30 60 H -1.071513 1.214875 -1.599470 0
M  V30 END ATOM
M  V30 BEGIN BOND
M  V30 1 2 1 2
M  V30 2 1 2 3
M  V30 3 1 3 4
M  V30 4 1 4 5
M  V30 5 1 5 6
M  V30 6 2 6 7
M  V30 7 1 7 8
M  V30 8 2 8 9
M  V30 9 1 9 10
M  V30 10 1 9 11
M  V30 11 2 11 12
M  V30 12 1 2 13
M  V30 13 2 13 14
M  V30 14 1 14 15
M  V30 15 2 15 16
M  V30 16 1 16 17
M  V30 17 2 17 18
M  V30 18 1 17 19
M  V30 19 2 19 20
M  V30 20 1 19 21
M  V30 21 2 21 22
M  V30 22 1 22 23
M  V30 23 2 23 24
M  V30 24 1 24 25
M  V30 25 1 25 26
M  V30 26 2 26 27
M  V30 27 1 27 28
M  V30 28 2 28 29
M  V30 29 1 29 30
M  V30 30 1 29 31
M  V30 31 2 31 32
M  V30 32 1 32 33
M  V30 33 1 24 34
M  V30 34 2 34 35
M  V30 35 1 35 36
M  V30 36 1 36 37
M  V30 37 1 12 6
M  V30 38 1 18 13
M  V30 39 1 35 21
M  V30 40 1 37 16
M  V30 41 1 32 26
M  V30 42 1 3 38
M  V30 43 1 4 39
M  V30 44 1 4 40
M  V30 45 1 5 41
M  V30 46 1 5 42
M  V30 47 1 7 43
M  V30 48 1 8 44
M  V30 49 1 11 45
M  V30 50 1 12 46
M  V30 51 1 14 47
M  V30 52 1 15 48
M  V30 53 1 18 49
M  V30 54 1 22 50
M  V30 55 1 23 51
M  V30 56 1 25 52
M  V30 57 1 27 53
M  V30 58 1 28 54
M  V30 59 1 31 55
M  V30 60 1 34 56
M  V30 61 1 36 57
M  V30 62 1 36 58
M  V30 63 1 37 59
M  V30 64 1 37 60
M  V30 END BOND
M  V30 END CTAB
M  END
>  <Dataset>  (234) 
ChEMBL_Kinases

>  <Ligand_Instance>  (234) 
nan

>  <PDB_ID>  (234) 
nan

>  <Standardized_SMILES>  (234) 
O=C(NCCc1ccc(F)cc1)c1ccc2c(c1)C(=O)c1ccc(Nc3ccc(F)cc3F)cc1CC2

>  <Name>  (234) 
nan

>  <Pocket>  (234) 
nan

>  <ATP_Site>  (234) 
nan

>  <Peripheral>  (234) 
nan

>  <Num_H_Atoms_ProtBoundConf>  (234) 
nan

>  <Num_Resolved_Atoms>  (234) 
nan

>  <Num_Not_Resolved_Atoms>  (234) 
nan

$$$$
CHEMBL5080868
     RDKit          3D

  0  0  0  0  0  0  0  0  0  0999 V3000
M  V30 BEGIN CTAB
M  V30 COUNTS 61 65 0 0 0
M  V30 BEGIN ATOM
M  V30 1 C -0.744445 -3.975835 4.519034 0
M  V30 2 C -0.394712 -2.553111 4.316505 0
M  V30 3 C -0.548325 -1.680806 5.374045 0
M  V30 4 C -0.216618 -0.354915 5.165004 0
M  V30 5 C 0.250679 0.103320 3.959315 0
M  V30 6 C 0.572540 1.508858 3.833091 0
M  V30 7 O 0.409195 2.245327 4.832360 0
M  V30 8 N 1.058251 2.054275 2.626167 0
M  V30 9 C 1.435964 3.354048 2.252146 0
M  V30 10 C 2.692969 3.964350 2.335781 0
M  V30 11 C 2.831773 5.264874 1.903838 0
M  V30 12 N 1.795354 5.955900 1.407626 0
M  V30 13 C 0.573387 5.413346 1.308182 0
M  V30 14 C -0.533841 6.222071 0.752820 0
M  V30 15 F -1.721923 5.549146 1.027316 0
M  V30 16 F -0.550108 7.432156 1.450399 0
M  V30 17 F -0.335808 6.417985 -0.589774 0
M  V30 18 C 0.380610 4.102644 1.730796 0
M  V30 19 C 0.383089 -0.812595 2.941771 0
M  V30 20 C 0.068280 -2.165468 3.079129 0
M  V30 21 C 0.244979 -3.055589 1.937885 0
M  V30 22 C 0.816598 -4.311189 1.892809 0
M  V30 23 C 0.881804 -4.987362 0.691941 0
M  V30 24 C 0.387799 -4.444464 -0.485629 0
M  V30 25 C -0.184275 -3.188922 -0.442899 0
M  V30 26 C -0.254650 -2.503173 0.754382 0
M  V30 27 O -0.700859 -2.561892 -1.541153 0
M  V30 28 C -0.733047 -2.710331 -2.918391 0
M  V30 29 C -0.500750 -1.302741 -3.487480 0
M  V30 30 C -1.733589 -0.444037 -3.303482 0
M  V30 31 O -2.783246 -0.879779 -4.111073 0
M  V30 32 C -2.546104 -2.174510 -4.576140 0
M  V30 33 C -2.134415 -3.086741 -3.414620 0
M  V30 34 C 0.321683 -3.559175 -3.534321 0
M  V30 35 C 0.424544 -4.933515 -2.951179 0
M  V30 36 O 0.373537 -5.949711 -3.724633 0
M  V30 37 N 0.581286 -5.352241 -1.584529 0
M  V30 38 H 0.068672 -4.564172 4.965645 0
M  V30 39 H -1.607714 -4.069645 5.241059 0
M  V30 40 H -1.101088 -4.467967 3.590399 0
M  V30 41 H -0.920884 -2.061415 6.325335 0
M  V30 42 H -0.356252 0.291666 6.031680 0
M  V30 43 H 1.209371 1.477929 1.769501 0
M  V30 44 H 3.448775 3.311684 2.750923 0
M  V30 45 H 3.856425 5.640183 2.015698 0
M  V30 46 H -0.647078 3.728640 1.617740 0
M  V30 47 H 0.743663 -0.495312 1.987949 0
M  V30 48 H 1.168882 -4.651857 2.835703 0
M  V30 49 H 1.335256 -5.965330 0.696770 0
M  V30 50 H -0.721760 -1.530716 0.670975 0
M  V30 51 H -0.130118 -1.319795 -4.513693 0
M  V30 52 H 0.301589 -0.858522 -2.858379 0
M  V30 53 H -1.451112 0.569788 -3.660842 0
M  V30 54 H -1.977956 -0.389799 -2.240880 0
M  V30 55 H -1.759203 -2.209677 -5.360019 0
M  V30 56 H -3.494468 -2.568626 -4.959325 0
M  V30 57 H -2.884514 -2.980931 -2.615684 0
M  V30 58 H -2.167856 -4.119409 -3.820519 0
M  V30 59 H 1.272383 -3.008654 -3.492616 0
M  V30 60 H 0.077120 -3.680003 -4.601135 0
M  V30 61 H 0.842442 -6.338875 -1.367894 0
M  V30 END ATOM
M  V30 BEGIN BOND
M  V30 1 1 1 2
M  V30 2 2 2 3
M  V30 3 1 3 4
M  V30 4 2 4 5
M  V30 5 1 5 6
M  V30 6 2 6 7
M  V30 7 1 6 8
M  V30 8 1 8 9
M  V30 9 2 9 10
M  V30 10 1 10 11
M  V30 11 2 11 12
M  V30 12 1 12 13
M  V30 13 1 13 14
M  V30 14 1 14 15
M  V30 15 1 14 16
M  V30 16 1 14 17
M  V30 17 2 13 18
M  V30 18 1 5 19
M  V30 19 2 19 20
M  V30 20 1 20 21
M  V30 21 2 21 22
M  V30 22 1 22 23
M  V30 23 2 23 24
M  V30 24 1 24 25
M  V30 25 2 25 26
M  V30 26 1 25 27
M  V30 27 1 27 28
M  V30 28 1 28 29
M  V30 29 1 29 30
M  V30 30 1 30 31
M  V30 31 1 31 32
M  V30 32 1 32 33
M  V30 33 1 28 34
M  V30 34 1 34 35
M  V30 35 2 35 36
M  V30 36 1 35 37
M  V30 37 1 20 2
M  V30 38 1 26 21
M  V30 39 1 33 28
M  V30 40 1 18 9
M  V30 41 1 37 24
M  V30 42 1 1 38
M  V30 43 1 1 39
M  V30 44 1 1 40
M  V30 45 1 3 41
M  V30 46 1 4 42
M  V30 47 1 8 43
M  V30 48 1 10 44
M  V30 49 1 11 45
M  V30 50 1 18 46
M  V30 51 1 19 47
M  V30 52 1 22 48
M  V30 53 1 23 49
M  V30 54 1 26 50
M  V30 55 1 29 51
M  V30 56 1 29 52
M  V30 57 1 30 53
M  V30 58 1 30 54
M  V30 59 1 32 55
M  V30 60 1 32 56
M  V30 61 1 33 57
M  V30 62 1 33 58
M  V30 63 1 34 59
M  V30 64 1 34 60
M  V30 65 1 37 61
M  V30 END BOND
M  V30 END CTAB
M  END
>  <Dataset>  (235) 
ChEMBL_Kinases

>  <Ligand_Instance>  (235) 
nan

>  <PDB_ID>  (235) 
nan

>  <Standardized_SMILES>  (235) 
Cc1ccc(C(=O)Nc2ccnc(C(F)(F)F)c2)cc1-c1ccc2c(c1)OC1(CCOCC1)CC(=O)N2

>  <Name>  (235) 
nan

>  <Pocket>  (235) 
nan

>  <ATP_Site>  (235) 
nan

>  <Peripheral>  (235) 
nan

>  <Num_H_Atoms_ProtBoundConf>  (235) 
nan

>  <Num_Resolved_Atoms>  (235) 
nan

>  <Num_Not_Resolved_Atoms>  (235) 
nan

$$$$
CHEMBL5080876
     RDKit          3D

  0  0  0  0  0  0  0  0  0  0999 V3000
M  V30 BEGIN CTAB
M  V30 COUNTS 30 32 0 0 0
M  V30 BEGIN ATOM
M  V30 1 C -2.076781 -3.823464 1.635401 0
M  V30 2 N -0.792463 -3.695252 2.313649 0
M  V30 3 C -0.284078 -4.529033 3.223392 0
M  V30 4 N 0.929540 -4.027197 3.588343 0
M  V30 5 C 1.149118 -2.904925 2.906585 0
M  V30 6 C 2.153194 -1.961393 2.825495 0
M  V30 7 C 2.052709 -0.876321 1.978520 0
M  V30 8 C 0.949479 -0.682090 1.175231 0
M  V30 9 C 0.761496 0.437661 0.250598 0
M  V30 10 C -0.414658 0.458447 -0.470732 0
M  V30 11 C -0.676769 1.486477 -1.373364 0
M  V30 12 N -1.896972 1.496243 -2.113144 0
M  V30 13 N 0.248230 2.464205 -1.526691 0
M  V30 14 C 1.409869 2.438643 -0.810617 0
M  V30 15 N 2.340005 3.518910 -1.035192 0
M  V30 16 C 1.693321 1.439869 0.083620 0
M  V30 17 N -0.019420 -1.609872 1.266021 0
M  V30 18 C 0.063366 -2.679149 2.090921 0
M  V30 19 H -1.968459 -3.609641 0.551223 0
M  V30 20 H -2.492551 -4.846261 1.722239 0
M  V30 21 H -2.801740 -3.045434 1.995853 0
M  V30 22 H -0.762104 -5.441436 3.597806 0
M  V30 23 H 3.038994 -2.073021 3.438331 0
M  V30 24 H 2.845664 -0.143987 1.923767 0
M  V30 25 H -1.182143 -0.304427 -0.378573 0
M  V30 26 H -2.750804 1.967685 -1.712333 0
M  V30 27 H -2.108997 1.088727 -3.050643 0
M  V30 28 H 3.335754 3.590927 -1.356827 0
M  V30 29 H 1.845373 4.424701 -0.804901 0
M  V30 30 H 2.614700 1.423265 0.648926 0
M  V30 END ATOM
M  V30 BEGIN BOND
M  V30 1 1 1 2
M  V30 2 1 2 3
M  V30 3 2 3 4
M  V30 4 1 4 5
M  V30 5 2 5 6
M  V30 6 1 6 7
M  V30 7 2 7 8
M  V30 8 1 8 9
M  V30 9 2 9 10
M  V30 10 1 10 11
M  V30 11 1 11 12
M  V30 12 2 11 13
M  V30 13 1 13 14
M  V30 14 1 14 15
M  V30 15 2 14 16
M  V30 16 1 8 17
M  V30 17 2 17 18
M  V30 18 1 18 2
M  V30 19 1 18 5
M  V30 20 1 16 9
M  V30 21 1 1 19
M  V30 22 1 1 20
M  V30 23 1 1 21
M  V30 24 1 3 22
M  V30 25 1 6 23
M  V30 26 1 7 24
M  V30 27 1 10 25
M  V30 28 1 12 26
M  V30 29 1 12 27
M  V30 30 1 15 28
M  V30 31 1 15 29
M  V30 32 1 16 30
M  V30 END BOND
M  V30 END CTAB
M  END
>  <Dataset>  (236) 
ChEMBL_Kinases

>  <Ligand_Instance>  (236) 
nan

>  <PDB_ID>  (236) 
nan

>  <Standardized_SMILES>  (236) 
Cn1cnc2ccc(-c3cc(N)nc(N)c3)nc21

>  <Name>  (236) 
nan

>  <Pocket>  (236) 
nan

>  <ATP_Site>  (236) 
nan

>  <Peripheral>  (236) 
nan

>  <Num_H_Atoms_ProtBoundConf>  (236) 
nan

>  <Num_Resolved_Atoms>  (236) 
nan

>  <Num_Not_Resolved_Atoms>  (236) 
nan

$$$$
CHEMBL5080922
     RDKit          3D

  0  0  0  0  0  0  0  0  0  0999 V3000
M  V30 BEGIN CTAB
M  V30 COUNTS 53 56 0 0 0
M  V30 BEGIN ATOM
M  V30 1 C 5.770147 -2.961916 -1.428496 0
M  V30 2 N 4.319044 -2.748644 -1.489443 0
M  V30 3 C 3.383945 -3.805789 -1.100329 0
M  V30 4 C 3.080841 -3.681257 0.380067 0
M  V30 5 O 2.196261 -4.660007 0.810605 0
M  V30 6 C 3.969964 -1.460781 -1.947577 0
M  V30 7 O 5.086921 -0.920158 -2.153417 0
M  V30 8 C 2.594598 -1.015712 -2.092480 0
M  V30 9 C 1.901140 -0.404025 -1.097493 0
M  V30 10 C 0.596403 0.016883 -1.238706 0
M  V30 11 C -0.190436 0.676838 -0.203498 0
M  V30 12 C -1.484756 1.030309 -0.519796 0
M  V30 13 C -2.186377 1.651394 0.493776 0
M  V30 14 C -1.698178 1.939663 1.776374 0
M  V30 15 N -2.610139 2.599053 2.637915 0
M  V30 16 S -4.214370 2.509815 3.246396 0
M  V30 17 O -4.497845 3.754716 4.025930 0
M  V30 18 O -5.105453 2.489216 1.997915 0
M  V30 19 C -4.566177 1.097343 4.169543 0
M  V30 20 C -4.892308 1.284969 5.523944 0
M  V30 21 C -5.185650 0.295037 6.408182 0
M  V30 22 C -5.175530 -1.003990 5.993341 0
M  V30 23 C -4.867410 -1.257603 4.690602 0
M  V30 24 Cl -4.824489 -2.896959 4.046498 0
M  V30 25 C -4.577887 -0.231443 3.831092 0
M  V30 26 Cl -4.201262 -0.559262 2.156785 0
M  V30 27 C -0.396919 1.566766 2.045043 0
M  V30 28 C 0.319388 0.945795 1.046874 0
M  V30 29 N 0.024873 -0.210565 -2.436382 0
M  V30 30 C 0.668068 -0.814718 -3.460764 0
M  V30 31 N 0.305789 -1.138665 -4.715747 0
M  V30 32 N 1.313644 -1.727525 -5.334000 0
M  V30 33 C 2.371689 -1.810817 -4.507812 0
M  V30 34 C 1.975722 -1.232095 -3.306884 0
M  V30 35 H 6.219723 -2.353428 -0.641676 0
M  V30 36 H 6.252855 -2.831219 -2.412596 0
M  V30 37 H 5.969291 -4.031177 -1.127323 0
M  V30 38 H 2.479847 -3.795872 -1.716086 0
M  V30 39 H 3.866229 -4.793309 -1.251745 0
M  V30 40 H 2.542009 -2.708120 0.545696 0
M  V30 41 H 4.009683 -3.611601 0.968907 0
M  V30 42 H 1.519607 -4.325439 1.435975 0
M  V30 43 H 2.387935 -0.244195 -0.170877 0
M  V30 44 H -1.913291 0.840240 -1.471884 0
M  V30 45 H -3.214391 1.925685 0.224737 0
M  V30 46 H -2.010929 3.409846 2.970371 0
M  V30 47 H -4.922974 2.288363 5.935487 0
M  V30 48 H -5.429839 0.491549 7.438483 0
M  V30 49 H -5.387432 -1.873162 6.588501 0
M  V30 50 H -0.048650 1.801086 3.038100 0
M  V30 51 H 1.343190 0.671535 1.311693 0
M  V30 52 H -0.636163 -0.945870 -5.124091 0
M  V30 53 H 3.356111 -2.244761 -4.722125 0
M  V30 END ATOM
M  V30 BEGIN BOND
M  V30 1 1 1 2
M  V30 2 1 2 3
M  V30 3 1 3 4
M  V30 4 1 4 5
M  V30 5 1 2 6
M  V30 6 2 6 7
M  V30 7 1 6 8
M  V30 8 2 8 9
M  V30 9 1 9 10
M  V30 10 1 10 11
M  V30 11 2 11 12
M  V30 12 1 12 13
M  V30 13 2 13 14
M  V30 14 1 14 15
M  V30 15 1 15 16
M  V30 16 2 16 17
M  V30 17 2 16 18
M  V30 18 1 16 19
M  V30 19 2 19 20
M  V30 20 1 20 21
M  V30 21 2 21 22
M  V30 22 1 22 23
M  V30 23 1 23 24
M  V30 24 2 23 25
M  V30 25 1 25 26
M  V30 26 1 14 27
M  V30 27 2 27 28
M  V30 28 2 10 29
M  V30 29 1 29 30
M  V30 30 1 30 31
M  V30 31 1 31 32
M  V30 32 2 32 33
M  V30 33 1 33 34
M  V30 34 1 34 8
M  V30 35 1 28 11
M  V30 36 2 34 30
M  V30 37 1 25 19
M  V30 38 1 1 35
M  V30 39 1 1 36
M  V30 40 1 1 37
M  V30 41 1 3 38
M  V30 42 1 3 39
M  V30 43 1 4 40
M  V30 44 1 4 41
M  V30 45 1 5 42
M  V30 46 1 9 43
M  V30 47 1 12 44
M  V30 48 1 13 45
M  V30 49 1 15 46
M  V30 50 1 20 47
M  V30 51 1 21 48
M  V30 52 1 22 49
M  V30 53 1 27 50
M  V30 54 1 28 51
M  V30 55 1 31 52
M  V30 56 1 33 53
M  V30 END BOND
M  V30 END CTAB
M  END
>  <Dataset>  (237) 
ChEMBL_Kinases

>  <Ligand_Instance>  (237) 
nan

>  <PDB_ID>  (237) 
nan

>  <Standardized_SMILES>  (237) 
CN(CCO)C(=O)c1cc(-c2ccc(NS(=O)(=O)c3cccc(Cl)c3Cl)cc2)nc2[nH]ncc12

>  <Name>  (237) 
nan

>  <Pocket>  (237) 
nan

>  <ATP_Site>  (237) 
nan

>  <Peripheral>  (237) 
nan

>  <Num_H_Atoms_ProtBoundConf>  (237) 
nan

>  <Num_Resolved_Atoms>  (237) 
nan

>  <Num_Not_Resolved_Atoms>  (237) 
nan

$$$$
CHEMBL5080937
     RDKit          3D

  0  0  0  0  0  0  0  0  0  0999 V3000
M  V30 BEGIN CTAB
M  V30 COUNTS 47 50 0 0 0
M  V30 BEGIN ATOM
M  V30 1 C 2.548230 -4.545511 2.113428 0
M  V30 2 C 1.718087 -3.816222 1.070980 0 CFG=2
M  V30 3 C 1.996277 -4.482036 -0.291461 0
M  V30 4 C 2.941064 -3.485409 -0.984915 0
M  V30 5 C 3.462328 -2.807253 0.298640 0
M  V30 6 N 2.169725 -2.451285 0.854460 0
M  V30 7 C 1.535807 -1.223399 1.090941 0
M  V30 8 C 2.084860 -0.000483 0.765338 0
M  V30 9 C 3.341520 0.360371 0.157370 0
M  V30 10 N 4.348016 0.665928 -0.319374 0
M  V30 11 C 1.192185 1.010069 1.126414 0
M  V30 12 C 1.148065 2.382467 1.060519 0
M  V30 13 N 2.255713 3.072492 0.502712 0
M  V30 14 N 0.088166 3.073752 1.509190 0
M  V30 15 C -0.953124 2.425116 2.033517 0
M  V30 16 N -2.200397 2.856503 2.560718 0
M  V30 17 C -3.289825 2.660665 1.642161 0
M  V30 18 C -3.314636 2.102065 0.366807 0
M  V30 19 N -4.531304 2.087472 -0.165208 0
M  V30 20 C -4.857996 1.559668 -1.489736 0
M  V30 21 N -5.328932 2.630541 0.738023 0
M  V30 22 C -4.640234 2.985009 1.823002 0
M  V30 23 Cl -5.310760 3.741698 3.262237 0
M  V30 24 N -0.919106 1.085702 2.102617 0
M  V30 25 C 0.125903 0.329545 1.664444 0
M  V30 26 N 0.349165 -1.021818 1.635970 0
M  V30 27 C -0.628291 -1.949613 2.149108 0
M  V30 28 H 3.162585 -3.847292 2.697901 0
M  V30 29 H 1.822264 -4.973656 2.865911 0
M  V30 30 H 3.096272 -5.408372 1.697279 0
M  V30 31 H 0.661188 -3.946567 1.220094 0
M  V30 32 H 2.572449 -5.424901 -0.164334 0
M  V30 33 H 1.078169 -4.607222 -0.885131 0
M  V30 34 H 2.323982 -2.728581 -1.492747 0
M  V30 35 H 3.720991 -3.956732 -1.567160 0
M  V30 36 H 4.158640 -2.016186 0.127562 0
M  V30 37 H 3.949285 -3.646536 0.861765 0
M  V30 38 H 2.268550 2.967196 -0.534047 0
M  V30 39 H 2.956910 3.612579 1.083311 0
M  V30 40 H -2.455120 3.279325 3.474892 0
M  V30 41 H -2.410921 1.724443 -0.119606 0
M  V30 42 H -4.819390 2.398494 -2.210423 0
M  V30 43 H -5.875430 1.083016 -1.490608 0
M  V30 44 H -4.143620 0.756873 -1.770216 0
M  V30 45 H -0.171240 -2.567782 2.947593 0
M  V30 46 H -1.192272 -2.490349 1.384990 0
M  V30 47 H -1.443711 -1.398056 2.716664 0
M  V30 END ATOM
M  V30 BEGIN BOND
M  V30 1 1 1 2
M  V30 2 1 2 3
M  V30 3 1 3 4
M  V30 4 1 4 5
M  V30 5 1 5 6
M  V30 6 1 6 7
M  V30 7 2 7 8
M  V30 8 1 8 9
M  V30 9 3 9 10
M  V30 10 1 8 11
M  V30 11 2 11 12
M  V30 12 1 12 13
M  V30 13 1 12 14
M  V30 14 2 14 15
M  V30 15 1 15 16
M  V30 16 1 16 17
M  V30 17 2 17 18
M  V30 18 1 18 19
M  V30 19 1 19 20
M  V30 20 1 19 21
M  V30 21 2 21 22
M  V30 22 1 22 23
M  V30 23 1 15 24
M  V30 24 2 24 25
M  V30 25 1 25 26
M  V30 26 1 26 27
M  V30 27 1 6 2
M  V30 28 1 26 7
M  V30 29 1 25 11
M  V30 30 1 22 17
M  V30 31 1 1 28
M  V30 32 1 1 29
M  V30 33 1 1 30
M  V30 34 1 2 31 CFG=1
M  V30 35 1 3 32
M  V30 36 1 3 33
M  V30 37 1 4 34
M  V30 38 1 4 35
M  V30 39 1 5 36
M  V30 40 1 5 37
M  V30 41 1 13 38
M  V30 42 1 13 39
M  V30 43 1 16 40
M  V30 44 1 18 41
M  V30 45 1 20 42
M  V30 46 1 20 43
M  V30 47 1 20 44
M  V30 48 1 27 45
M  V30 49 1 27 46
M  V30 50 1 27 47
M  V30 END BOND
M  V30 END CTAB
M  END
>  <Dataset>  (238) 
ChEMBL_Kinases

>  <Ligand_Instance>  (238) 
nan

>  <PDB_ID>  (238) 
nan

>  <Standardized_SMILES>  (238) 
C[C@@H]1CCCN1c1c(C#N)c2c(N)nc(Nc3cn(C)nc3Cl)nc2n1C

>  <Name>  (238) 
nan

>  <Pocket>  (238) 
nan

>  <ATP_Site>  (238) 
nan

>  <Peripheral>  (238) 
nan

>  <Num_H_Atoms_ProtBoundConf>  (238) 
nan

>  <Num_Resolved_Atoms>  (238) 
nan

>  <Num_Not_Resolved_Atoms>  (238) 
nan

$$$$
CHEMBL5080962
     RDKit          3D

  0  0  0  0  0  0  0  0  0  0999 V3000
M  V30 BEGIN CTAB
M  V30 COUNTS 65 69 0 0 0
M  V30 BEGIN ATOM
M  V30 1 O -0.245051 -2.597234 2.186638 0
M  V30 2 C -0.223890 -3.846836 2.193570 0
M  V30 3 C -1.017494 -4.773917 1.357803 0
M  V30 4 C -1.797355 -4.005032 0.331329 0
M  V30 5 C -0.875644 -3.298336 -0.586588 0
M  V30 6 N -1.554825 -2.523715 -1.613516 0
M  V30 7 C -0.626788 -1.887973 -2.451145 0
M  V30 8 O 0.556343 -2.184845 -2.057591 0
M  V30 9 C -0.865767 -1.034941 -3.577100 0
M  V30 10 C 0.278568 -0.547741 -4.229317 0
M  V30 11 C 0.179882 0.273391 -5.319585 0
M  V30 12 C -1.009218 0.685461 -5.861966 0
M  V30 13 N -2.097437 0.191835 -5.201411 0
M  V30 14 C -3.404925 0.595463 -5.724453 0
M  V30 15 C -3.847311 1.871915 -5.057365 0
M  V30 16 C -3.459873 3.072036 -5.648495 0
M  V30 17 C -3.790920 4.321591 -5.149855 0
M  V30 18 C -4.555772 4.326638 -3.989911 0
M  V30 19 F -4.868420 5.563600 -3.518963 0
M  V30 20 C -4.960538 3.161135 -3.372461 0
M  V30 21 F -5.705296 3.223704 -2.242168 0
M  V30 22 C -4.605802 1.941750 -3.907155 0
M  V30 23 C -2.032672 -0.615327 -4.129825 0
M  V30 24 O -3.066633 -1.022553 -3.584684 0
M  V30 25 N 0.680311 -4.398451 3.126758 0
M  V30 26 C 1.564050 -3.792434 4.054961 0
M  V30 27 C 2.388901 -4.582983 4.862781 0
M  V30 28 C 3.259255 -4.045879 5.778395 0
M  V30 29 C 3.373429 -2.688587 5.957892 0
M  V30 30 C 2.586491 -1.890761 5.189353 0
M  V30 31 C 1.724109 -2.443361 4.280964 0
M  V30 32 C 2.880817 -0.506772 5.556855 0
M  V30 33 C 2.349910 0.608058 5.101909 0
M  V30 34 C 2.647573 1.980116 5.466459 0
M  V30 35 C 1.562644 2.826827 5.739920 0
M  V30 36 N 1.999071 4.065526 6.036661 0
M  V30 37 C 3.322799 4.034867 5.960823 0
M  V30 38 N 3.701233 2.793143 5.621281 0
M  V30 39 C 3.895144 -0.521259 6.596369 0
M  V30 40 O 4.428271 0.441634 7.191255 0
M  V30 41 N 4.185860 -1.908356 6.827664 0
M  V30 42 H -0.336656 -5.449891 0.781626 0
M  V30 43 H -1.658060 -5.441745 1.970481 0
M  V30 44 H -2.449817 -3.298296 0.918736 0
M  V30 45 H -2.452296 -4.746570 -0.204172 0
M  V30 46 H -0.195460 -4.058362 -1.043417 0
M  V30 47 H -0.237222 -2.599974 -0.046391 0
M  V30 48 H -2.572117 -2.379380 -1.808539 0
M  V30 49 H 1.275661 -0.820322 -3.871405 0
M  V30 50 H 1.094353 0.619178 -5.782784 0
M  V30 51 H -1.139710 1.317637 -6.701555 0
M  V30 52 H -4.141035 -0.208705 -5.556862 0
M  V30 53 H -3.320671 0.808553 -6.809495 0
M  V30 54 H -2.864226 3.044025 -6.551730 0
M  V30 55 H -3.453340 5.210087 -5.663980 0
M  V30 56 H -4.902902 1.015216 -3.455745 0
M  V30 57 H 0.709207 -5.463502 3.141730 0
M  V30 58 H 2.359918 -5.682001 4.781415 0
M  V30 59 H 3.866664 -4.714028 6.369217 0
M  V30 60 H 1.144223 -1.749885 3.720266 0
M  V30 61 H 1.577445 0.430487 4.336946 0
M  V30 62 H 0.479825 2.653118 5.750873 0
M  V30 63 H 4.028911 4.846853 6.133469 0
M  V30 64 H 4.662564 2.433579 5.466282 0
M  V30 65 H 4.890644 -2.235276 7.533740 0
M  V30 END ATOM
M  V30 BEGIN BOND
M  V30 1 2 1 2
M  V30 2 1 2 3
M  V30 3 1 3 4
M  V30 4 1 4 5
M  V30 5 1 5 6
M  V30 6 1 6 7
M  V30 7 2 7 8
M  V30 8 1 7 9
M  V30 9 2 9 10
M  V30 10 1 10 11
M  V30 11 2 11 12
M  V30 12 1 12 13
M  V30 13 1 13 14
M  V30 14 1 14 15
M  V30 15 2 15 16
M  V30 16 1 16 17
M  V30 17 2 17 18
M  V30 18 1 18 19
M  V30 19 1 18 20
M  V30 20 1 20 21
M  V30 21 2 20 22
M  V30 22 1 13 23
M  V30 23 2 23 24
M  V30 24 1 2 25
M  V30 25 1 25 26
M  V30 26 2 26 27
M  V30 27 1 27 28
M  V30 28 2 28 29
M  V30 29 1 29 30
M  V30 30 2 30 31
M  V30 31 1 30 32
M  V30 32 2 32 33
M  V30 33 1 33 34
M  V30 34 2 34 35
M  V30 35 1 35 36
M  V30 36 2 36 37
M  V30 37 1 37 38
M  V30 38 1 32 39
M  V30 39 2 39 40
M  V30 40 1 39 41
M  V30 41 1 23 9
M  V30 42 1 31 26
M  V30 43 1 38 34
M  V30 44 1 22 15
M  V30 45 1 41 29
M  V30 46 1 3 42
M  V30 47 1 3 43
M  V30 48 1 4 44
M  V30 49 1 4 45
M  V30 50 1 5 46
M  V30 51 1 5 47
M  V30 52 1 6 48
M  V30 53 1 10 49
M  V30 54 1 11 50
M  V30 55 1 12 51
M  V30 56 1 14 52
M  V30 57 1 14 53
M  V30 58 1 16 54
M  V30 59 1 17 55
M  V30 60 1 22 56
M  V30 61 1 25 57
M  V30 62 1 27 58
M  V30 63 1 28 59
M  V30 64 1 31 60
M  V30 65 1 33 61
M  V30 66 1 35 62
M  V30 67 1 37 63
M  V30 68 1 38 64
M  V30 69 1 41 65
M  V30 END BOND
M  V30 END CTAB
M  END
>  <Dataset>  (239) 
ChEMBL_Kinases

>  <Ligand_Instance>  (239) 
nan

>  <PDB_ID>  (239) 
nan

>  <Standardized_SMILES>  (239) 
O=C(CCCNC(=O)c1cccn(Cc2ccc(F)c(F)c2)c1=O)Nc1ccc2c(c1)/C(=C/c1cnc[nH]1)C(=O)N2

>  <Name>  (239) 
nan

>  <Pocket>  (239) 
nan

>  <ATP_Site>  (239) 
nan

>  <Peripheral>  (239) 
nan

>  <Num_H_Atoms_ProtBoundConf>  (239) 
nan

>  <Num_Resolved_Atoms>  (239) 
nan

>  <Num_Not_Resolved_Atoms>  (239) 
nan

$$$$
CHEMBL5081007
     RDKit          3D

  0  0  0  0  0  0  0  0  0  0999 V3000
M  V30 BEGIN CTAB
M  V30 COUNTS 71 75 0 0 0
M  V30 BEGIN ATOM
M  V30 1 C 2.732858 -0.560134 7.333668 0
M  V30 2 C 1.425394 -1.099776 7.810021 0
M  V30 3 N 0.449363 -1.216396 6.779234 0
M  V30 4 C -0.049254 -0.015049 6.221167 0
M  V30 5 C 0.395098 0.316782 4.835812 0
M  V30 6 N 0.524567 -0.850955 3.990110 0
M  V30 7 C 0.953137 -0.790023 2.640712 0
M  V30 8 O 1.070076 -1.798127 1.897900 0
M  V30 9 C 1.351436 0.298963 1.761706 0
M  V30 10 C 0.348454 0.772600 0.921146 0
M  V30 11 C 0.676053 1.799441 0.054330 0
M  V30 12 C 1.917082 2.386214 -0.038284 0
M  V30 13 N 2.233327 3.426697 -0.960944 0
M  V30 14 C 1.210815 3.873980 -1.841429 0
M  V30 15 N 0.605827 5.086524 -2.024054 0
M  V30 16 C -0.366504 5.231310 -2.941454 0
M  V30 17 C -0.789126 4.183652 -3.722982 0
M  V30 18 F -1.769040 4.335508 -4.643427 0
M  V30 19 C -0.180417 2.930309 -3.549928 0
M  V30 20 C -0.583027 1.749813 -4.318412 0
M  V30 21 C -0.805157 1.585079 -5.665304 0
M  V30 22 C -1.205983 0.338777 -6.117598 0
M  V30 23 C -1.389087 -0.737519 -5.267909 0
M  V30 24 N -1.787532 -1.937569 -5.723824 0
M  V30 25 C -1.982676 -3.006145 -4.910820 0
M  V30 26 C -1.754178 -2.835777 -3.536258 0
M  V30 27 N -1.939103 -3.867874 -2.550868 0
M  V30 28 C -1.050026 -5.030203 -2.589577 0
M  V30 29 C -1.893468 -6.228735 -2.990631 0
M  V30 30 C -2.886996 -4.004926 -1.440373 0
M  V30 31 C -3.809026 -2.811423 -1.326098 0
M  V30 32 N -1.351794 -1.636129 -3.051983 0
M  V30 33 C -1.170705 -0.595647 -3.908316 0
M  V30 34 C -0.773903 0.655523 -3.499125 0
M  V30 35 N 0.765193 2.891247 -2.624137 0
M  V30 36 N 2.867534 1.889518 0.806082 0
M  V30 37 C 2.593388 0.892753 1.664057 0
M  V30 38 C 0.208911 -2.164414 4.505982 0
M  V30 39 C 0.552666 -2.351869 5.941280 0
M  V30 40 H 2.883732 0.418821 7.846901 0
M  V30 41 H 2.725548 -0.442613 6.246259 0
M  V30 42 H 3.566662 -1.202569 7.663645 0
M  V30 43 H 1.602057 -2.148854 8.191686 0
M  V30 44 H 0.996386 -0.530570 8.658571 0
M  V30 45 H 0.318189 0.821245 6.885946 0
M  V30 46 H -1.151788 0.029916 6.327779 0
M  V30 47 H -0.360448 1.046023 4.410174 0
M  V30 48 H 1.353523 0.905875 4.819963 0
M  V30 49 H -0.647390 0.364455 0.937308 0
M  V30 50 H -0.127391 2.145152 -0.580733 0
M  V30 51 H 3.200891 3.812693 -0.948420 0
M  V30 52 H -0.783357 6.225191 -3.009948 0
M  V30 53 H -0.635908 2.472617 -6.228170 0
M  V30 54 H -1.368528 0.252728 -7.183139 0
M  V30 55 H -2.295357 -3.963604 -5.236073 0
M  V30 56 H -0.244979 -4.880686 -3.334060 0
M  V30 57 H -0.628366 -5.207301 -1.574634 0
M  V30 58 H -1.910953 -6.978736 -2.187421 0
M  V30 59 H -2.935935 -5.934857 -3.228375 0
M  V30 60 H -1.464705 -6.711298 -3.903076 0
M  V30 61 H -2.340696 -4.162280 -0.470616 0
M  V30 62 H -3.526539 -4.897863 -1.577122 0
M  V30 63 H -4.648040 -2.908543 -2.030976 0
M  V30 64 H -3.197252 -1.892744 -1.455076 0
M  V30 65 H -4.140593 -2.779279 -0.261455 0
M  V30 66 H -0.621896 0.686013 -2.410966 0
M  V30 67 H 3.347785 0.482089 2.351142 0
M  V30 68 H 0.823479 -2.903950 3.932209 0
M  V30 69 H -0.862903 -2.357486 4.279920 0
M  V30 70 H 1.543736 -2.877366 6.076617 0
M  V30 71 H -0.175871 -3.117648 6.342271 0
M  V30 END ATOM
M  V30 BEGIN BOND
M  V30 1 1 1 2
M  V30 2 1 2 3
M  V30 3 1 3 4
M  V30 4 1 4 5
M  V30 5 1 5 6
M  V30 6 1 6 7
M  V30 7 2 7 8
M  V30 8 1 7 9
M  V30 9 2 9 10
M  V30 10 1 10 11
M  V30 11 2 11 12
M  V30 12 1 12 13
M  V30 13 1 13 14
M  V30 14 2 14 15
M  V30 15 1 15 16
M  V30 16 2 16 17
M  V30 17 1 17 18
M  V30 18 1 17 19
M  V30 19 1 19 20
M  V30 20 2 20 21
M  V30 21 1 21 22
M  V30 22 2 22 23
M  V30 23 1 23 24
M  V30 24 2 24 25
M  V30 25 1 25 26
M  V30 26 1 26 27
M  V30 27 1 27 28
M  V30 28 1 28 29
M  V30 29 1 27 30
M  V30 30 1 30 31
M  V30 31 2 26 32
M  V30 32 1 32 33
M  V30 33 2 33 34
M  V30 34 2 19 35
M  V30 35 1 12 36
M  V30 36 2 36 37
M  V30 37 1 6 38
M  V30 38 1 38 39
M  V30 39 1 39 3
M  V30 40 1 37 9
M  V30 41 1 35 14
M  V30 42 1 34 20
M  V30 43 1 33 23
M  V30 44 1 1 40
M  V30 45 1 1 41
M  V30 46 1 1 42
M  V30 47 1 2 43
M  V30 48 1 2 44
M  V30 49 1 4 45
M  V30 50 1 4 46
M  V30 51 1 5 47
M  V30 52 1 5 48
M  V30 53 1 10 49
M  V30 54 1 11 50
M  V30 55 1 13 51
M  V30 56 1 16 52
M  V30 57 1 21 53
M  V30 58 1 22 54
M  V30 59 1 25 55
M  V30 60 1 28 56
M  V30 61 1 28 57
M  V30 62 1 29 58
M  V30 63 1 29 59
M  V30 64 1 29 60
M  V30 65 1 30 61
M  V30 66 1 30 62
M  V30 67 1 31 63
M  V30 68 1 31 64
M  V30 69 1 31 65
M  V30 70 1 34 66
M  V30 71 1 37 67
M  V30 72 1 38 68
M  V30 73 1 38 69
M  V30 74 1 39 70
M  V30 75 1 39 71
M  V30 END BOND
M  V30 END CTAB
M  END
>  <Dataset>  (240) 
ChEMBL_Kinases

>  <Ligand_Instance>  (240) 
nan

>  <PDB_ID>  (240) 
nan

>  <Standardized_SMILES>  (240) 
CCN1CCN(C(=O)c2ccc(Nc3ncc(F)c(-c4ccc5ncc(N(CC)CC)nc5c4)n3)nc2)CC1

>  <Name>  (240) 
nan

>  <Pocket>  (240) 
nan

>  <ATP_Site>  (240) 
nan

>  <Peripheral>  (240) 
nan

>  <Num_H_Atoms_ProtBoundConf>  (240) 
nan

>  <Num_Resolved_Atoms>  (240) 
nan

>  <Num_Not_Resolved_Atoms>  (240) 
nan

$$$$
CHEMBL5081027
     RDKit          3D

  0  0  0  0  0  0  0  0  0  0999 V3000
M  V30 BEGIN CTAB
M  V30 COUNTS 42 43 0 0 0
M  V30 BEGIN ATOM
M  V30 1 C 1.115772 -3.464379 3.387999 0
M  V30 2 C 0.376504 -3.905252 2.113476 0
M  V30 3 C -1.024307 -3.478701 2.208795 0
M  V30 4 C 1.203510 -3.618446 0.941494 0
M  V30 5 C 0.720694 -3.929693 -0.414191 0 CFG=1
M  V30 6 N 0.389302 -5.319730 -0.624957 0
M  V30 7 C -0.346471 -2.997276 -0.938238 0
M  V30 8 O -0.148905 -1.681885 -0.867091 0
M  V30 9 C 0.066526 -0.528495 -0.323384 0
M  V30 10 C 0.254039 0.008945 0.926130 0
M  V30 11 C 0.473616 1.325441 1.254618 0
M  V30 12 C 0.501292 2.171667 0.165939 0
M  V30 13 C 0.731814 3.575171 0.492516 0
M  V30 14 C 1.510611 3.939176 1.573275 0
M  V30 15 C 1.730320 5.263206 1.885604 0
M  V30 16 N 1.172829 6.208160 1.119490 0
M  V30 17 C 0.423929 5.873796 0.080470 0
M  V30 18 C 0.159032 4.564386 -0.294417 0
M  V30 19 C 0.329878 1.792730 -1.168194 0
M  V30 20 C 0.112306 0.416104 -1.368848 0
M  V30 21 H 2.176166 -3.728745 3.345493 0
M  V30 22 H 0.584359 -3.935129 4.230940 0
M  V30 23 H 0.938797 -2.359867 3.495245 0
M  V30 24 H 0.345399 -5.046280 2.272213 0
M  V30 25 H -1.291976 -3.518858 3.316206 0
M  V30 26 H -1.304893 -2.477495 1.910396 0
M  V30 27 H -1.744621 -4.262742 1.808391 0
M  V30 28 H 1.532320 -2.557579 0.935932 0
M  V30 29 H 2.192958 -4.165536 1.115410 0
M  V30 30 H 1.591979 -3.756105 -1.118503 0
M  V30 31 H -0.600958 -5.437254 -0.346260 0
M  V30 32 H 0.549246 -5.591938 -1.598727 0
M  V30 33 H -1.268639 -3.278868 -0.311939 0
M  V30 34 H -0.604129 -3.300423 -2.010867 0
M  V30 35 H 0.218828 -0.735491 1.702410 0
M  V30 36 H 0.610527 1.645526 2.263762 0
M  V30 37 H 1.979766 3.194763 2.218527 0
M  V30 38 H 2.339034 5.521691 2.729941 0
M  V30 39 H -0.054371 6.609418 -0.577104 0
M  V30 40 H -0.456275 4.315568 -1.148445 0
M  V30 41 H 0.381158 2.577987 -1.889769 0
M  V30 42 H -0.002072 0.279886 -2.462027 0
M  V30 END ATOM
M  V30 BEGIN BOND
M  V30 1 1 1 2
M  V30 2 1 2 3
M  V30 3 1 2 4
M  V30 4 1 4 5
M  V30 5 1 5 6
M  V30 6 1 5 7
M  V30 7 1 7 8
M  V30 8 1 8 9
M  V30 9 2 9 10
M  V30 10 1 10 11
M  V30 11 2 11 12
M  V30 12 1 12 13
M  V30 13 2 13 14
M  V30 14 1 14 15
M  V30 15 2 15 16
M  V30 16 1 16 17
M  V30 17 2 17 18
M  V30 18 1 12 19
M  V30 19 2 19 20
M  V30 20 1 20 9
M  V30 21 1 18 13
M  V30 22 1 1 21
M  V30 23 1 1 22
M  V30 24 1 1 23
M  V30 25 1 2 24
M  V30 26 1 3 25
M  V30 27 1 3 26
M  V30 28 1 3 27
M  V30 29 1 4 28
M  V30 30 1 4 29
M  V30 31 1 5 30 CFG=3
M  V30 32 1 6 31
M  V30 33 1 6 32
M  V30 34 1 7 33
M  V30 35 1 7 34
M  V30 36 1 10 35
M  V30 37 1 11 36
M  V30 38 1 14 37
M  V30 39 1 15 38
M  V30 40 1 17 39
M  V30 41 1 18 40
M  V30 42 1 19 41
M  V30 43 1 20 42
M  V30 END BOND
M  V30 END CTAB
M  END
>  <Dataset>  (241) 
ChEMBL_Kinases

>  <Ligand_Instance>  (241) 
nan

>  <PDB_ID>  (241) 
nan

>  <Standardized_SMILES>  (241) 
CC(C)C[C@@H](N)COc1ccc(-c2ccncc2)cc1

>  <Name>  (241) 
nan

>  <Pocket>  (241) 
nan

>  <ATP_Site>  (241) 
nan

>  <Peripheral>  (241) 
nan

>  <Num_H_Atoms_ProtBoundConf>  (241) 
nan

>  <Num_Resolved_Atoms>  (241) 
nan

>  <Num_Not_Resolved_Atoms>  (241) 
nan

$$$$
CHEMBL5079502
     RDKit          3D

  0  0  0  0  0  0  0  0  0  0999 V3000
M  V30 BEGIN CTAB
M  V30 COUNTS 53 57 0 0 0
M  V30 BEGIN ATOM
M  V30 1 O 1.243783 1.834153 4.067600 0
M  V30 2 S 1.397028 0.431236 3.557309 0
M  V30 3 O 0.101992 -0.186368 3.124456 0
M  V30 4 N 2.113707 -0.494392 4.856165 0
M  V30 5 C 3.519472 -0.122285 4.858367 0
M  V30 6 C 4.232814 -0.726981 3.686970 0
M  V30 7 C 3.493246 -0.670985 2.394094 0
M  V30 8 N 2.567282 0.415533 2.294389 0
M  V30 9 C 2.002354 0.502219 0.985839 0
M  V30 10 C 1.916496 1.974265 0.594786 0
M  V30 11 N 1.343910 2.116586 -0.739608 0
M  V30 12 C 0.041190 1.658650 -1.031670 0
M  V30 13 N -0.928283 2.578513 -0.875433 0
M  V30 14 C -2.230348 2.264863 -1.123714 0
M  V30 15 C -2.533650 0.990776 -1.536631 0
M  V30 16 C -1.561287 0.041953 -1.700830 0
M  V30 17 C -1.610512 -1.345996 -2.113021 0
M  V30 18 C -2.249730 -2.266475 -1.326377 0
M  V30 19 C -2.974079 -2.270970 -0.067275 0
M  V30 20 C -4.174589 -1.666986 0.240242 0
M  V30 21 C -4.729270 -1.767570 1.498553 0
M  V30 22 C -4.118165 -2.472785 2.511849 0
M  V30 23 C -2.919611 -3.090957 2.249284 0
M  V30 24 O -2.270139 -3.811824 3.241349 0
M  V30 25 C -2.387356 -2.976117 0.987545 0
M  V30 26 N -2.138148 -3.450617 -1.944324 0
M  V30 27 C -1.459073 -3.239568 -3.054356 0
M  V30 28 S -0.745284 -4.037420 -4.584734 0
M  V30 29 C -0.067703 -2.517648 -5.224134 0
M  V30 30 C -0.403108 -1.546840 -4.292102 0
M  V30 31 N -1.096193 -1.917819 -3.215361 0
M  V30 32 N -0.263627 0.392550 -1.442310 0
M  V30 33 H 1.967064 -1.500446 4.598955 0
M  V30 34 H 4.028956 -0.477181 5.774426 0
M  V30 35 H 3.526416 1.000388 4.814966 0
M  V30 36 H 4.435949 -1.803922 3.948945 0
M  V30 37 H 5.254083 -0.247346 3.627709 0
M  V30 38 H 4.274368 -0.475475 1.601988 0
M  V30 39 H 3.065229 -1.662010 2.090265 0
M  V30 40 H 0.959999 0.086814 0.926233 0
M  V30 41 H 2.594844 -0.072091 0.253007 0
M  V30 42 H 2.952970 2.357124 0.593404 0
M  V30 43 H 1.344857 2.549595 1.348858 0
M  V30 44 H 1.768412 2.542750 -1.616838 0
M  V30 45 H -3.062057 2.950149 -1.020279 0
M  V30 46 H -3.508120 0.601266 -1.771404 0
M  V30 47 H -4.627915 -1.124605 -0.577433 0
M  V30 48 H -5.669737 -1.280296 1.698859 0
M  V30 49 H -4.535216 -2.564565 3.506528 0
M  V30 50 H -1.276622 -4.011382 3.239916 0
M  V30 51 H -1.433554 -3.488571 0.836332 0
M  V30 52 H 0.475978 -2.461409 -6.153103 0
M  V30 53 H -0.062953 -0.553462 -4.530650 0
M  V30 END ATOM
M  V30 BEGIN BOND
M  V30 1 2 1 2
M  V30 2 2 2 3
M  V30 3 1 2 4
M  V30 4 1 4 5
M  V30 5 1 5 6
M  V30 6 1 6 7
M  V30 7 1 7 8
M  V30 8 1 8 9
M  V30 9 1 9 10
M  V30 10 1 10 11
M  V30 11 1 11 12
M  V30 12 2 12 13
M  V30 13 1 13 14
M  V30 14 2 14 15
M  V30 15 1 15 16
M  V30 16 1 16 17
M  V30 17 2 17 18
M  V30 18 1 18 19
M  V30 19 2 19 20
M  V30 20 1 20 21
M  V30 21 2 21 22
M  V30 22 1 22 23
M  V30 23 1 23 24
M  V30 24 2 23 25
M  V30 25 1 18 26
M  V30 26 2 26 27
M  V30 27 1 27 28
M  V30 28 1 28 29
M  V30 29 2 29 30
M  V30 30 1 30 31
M  V30 31 2 16 32
M  V30 32 1 8 2
M  V30 33 1 32 12
M  V30 34 1 31 17
M  V30 35 1 25 19
M  V30 36 1 31 27
M  V30 37 1 4 33
M  V30 38 1 5 34
M  V30 39 1 5 35
M  V30 40 1 6 36
M  V30 41 1 6 37
M  V30 42 1 7 38
M  V30 43 1 7 39
M  V30 44 1 9 40
M  V30 45 1 9 41
M  V30 46 1 10 42
M  V30 47 1 10 43
M  V30 48 1 11 44
M  V30 49 1 14 45
M  V30 50 1 15 46
M  V30 51 1 20 47
M  V30 52 1 21 48
M  V30 53 1 22 49
M  V30 54 1 24 50
M  V30 55 1 25 51
M  V30 56 1 29 52
M  V30 57 1 30 53
M  V30 END BOND
M  V30 END CTAB
M  END
>  <Dataset>  (242) 
ChEMBL_Kinases

>  <Ligand_Instance>  (242) 
nan

>  <PDB_ID>  (242) 
nan

>  <Standardized_SMILES>  (242) 
O=S1(=O)NCCCN1CCNc1nccc(-c2c(-c3cccc(O)c3)nc3sccn23)n1

>  <Name>  (242) 
nan

>  <Pocket>  (242) 
nan

>  <ATP_Site>  (242) 
nan

>  <Peripheral>  (242) 
nan

>  <Num_H_Atoms_ProtBoundConf>  (242) 
nan

>  <Num_Resolved_Atoms>  (242) 
nan

>  <Num_Not_Resolved_Atoms>  (242) 
nan

$$$$
CHEMBL5081039
     RDKit          3D

  0  0  0  0  0  0  0  0  0  0999 V3000
M  V30 BEGIN CTAB
M  V30 COUNTS 92 96 0 0 0
M  V30 BEGIN ATOM
M  V30 1 C -2.876393 -8.082729 -0.838285 0
M  V30 2 S -1.921885 -6.600916 -0.527385 0
M  V30 3 O -2.375512 -6.033859 0.771201 0
M  V30 4 O -0.469034 -6.971466 -0.395623 0
M  V30 5 N -2.219703 -5.501737 -1.772941 0
M  V30 6 C -1.875193 -5.863535 -3.080273 0
M  V30 7 C -0.663117 -5.233577 -3.649963 0
M  V30 8 C 0.076369 -4.377859 -2.653854 0
M  V30 9 C -0.979111 -3.393986 -2.068627 0 CFG=2
M  V30 10 N -0.245955 -2.462110 -1.213771 0
M  V30 11 C 0.459517 -2.838831 -0.005226 0
M  V30 12 O 0.474241 -4.006556 0.441780 0
M  V30 13 C 1.166293 -1.499285 0.529429 0 CFG=2
M  V30 14 C 1.985670 -1.803440 1.656201 0
M  V30 15 C 2.973303 -0.753609 2.154695 0
M  V30 16 C 3.972102 -0.411783 1.083021 0
M  V30 17 C 4.637345 -1.638870 0.548805 0
M  V30 18 C 5.402788 -1.462981 -0.714354 0
M  V30 19 C 4.632293 -0.574004 -1.670837 0
M  V30 20 C 4.494227 0.761432 -1.041730 0
M  V30 21 C 3.618472 0.699593 0.210231 0
M  V30 22 N -0.000054 -0.612419 0.627812 0
M  V30 23 C -1.195804 -1.003048 1.411868 0
M  V30 24 O -1.174114 -2.095299 2.112181 0
M  V30 25 C -2.237511 0.021414 1.181005 0
M  V30 26 C -2.764601 1.260803 1.422980 0
M  V30 27 C -3.779671 1.716544 0.595863 0
M  V30 28 C -4.340206 1.004451 -0.502486 0
M  V30 29 C -5.247850 2.038095 -1.191700 0
M  V30 30 N -4.211311 3.004341 -1.809837 0
M  V30 31 C -3.181499 3.965458 -2.427170 0
M  V30 32 O -3.628224 4.150570 -3.515681 0
M  V30 33 C -2.197695 4.089697 -1.329225 0
M  V30 34 C -3.039710 5.100916 -0.590785 0
M  V30 35 N -2.513713 5.585835 0.609807 0
M  V30 36 N -1.356681 4.938566 0.716012 0
M  V30 37 C -0.492936 4.749092 1.762571 0
M  V30 38 C -0.688654 5.568949 2.894512 0
M  V30 39 C 0.005846 5.303385 4.053524 0
M  V30 40 C 0.890612 4.266928 4.140395 0
M  V30 41 C 1.154914 3.410738 3.073401 0
M  V30 42 C 0.443600 3.709513 1.955057 0
M  V30 43 C -1.275490 4.200503 -0.329764 0
M  V30 44 N -0.367473 3.275256 -0.960151 0
M  V30 45 C -3.846109 -0.247884 -0.759661 0
M  V30 46 C -2.823723 -0.693315 0.076989 0
M  V30 47 C -2.067381 -4.144928 -1.427387 0
M  V30 48 H -2.911202 -8.660243 0.135894 0
M  V30 49 H -3.943646 -7.810166 -1.054948 0
M  V30 50 H -2.437337 -8.742865 -1.589794 0
M  V30 51 H -2.778764 -5.705575 -3.765720 0
M  V30 52 H -1.741032 -6.976514 -3.112635 0
M  V30 53 H -0.958222 -4.563045 -4.479845 0
M  V30 54 H 0.024983 -5.962992 -4.147329 0
M  V30 55 H 0.598500 -4.899452 -1.862980 0
M  V30 56 H 0.808463 -3.785909 -3.213198 0
M  V30 57 H -1.345402 -2.866604 -2.955145 0
M  V30 58 H -0.281308 -1.448366 -1.552923 0
M  V30 59 H 1.708377 -1.204322 -0.416237 0
M  V30 60 H 1.265346 -1.906379 2.554393 0
M  V30 61 H 2.454793 -2.819636 1.668762 0
M  V30 62 H 3.479571 -1.200721 3.050652 0
M  V30 63 H 2.394457 0.101641 2.530850 0
M  V30 64 H 4.837524 0.029789 1.747208 0
M  V30 65 H 5.299390 -2.068053 1.318653 0
M  V30 66 H 3.897840 -2.456761 0.332290 0
M  V30 67 H 5.537772 -2.466105 -1.210206 0
M  V30 68 H 6.401372 -0.998343 -0.541747 0
M  V30 69 H 5.150310 -0.481070 -2.647901 0
M  V30 70 H 3.601148 -1.002148 -1.802515 0
M  V30 71 H 4.047210 1.452817 -1.753865 0
M  V30 72 H 5.493527 1.160235 -0.738465 0
M  V30 73 H 3.858852 1.699010 0.722916 0
M  V30 74 H 2.600615 0.845612 -0.128937 0
M  V30 75 H 0.051806 0.293179 0.119415 0
M  V30 76 H -2.157857 1.515111 2.261283 0
M  V30 77 H -3.947565 2.705361 1.091846 0
M  V30 78 H -6.012235 2.476740 -0.699431 0
M  V30 79 H -5.577490 1.516828 -2.143531 0
M  V30 80 H -3.961570 2.939014 -0.798849 0
M  V30 81 H -4.011883 5.708036 -0.598709 0
M  V30 82 H -1.386047 6.376861 2.845668 0
M  V30 83 H -0.197411 5.960645 4.918199 0
M  V30 84 H 1.400845 4.102529 5.073670 0
M  V30 85 H 1.852414 2.592145 3.125845 0
M  V30 86 H 0.619014 3.083604 1.122705 0
M  V30 87 H 0.532733 3.591487 -1.438023 0
M  V30 88 H -0.257273 2.255740 -1.114564 0
M  V30 89 H -4.398140 -0.626953 -1.623014 0
M  V30 90 H -2.691444 -1.668143 -0.383857 0
M  V30 91 H -3.043240 -3.634020 -1.666807 0
M  V30 92 H -2.029150 -4.070477 -0.308352 0
M  V30 END ATOM
M  V30 BEGIN BOND
M  V30 1 1 1 2
M  V30 2 2 2 3
M  V30 3 2 2 4
M  V30 4 1 2 5
M  V30 5 1 5 6
M  V30 6 1 6 7
M  V30 7 1 7 8
M  V30 8 1 8 9
M  V30 9 1 9 10
M  V30 10 1 10 11
M  V30 11 2 11 12
M  V30 12 1 11 13
M  V30 13 1 13 14
M  V30 14 1 14 15
M  V30 15 1 15 16
M  V30 16 1 16 17
M  V30 17 1 17 18
M  V30 18 1 18 19
M  V30 19 1 19 20
M  V30 20 1 20 21
M  V30 21 1 13 22
M  V30 22 1 22 23
M  V30 23 2 23 24
M  V30 24 1 23 25
M  V30 25 2 25 26
M  V30 26 1 26 27
M  V30 27 2 27 28
M  V30 28 1 28 29
M  V30 29 1 29 30
M  V30 30 1 30 31
M  V30 31 2 31 32
M  V30 32 1 31 33
M  V30 33 1 33 34
M  V30 34 2 34 35
M  V30 35 1 35 36
M  V30 36 1 36 37
M  V30 37 2 37 38
M  V30 38 1 38 39
M  V30 39 2 39 40
M  V30 40 1 40 41
M  V30 41 2 41 42
M  V30 42 1 36 43
M  V30 43 1 43 44
M  V30 44 1 28 45
M  V30 45 2 45 46
M  V30 46 1 9 47
M  V30 47 1 47 5
M  V30 48 1 21 16
M  V30 49 1 46 25
M  V30 50 2 43 33
M  V30 51 1 42 37
M  V30 52 1 1 48
M  V30 53 1 1 49
M  V30 54 1 1 50
M  V30 55 1 6 51
M  V30 56 1 6 52
M  V30 57 1 7 53
M  V30 58 1 7 54
M  V30 59 1 8 55
M  V30 60 1 8 56
M  V30 61 1 9 57 CFG=3
M  V30 62 1 10 58
M  V30 63 1 13 59 CFG=3
M  V30 64 1 14 60
M  V30 65 1 14 61
M  V30 66 1 15 62
M  V30 67 1 15 63
M  V30 68 1 16 64
M  V30 69 1 17 65
M  V30 70 1 17 66
M  V30 71 1 18 67
M  V30 72 1 18 68
M  V30 73 1 19 69
M  V30 74 1 19 70
M  V30 75 1 20 71
M  V30 76 1 20 72
M  V30 77 1 21 73
M  V30 78 1 21 74
M  V30 79 1 22 75
M  V30 80 1 26 76
M  V30 81 1 27 77
M  V30 82 1 29 78
M  V30 83 1 29 79
M  V30 84 1 30 80
M  V30 85 1 34 81
M  V30 86 1 38 82
M  V30 87 1 39 83
M  V30 88 1 40 84
M  V30 89 1 41 85
M  V30 90 1 42 86
M  V30 91 1 44 87
M  V30 92 1 44 88
M  V30 93 1 45 89
M  V30 94 1 46 90
M  V30 95 1 47 91
M  V30 96 1 47 92
M  V30 END BOND
M  V30 END CTAB
M  END
>  <Dataset>  (243) 
ChEMBL_Kinases

>  <Ligand_Instance>  (243) 
nan

>  <PDB_ID>  (243) 
nan

>  <Standardized_SMILES>  (243) 
CS(=O)(=O)N1CCC[C@H](NC(=O)[C@H](CCC2CCCCC2)NC(=O)c2ccc(CNC(=O)c3cnn(-c4ccccc4)c3N)cc2)C1

>  <Name>  (243) 
nan

>  <Pocket>  (243) 
nan

>  <ATP_Site>  (243) 
nan

>  <Peripheral>  (243) 
nan

>  <Num_H_Atoms_ProtBoundConf>  (243) 
nan

>  <Num_Resolved_Atoms>  (243) 
nan

>  <Num_Not_Resolved_Atoms>  (243) 
nan

$$$$
CHEMBL5081056
     RDKit          3D

  0  0  0  0  0  0  0  0  0  0999 V3000
M  V30 BEGIN CTAB
M  V30 COUNTS 62 66 0 0 0
M  V30 BEGIN ATOM
M  V30 1 O -0.214067 -1.543002 3.923602 0
M  V30 2 C 0.579757 -2.481880 4.139023 0
M  V30 3 C 1.748063 -2.029804 4.935056 0
M  V30 4 C 1.566152 -0.569101 5.261354 0
M  V30 5 N 1.464931 0.279397 4.110969 0
M  V30 6 C 2.472836 0.405786 3.133363 0
M  V30 7 O 3.454784 -0.350969 3.450874 0
M  V30 8 C 2.493063 1.219510 1.942642 0
M  V30 9 C 3.650767 1.130607 1.159860 0
M  V30 10 C 3.780877 1.864801 0.002648 0
M  V30 11 C 2.803603 2.719693 -0.457534 0
M  V30 12 N 1.701919 2.789139 0.308572 0
M  V30 13 C 0.638747 3.672417 -0.121236 0
M  V30 14 C -0.280826 2.919010 -1.007255 0
M  V30 15 C -1.406893 2.193360 -0.680259 0
M  V30 16 C -2.132608 1.565987 -1.667227 0
M  V30 17 C -1.797477 1.618939 -2.986397 0
M  V30 18 F -2.564383 0.974404 -3.903737 0
M  V30 19 C -0.669452 2.338750 -3.362328 0
M  V30 20 F -0.305527 2.415027 -4.660239 0
M  V30 21 C 0.042831 2.959302 -2.357993 0
M  V30 22 C 1.552793 2.085207 1.437463 0
M  V30 23 O 0.507424 2.180807 2.122063 0
M  V30 24 N 0.387234 -3.816019 3.679459 0
M  V30 25 C -0.857488 -3.860891 2.943675 0
M  V30 26 C -2.095187 -4.118728 3.493793 0
M  V30 27 C -3.225423 -4.141625 2.704251 0
M  V30 28 C -3.094515 -3.898230 1.333656 0
M  V30 29 C -1.840600 -3.644679 0.822094 0
M  V30 30 C -0.681875 -3.612895 1.581774 0
M  V30 31 C -1.996736 -3.431017 -0.612914 0
M  V30 32 C -1.131658 -3.135294 -1.566482 0
M  V30 33 C -1.335444 -2.934413 -2.992637 0
M  V30 34 C -1.960242 -3.509790 -4.063032 0
M  V30 35 N -1.765853 -2.752366 -5.157411 0
M  V30 36 C -1.008803 -1.669155 -4.815752 0
M  V30 37 N -0.766680 -1.804769 -3.517510 0
M  V30 38 C -3.414742 -3.572885 -0.914834 0
M  V30 39 O -4.026048 -3.475811 -2.002259 0
M  V30 40 N -4.081658 -3.863521 0.307119 0
M  V30 41 H 2.721033 -2.289936 4.509603 0
M  V30 42 H 1.652376 -2.571307 5.921946 0
M  V30 43 H 2.393210 -0.236527 5.943129 0
M  V30 44 H 0.638432 -0.493750 5.877211 0
M  V30 45 H 0.598360 0.846333 3.970736 0
M  V30 46 H 4.472524 0.473130 1.457748 0
M  V30 47 H 4.697790 1.764989 -0.576529 0
M  V30 48 H 2.926011 3.282707 -1.363131 0
M  V30 49 H 0.045329 4.034418 0.769603 0
M  V30 50 H 1.030330 4.565703 -0.643241 0
M  V30 51 H -1.622248 2.189850 0.390269 0
M  V30 52 H -3.006656 1.018830 -1.294132 0
M  V30 53 H 0.920609 3.509654 -2.720741 0
M  V30 54 H 1.120396 -4.520666 3.922857 0
M  V30 55 H -2.061562 -4.287712 4.553893 0
M  V30 56 H -4.166337 -4.347657 3.180187 0
M  V30 57 H 0.269362 -3.407546 1.118058 0
M  V30 58 H -0.111159 -3.043619 -1.144970 0
M  V30 59 H -2.485232 -4.438551 -3.928663 0
M  V30 60 H -0.736994 -0.931631 -5.553687 0
M  V30 61 H -0.178836 -1.029025 -3.089427 0
M  V30 62 H -5.109513 -4.025226 0.436711 0
M  V30 END ATOM
M  V30 BEGIN BOND
M  V30 1 2 1 2
M  V30 2 1 2 3
M  V30 3 1 3 4
M  V30 4 1 4 5
M  V30 5 1 5 6
M  V30 6 2 6 7
M  V30 7 1 6 8
M  V30 8 2 8 9
M  V30 9 1 9 10
M  V30 10 2 10 11
M  V30 11 1 11 12
M  V30 12 1 12 13
M  V30 13 1 13 14
M  V30 14 2 14 15
M  V30 15 1 15 16
M  V30 16 2 16 17
M  V30 17 1 17 18
M  V30 18 1 17 19
M  V30 19 1 19 20
M  V30 20 2 19 21
M  V30 21 1 12 22
M  V30 22 2 22 23
M  V30 23 1 2 24
M  V30 24 1 24 25
M  V30 25 2 25 26
M  V30 26 1 26 27
M  V30 27 2 27 28
M  V30 28 1 28 29
M  V30 29 2 29 30
M  V30 30 1 29 31
M  V30 31 2 31 32
M  V30 32 1 32 33
M  V30 33 2 33 34
M  V30 34 1 34 35
M  V30 35 2 35 36
M  V30 36 1 36 37
M  V30 37 1 31 38
M  V30 38 2 38 39
M  V30 39 1 38 40
M  V30 40 1 22 8
M  V30 41 1 30 25
M  V30 42 1 37 33
M  V30 43 1 21 14
M  V30 44 1 40 28
M  V30 45 1 3 41
M  V30 46 1 3 42
M  V30 47 1 4 43
M  V30 48 1 4 44
M  V30 49 1 5 45
M  V30 50 1 9 46
M  V30 51 1 10 47
M  V30 52 1 11 48
M  V30 53 1 13 49
M  V30 54 1 13 50
M  V30 55 1 15 51
M  V30 56 1 16 52
M  V30 57 1 21 53
M  V30 58 1 24 54
M  V30 59 1 26 55
M  V30 60 1 27 56
M  V30 61 1 30 57
M  V30 62 1 32 58
M  V30 63 1 34 59
M  V30 64 1 36 60
M  V30 65 1 37 61
M  V30 66 1 40 62
M  V30 END BOND
M  V30 END CTAB
M  END
>  <Dataset>  (244) 
ChEMBL_Kinases

>  <Ligand_Instance>  (244) 
nan

>  <PDB_ID>  (244) 
nan

>  <Standardized_SMILES>  (244) 
O=C(CCNC(=O)c1cccn(Cc2ccc(F)c(F)c2)c1=O)Nc1ccc2c(c1)/C(=C/c1cnc[nH]1)C(=O)N2

>  <Name>  (244) 
nan

>  <Pocket>  (244) 
nan

>  <ATP_Site>  (244) 
nan

>  <Peripheral>  (244) 
nan

>  <Num_H_Atoms_ProtBoundConf>  (244) 
nan

>  <Num_Resolved_Atoms>  (244) 
nan

>  <Num_Not_Resolved_Atoms>  (244) 
nan

$$$$
CHEMBL5081088
     RDKit          3D

  0  0  0  0  0  0  0  0  0  0999 V3000
M  V30 BEGIN CTAB
M  V30 COUNTS 118 120 0 0 0
M  V30 BEGIN ATOM
M  V30 1 C 1.545707 5.412793 -6.244585 0
M  V30 2 O 1.296487 4.883974 -4.934253 0
M  V30 3 C 2.141317 3.931038 -4.375049 0
M  V30 4 O 3.151577 3.488318 -4.975367 0
M  V30 5 C 1.664994 3.532479 -2.983341 0 CFG=2
M  V30 6 C 1.425196 4.733233 -2.161332 0
M  V30 7 C 0.944062 4.556607 -0.767837 0
M  V30 8 C -0.370383 3.852484 -0.625748 0
M  V30 9 C 1.932195 3.947181 0.185559 0
M  V30 10 N 2.573595 2.536787 -2.449399 0
M  V30 11 C 2.613415 1.089923 -2.212291 0
M  V30 12 O 1.458077 0.881717 -2.659814 0
M  V30 13 C 3.953918 0.880725 -1.628211 0 CFG=2
M  V30 14 C 5.049658 1.360308 -2.612132 0
M  V30 15 C 6.253335 0.856944 -1.790856 0
M  V30 16 C 5.656406 -0.053989 -0.762307 0 CFG=1
M  V30 17 O 5.133293 0.535406 0.349424 0
M  V30 18 C 5.292419 -0.054653 1.572927 0
M  V30 19 C 4.352503 0.669293 2.588339 0
M  V30 20 N 2.989181 0.517066 2.110628 0
M  V30 21 C 1.681628 0.878201 2.492894 0
M  V30 22 O 2.393411 1.359650 3.410917 0
M  V30 23 C 0.482865 0.493771 1.658956 0
M  V30 24 C -0.779240 0.851928 2.328202 0
M  V30 25 C -1.946309 0.429847 1.460689 0 CFG=2
M  V30 26 N -3.184518 0.565297 2.164989 0
M  V30 27 C -4.445958 1.141945 1.973118 0
M  V30 28 O -4.603018 1.714262 0.866994 0
M  V30 29 C -5.463176 1.054797 3.005630 0
M  V30 30 C -6.806083 1.155581 2.731874 0
M  V30 31 C -7.762986 1.118483 3.736784 0
M  V30 32 C -7.439546 0.980449 5.061803 0
M  V30 33 C -6.091828 0.876384 5.376256 0
M  V30 34 O -5.620662 0.737562 6.674520 0
M  V30 35 C -6.503246 0.692180 7.768765 0
M  V30 36 C -5.718835 0.587591 9.082101 0
M  V30 37 N -4.935258 -0.619197 9.032344 0
M  V30 38 C -3.872042 -0.495806 8.027086 0
M  V30 39 C -4.341730 -0.851323 10.351041 0
M  V30 40 C -5.181138 0.915849 4.357879 0
M  V30 41 C -1.823572 -0.918604 0.889953 0
M  V30 42 O -2.511729 -1.944774 1.234302 0
M  V30 43 N -1.186246 -1.769499 -0.047520 0
M  V30 44 C -0.964137 -3.078145 -0.624135 0 CFG=1
M  V30 45 C -1.993902 -3.250860 -1.770293 0
M  V30 46 O -3.280291 -3.167756 -1.255623 0
M  V30 47 C 0.393094 -3.106948 -1.190252 0
M  V30 48 O 0.829210 -4.256288 -1.421326 0
M  V30 49 N 1.520158 -2.356990 -1.640597 0
M  V30 50 C 2.877295 -2.742341 -2.090321 0 CFG=1
M  V30 51 C 2.862504 -2.980587 -3.589865 0 CFG=1
M  V30 52 C 2.328851 -1.804688 -4.372514 0
M  V30 53 O 4.138586 -3.321242 -3.976827 0
M  V30 54 P 4.238424 -4.814079 -4.707744 0
M  V30 55 O 4.770300 -5.911334 -3.820635 0
M  V30 56 O 2.748153 -5.334043 -5.325051 0
M  V30 57 O 5.347765 -4.647079 -6.005152 0
M  V30 58 C 3.866459 -1.772469 -1.757763 0
M  V30 59 O 4.987968 -2.289610 -1.603365 0
M  V30 60 N 4.384670 -0.486174 -1.493129 0
M  V30 61 H 0.872669 4.959281 -6.973184 0
M  V30 62 H 2.613386 5.389253 -6.504152 0
M  V30 63 H 1.224346 6.485818 -6.175721 0
M  V30 64 H 0.708859 3.019231 -3.182304 0
M  V30 65 H 0.637371 5.338552 -2.706772 0
M  V30 66 H 2.290383 5.434765 -2.114891 0
M  V30 67 H 0.755096 5.598108 -0.344055 0
M  V30 68 H -0.296074 2.757173 -0.468840 0
M  V30 69 H -1.109745 4.138514 -1.407165 0
M  V30 70 H -0.846621 4.222227 0.331157 0
M  V30 71 H 2.872623 4.517102 0.164452 0
M  V30 72 H 2.075426 2.904092 -0.081869 0
M  V30 73 H 1.435556 4.006843 1.202520 0
M  V30 74 H 3.319782 3.293239 -2.260479 0
M  V30 75 H 4.119935 1.526410 -0.745132 0
M  V30 76 H 4.958911 0.870985 -3.577414 0
M  V30 77 H 5.052648 2.454387 -2.601461 0
M  V30 78 H 6.928103 0.277337 -2.458846 0
M  V30 79 H 6.722146 1.700114 -1.293323 0
M  V30 80 H 6.261209 -0.900670 -0.495238 0
M  V30 81 H 5.010458 -1.109043 1.632787 0
M  V30 82 H 6.299114 0.079200 2.014792 0
M  V30 83 H 4.666747 1.728686 2.544343 0
M  V30 84 H 4.558621 0.239822 3.559046 0
M  V30 85 H 2.940589 -0.029552 1.193834 0
M  V30 86 H 0.637254 0.873659 0.641732 0
M  V30 87 H 0.547240 -0.630347 1.574387 0
M  V30 88 H -0.823121 1.987413 2.328824 0
M  V30 89 H -0.843483 0.483142 3.352857 0
M  V30 90 H -2.009807 1.113495 0.579290 0
M  V30 91 H -3.034438 0.052921 3.087177 0
M  V30 92 H -7.089034 1.270334 1.679110 0
M  V30 93 H -8.824130 1.204915 3.444438 0
M  V30 94 H -8.170576 0.949779 5.852853 0
M  V30 95 H -7.176227 -0.188358 7.756501 0
M  V30 96 H -7.147697 1.573952 7.817810 0
M  V30 97 H -6.422553 0.574028 9.913519 0
M  V30 98 H -5.083148 1.497691 9.238626 0
M  V30 99 H -3.001870 -1.049091 8.463990 0
M  V30 100 H -4.188097 -1.037186 7.126228 0
M  V30 101 H -3.622196 0.564547 7.854690 0
M  V30 102 H -3.872543 -1.848894 10.420710 0
M  V30 103 H -3.562937 -0.062326 10.524704 0
M  V30 104 H -5.161177 -0.810387 11.093999 0
M  V30 105 H -4.114834 0.831497 4.618522 0
M  V30 106 H -0.672896 -0.951880 -0.442536 0
M  V30 107 H -1.130986 -3.896679 0.094570 0
M  V30 108 H -1.824954 -2.411496 -2.466234 0
M  V30 109 H -1.859208 -4.241495 -2.227808 0
M  V30 110 H -3.887456 -3.408895 -1.996039 0
M  V30 111 H 0.952876 -1.505905 -1.500265 0
M  V30 112 H 3.059324 -3.727719 -1.650856 0
M  V30 113 H 2.194954 -3.833067 -3.784325 0
M  V30 114 H 1.346508 -1.539545 -3.968785 0
M  V30 115 H 2.154622 -2.128701 -5.439520 0
M  V30 116 H 2.989211 -0.937009 -4.296648 0
M  V30 117 H 2.236862 -5.730462 -4.573218 0
M  V30 118 H 6.246888 -4.764216 -5.587775 0
M  V30 END ATOM
M  V30 BEGIN BOND
M  V30 1 1 1 2
M  V30 2 1 2 3
M  V30 3 2 3 4
M  V30 4 1 3 5
M  V30 5 1 5 6
M  V30 6 1 6 7
M  V30 7 1 7 8
M  V30 8 1 7 9
M  V30 9 1 5 10
M  V30 10 1 10 11
M  V30 11 2 11 12
M  V30 12 1 11 13
M  V30 13 1 13 14
M  V30 14 1 14 15
M  V30 15 1 15 16
M  V30 16 1 16 17
M  V30 17 1 17 18
M  V30 18 1 18 19
M  V30 19 1 19 20
M  V30 20 1 20 21
M  V30 21 2 21 22
M  V30 22 1 21 23
M  V30 23 1 23 24
M  V30 24 1 24 25
M  V30 25 1 25 26
M  V30 26 1 26 27
M  V30 27 2 27 28
M  V30 28 1 27 29
M  V30 29 2 29 30
M  V30 30 1 30 31
M  V30 31 2 31 32
M  V30 32 1 32 33
M  V30 33 1 33 34
M  V30 34 1 34 35
M  V30 35 1 35 36
M  V30 36 1 36 37
M  V30 37 1 37 38
M  V30 38 1 37 39
M  V30 39 2 33 40
M  V30 40 1 25 41
M  V30 41 2 41 42
M  V30 42 1 41 43
M  V30 43 1 43 44
M  V30 44 1 44 45
M  V30 45 1 45 46
M  V30 46 1 44 47
M  V30 47 2 47 48
M  V30 48 1 47 49
M  V30 49 1 49 50
M  V30 50 1 50 51
M  V30 51 1 51 52
M  V30 52 1 51 53
M  V30 53 1 53 54
M  V30 54 2 54 55
M  V30 55 1 54 56
M  V30 56 1 54 57
M  V30 57 1 50 58
M  V30 58 2 58 59
M  V30 59 1 58 60
M  V30 60 1 60 13
M  V30 61 1 60 16
M  V30 62 1 40 29
M  V30 63 1 1 61
M  V30 64 1 1 62
M  V30 65 1 1 63
M  V30 66 1 5 64 CFG=3
M  V30 67 1 6 65
M  V30 68 1 6 66
M  V30 69 1 7 67
M  V30 70 1 8 68
M  V30 71 1 8 69
M  V30 72 1 8 70
M  V30 73 1 9 71
M  V30 74 1 9 72
M  V30 75 1 9 73
M  V30 76 1 10 74
M  V30 77 1 13 75 CFG=1
M  V30 78 1 14 76
M  V30 79 1 14 77
M  V30 80 1 15 78
M  V30 81 1 15 79
M  V30 82 1 16 80 CFG=1
M  V30 83 1 18 81
M  V30 84 1 18 82
M  V30 85 1 19 83
M  V30 86 1 19 84
M  V30 87 1 20 85
M  V30 88 1 23 86
M  V30 89 1 23 87
M  V30 90 1 24 88
M  V30 91 1 24 89
M  V30 92 1 25 90 CFG=3
M  V30 93 1 26 91
M  V30 94 1 30 92
M  V30 95 1 31 93
M  V30 96 1 32 94
M  V30 97 1 35 95
M  V30 98 1 35 96
M  V30 99 1 36 97
M  V30 100 1 36 98
M  V30 101 1 38 99
M  V30 102 1 38 100
M  V30 103 1 38 101
M  V30 104 1 39 102
M  V30 105 1 39 103
M  V30 106 1 39 104
M  V30 107 1 40 105
M  V30 108 1 43 106
M  V30 109 1 44 107 CFG=1
M  V30 110 1 45 108
M  V30 111 1 45 109
M  V30 112 1 46 110
M  V30 113 1 49 111
M  V30 114 1 50 112 CFG=1
M  V30 115 1 51 113 CFG=1
M  V30 116 1 52 114
M  V30 117 1 52 115
M  V30 118 1 52 116
M  V30 119 1 56 117
M  V30 120 1 57 118
M  V30 END BOND
M  V30 END CTAB
M  END
>  <Dataset>  (245) 
ChEMBL_Kinases

>  <Ligand_Instance>  (245) 
nan

>  <PDB_ID>  (245) 
nan

>  <Standardized_SMILES>  (245) 
COC(=O)[C@H](CC(C)C)NC(=O)[C@@H]1CC[C@H]2OCCNC(=O)CC[C@H](NC(=O)c3cccc(OCCN(C)C)c3)C(=O)N[C@@H](CO)C(=O)N[C@@H]([C@@H](C)OP(=O)(O)O)C(=O)N21

>  <Name>  (245) 
nan

>  <Pocket>  (245) 
nan

>  <ATP_Site>  (245) 
nan

>  <Peripheral>  (245) 
nan

>  <Num_H_Atoms_ProtBoundConf>  (245) 
nan

>  <Num_Resolved_Atoms>  (245) 
nan

>  <Num_Not_Resolved_Atoms>  (245) 
nan

$$$$
CHEMBL5081097
     RDKit          3D

  0  0  0  0  0  0  0  0  0  0999 V3000
M  V30 BEGIN CTAB
M  V30 COUNTS 57 61 0 0 0
M  V30 BEGIN ATOM
M  V30 1 C 1.085467 -4.235812 4.113321 0
M  V30 2 N 2.065579 -3.797976 3.109963 0
M  V30 3 C 2.489831 -4.864122 2.221428 0
M  V30 4 C 2.515955 -2.448820 3.064072 0
M  V30 5 C 3.636889 -2.182563 3.834902 0
M  V30 6 N 4.112635 -0.909774 3.830484 0
M  V30 7 C 3.509938 0.052952 3.099868 0
M  V30 8 C 4.034689 1.340433 3.128714 0
M  V30 9 C 3.399302 2.296762 2.375645 0
M  V30 10 C 2.283777 2.067910 1.598275 0
M  V30 11 C 1.612750 3.088341 0.800807 0
M  V30 12 C 2.043067 4.391608 0.756342 0
M  V30 13 C 1.389554 5.326137 -0.002313 0
M  V30 14 N 0.312044 4.958363 -0.712030 0
M  V30 15 C -0.123634 3.696723 -0.683462 0
M  V30 16 N -1.266983 3.296969 -1.432774 0
M  V30 17 C -1.817602 1.968060 -1.478179 0
M  V30 18 C -2.932263 1.653474 -2.227619 0
M  V30 19 C -3.412790 0.360676 -2.231334 0
M  V30 20 C -2.826330 -0.652391 -1.511765 0
M  V30 21 N -3.308505 -1.982314 -1.505436 0
M  V30 22 C -4.464070 -2.489338 -2.197340 0
M  V30 23 C -4.011497 -3.449465 -3.294611 0
M  V30 24 N -3.317894 -4.568167 -2.665515 0
M  V30 25 C -2.229863 -4.074420 -1.871994 0
M  V30 26 C -2.740375 -3.093489 -0.809028 0
M  V30 27 C -1.723536 -0.285896 -0.785593 0
M  V30 28 N -1.247818 0.972446 -0.775954 0
M  V30 29 N 0.528096 2.794668 0.064669 0
M  V30 30 C 1.783271 0.782477 1.587103 0
M  V30 31 C 2.399107 -0.205484 2.334416 0
M  V30 32 N 1.929144 -1.464705 2.339307 0
M  V30 33 H 0.235297 -4.761254 3.669559 0
M  V30 34 H 0.672040 -3.373398 4.682226 0
M  V30 35 H 1.615815 -4.849784 4.883858 0
M  V30 36 H 3.063942 -4.472197 1.340348 0
M  V30 37 H 3.184253 -5.547595 2.761256 0
M  V30 38 H 1.663303 -5.467848 1.833924 0
M  V30 39 H 4.192347 -2.865985 4.449954 0
M  V30 40 H 4.899720 1.528063 3.728562 0
M  V30 41 H 3.813639 3.275931 2.409099 0
M  V30 42 H 2.891325 4.716463 1.304791 0
M  V30 43 H 1.718392 6.357690 -0.046411 0
M  V30 44 H -1.771621 4.024365 -2.014482 0
M  V30 45 H -3.383775 2.438083 -2.782887 0
M  V30 46 H -4.273521 0.203630 -2.834250 0
M  V30 47 H -5.178535 -3.043268 -1.535833 0
M  V30 48 H -4.998595 -1.668725 -2.676526 0
M  V30 49 H -4.910686 -3.860828 -3.797548 0
M  V30 50 H -3.382843 -2.913073 -4.028397 0
M  V30 51 H -2.909741 -5.151143 -3.429447 0
M  V30 52 H -1.770816 -4.910601 -1.305788 0
M  V30 53 H -1.441729 -3.567900 -2.472857 0
M  V30 54 H -3.469557 -3.651076 -0.170658 0
M  V30 55 H -1.862816 -2.837173 -0.189386 0
M  V30 56 H -1.156644 -0.950497 -0.176689 0
M  V30 57 H 0.914884 0.491099 1.014301 0
M  V30 END ATOM
M  V30 BEGIN BOND
M  V30 1 1 1 2
M  V30 2 1 2 3
M  V30 3 1 2 4
M  V30 4 2 4 5
M  V30 5 1 5 6
M  V30 6 2 6 7
M  V30 7 1 7 8
M  V30 8 2 8 9
M  V30 9 1 9 10
M  V30 10 1 10 11
M  V30 11 2 11 12
M  V30 12 1 12 13
M  V30 13 2 13 14
M  V30 14 1 14 15
M  V30 15 1 15 16
M  V30 16 1 16 17
M  V30 17 2 17 18
M  V30 18 1 18 19
M  V30 19 2 19 20
M  V30 20 1 20 21
M  V30 21 1 21 22
M  V30 22 1 22 23
M  V30 23 1 23 24
M  V30 24 1 24 25
M  V30 25 1 25 26
M  V30 26 1 20 27
M  V30 27 2 27 28
M  V30 28 2 15 29
M  V30 29 2 10 30
M  V30 30 1 30 31
M  V30 31 2 31 32
M  V30 32 1 32 4
M  V30 33 1 31 7
M  V30 34 1 29 11
M  V30 35 1 28 17
M  V30 36 1 26 21
M  V30 37 1 1 33
M  V30 38 1 1 34
M  V30 39 1 1 35
M  V30 40 1 3 36
M  V30 41 1 3 37
M  V30 42 1 3 38
M  V30 43 1 5 39
M  V30 44 1 8 40
M  V30 45 1 9 41
M  V30 46 1 12 42
M  V30 47 1 13 43
M  V30 48 1 16 44
M  V30 49 1 18 45
M  V30 50 1 19 46
M  V30 51 1 22 47
M  V30 52 1 22 48
M  V30 53 1 23 49
M  V30 54 1 23 50
M  V30 55 1 24 51
M  V30 56 1 25 52
M  V30 57 1 25 53
M  V30 58 1 26 54
M  V30 59 1 26 55
M  V30 60 1 27 56
M  V30 61 1 30 57
M  V30 END BOND
M  V30 END CTAB
M  END
>  <Dataset>  (246) 
ChEMBL_Kinases

>  <Ligand_Instance>  (246) 
nan

>  <PDB_ID>  (246) 
nan

>  <Standardized_SMILES>  (246) 
CN(C)c1cnc2ccc(-c3ccnc(Nc4ccc(N5CCNCC5)cn4)n3)cc2n1

>  <Name>  (246) 
nan

>  <Pocket>  (246) 
nan

>  <ATP_Site>  (246) 
nan

>  <Peripheral>  (246) 
nan

>  <Num_H_Atoms_ProtBoundConf>  (246) 
nan

>  <Num_Resolved_Atoms>  (246) 
nan

>  <Num_Not_Resolved_Atoms>  (246) 
nan

$$$$
CHEMBL5081135
     RDKit          3D

  0  0  0  0  0  0  0  0  0  0999 V3000
M  V30 BEGIN CTAB
M  V30 COUNTS 20 21 0 0 0
M  V30 BEGIN ATOM
M  V30 1 C 0.159768 1.207093 3.274854 0
M  V30 2 N 0.536670 0.411192 2.111791 0
M  V30 3 C 1.411510 -0.600331 2.172697 0
M  V30 4 Br 2.346756 -1.236783 3.706942 0
M  V30 5 C 1.554299 -1.154238 0.898727 0
M  V30 6 C 2.373158 -2.251464 0.459022 0
M  V30 7 N 3.019317 -3.122772 0.102674 0
M  V30 8 C 0.716788 -0.408658 0.104757 0
M  V30 9 C 0.369790 -0.405440 -1.233683 0
M  V30 10 N 0.967178 -1.369297 -2.093995 0
M  V30 11 N -0.493388 0.442298 -1.790130 0
M  V30 12 C -1.095029 1.379522 -1.034225 0
M  V30 13 N -0.784456 1.409046 0.270714 0
M  V30 14 C 0.081999 0.563739 0.847899 0
M  V30 15 H -0.156430 0.496556 4.074680 0
M  V30 16 H -0.714544 1.855127 3.080977 0
M  V30 17 H 1.063808 1.754291 3.573932 0
M  V30 18 H 0.234023 -2.106769 -2.210330 0
M  V30 19 H 1.784795 -1.694364 -2.664683 0
M  V30 20 H -1.815920 2.160135 -1.259185 0
M  V30 END ATOM
M  V30 BEGIN BOND
M  V30 1 1 1 2
M  V30 2 1 2 3
M  V30 3 1 3 4
M  V30 4 2 3 5
M  V30 5 1 5 6
M  V30 6 3 6 7
M  V30 7 1 5 8
M  V30 8 2 8 9
M  V30 9 1 9 10
M  V30 10 1 9 11
M  V30 11 2 11 12
M  V30 12 1 12 13
M  V30 13 2 13 14
M  V30 14 1 14 2
M  V30 15 1 14 8
M  V30 16 1 1 15
M  V30 17 1 1 16
M  V30 18 1 1 17
M  V30 19 1 10 18
M  V30 20 1 10 19
M  V30 21 1 12 20
M  V30 END BOND
M  V30 END CTAB
M  END
>  <Dataset>  (247) 
ChEMBL_Kinases

>  <Ligand_Instance>  (247) 
nan

>  <PDB_ID>  (247) 
nan

>  <Standardized_SMILES>  (247) 
Cn1c(Br)c(C#N)c2c(N)ncnc21

>  <Name>  (247) 
nan

>  <Pocket>  (247) 
nan

>  <ATP_Site>  (247) 
nan

>  <Peripheral>  (247) 
nan

>  <Num_H_Atoms_ProtBoundConf>  (247) 
nan

>  <Num_Resolved_Atoms>  (247) 
nan

>  <Num_Not_Resolved_Atoms>  (247) 
nan

$$$$
CHEMBL5081215
     RDKit          3D

  0  0  0  0  0  0  0  0  0  0999 V3000
M  V30 BEGIN CTAB
M  V30 COUNTS 52 56 0 0 0
M  V30 BEGIN ATOM
M  V30 1 O 5.288384 -1.121685 -0.438383 0
M  V30 2 C 4.060828 -1.228565 -0.213137 0
M  V30 3 N 3.565953 -2.013745 0.893798 0
M  V30 4 C 4.438645 -2.717420 1.770235 0
M  V30 5 C 5.121777 -1.811529 2.688949 0
M  V30 6 C 4.892149 -1.298952 3.958711 0
M  V30 7 O 5.909782 -0.538929 4.220011 0
M  V30 8 C 6.775844 -0.512093 3.238504 0
M  V30 9 N 6.300172 -1.306025 2.263107 0
M  V30 10 C 2.955064 -0.617133 -0.984809 0
M  V30 11 C 1.797949 -0.150952 -0.367655 0
M  V30 12 C 0.849946 0.328207 -1.240768 0
M  V30 13 C -0.406832 0.759363 -0.641255 0
M  V30 14 C -0.654858 0.790607 0.716516 0
M  V30 15 C -1.891472 1.145580 1.236791 0
M  V30 16 C -2.928629 1.481040 0.394575 0
M  V30 17 N -4.175416 1.748787 1.019276 0
M  V30 18 S -5.607964 0.749509 0.901781 0
M  V30 19 O -5.789454 0.543463 -0.612527 0
M  V30 20 O -6.824032 1.447215 1.382661 0
M  V30 21 C -5.388729 -0.823712 1.565569 0
M  V30 22 C -6.136696 -1.051902 2.733524 0
M  V30 23 C -6.098793 -2.218000 3.477000 0
M  V30 24 C -5.265814 -3.233494 3.039465 0
M  V30 25 C -4.478940 -3.104465 1.883309 0
M  V30 26 Cl -3.402841 -4.318810 1.246290 0
M  V30 27 C -4.624447 -1.899279 1.260818 0
M  V30 28 Cl -3.703657 -1.674591 -0.214808 0
M  V30 29 C -2.706168 1.460152 -0.992566 0
M  V30 30 C -1.458128 1.102196 -1.458612 0
M  V30 31 N 1.017810 0.350946 -2.570227 0
M  V30 32 C 2.126217 -0.090694 -3.192214 0
M  V30 33 N 2.543455 -0.180043 -4.472762 0
M  V30 34 N 3.752525 -0.711842 -4.474892 0
M  V30 35 C 4.140487 -0.974259 -3.225464 0
M  V30 36 C 3.113126 -0.585919 -2.354624 0
M  V30 37 H 2.517168 -2.087935 1.088819 0
M  V30 38 H 3.820799 -3.407395 2.435286 0
M  V30 39 H 5.126361 -3.437753 1.261893 0
M  V30 40 H 3.977300 -1.612327 4.438918 0
M  V30 41 H 7.623673 0.110752 3.437828 0
M  V30 42 H 1.805613 -0.229168 0.688330 0
M  V30 43 H 0.120979 0.540165 1.418629 0
M  V30 44 H -2.023216 1.152587 2.327617 0
M  V30 45 H -4.041394 2.644071 1.537183 0
M  V30 46 H -6.825266 -0.322381 3.173508 0
M  V30 47 H -6.672762 -2.385595 4.373807 0
M  V30 48 H -5.165268 -4.194063 3.566257 0
M  V30 49 H -3.573123 1.736714 -1.561072 0
M  V30 50 H -1.396932 1.120836 -2.538541 0
M  V30 51 H 1.897160 0.162088 -5.230148 0
M  V30 52 H 5.066004 -1.410166 -2.870810 0
M  V30 END ATOM
M  V30 BEGIN BOND
M  V30 1 2 1 2
M  V30 2 1 2 3
M  V30 3 1 3 4
M  V30 4 1 4 5
M  V30 5 2 5 6
M  V30 6 1 6 7
M  V30 7 1 7 8
M  V30 8 2 8 9
M  V30 9 1 2 10
M  V30 10 2 10 11
M  V30 11 1 11 12
M  V30 12 1 12 13
M  V30 13 2 13 14
M  V30 14 1 14 15
M  V30 15 2 15 16
M  V30 16 1 16 17
M  V30 17 1 17 18
M  V30 18 2 18 19
M  V30 19 2 18 20
M  V30 20 1 18 21
M  V30 21 2 21 22
M  V30 22 1 22 23
M  V30 23 2 23 24
M  V30 24 1 24 25
M  V30 25 1 25 26
M  V30 26 2 25 27
M  V30 27 1 27 28
M  V30 28 1 16 29
M  V30 29 2 29 30
M  V30 30 2 12 31
M  V30 31 1 31 32
M  V30 32 1 32 33
M  V30 33 1 33 34
M  V30 34 2 34 35
M  V30 35 1 35 36
M  V30 36 1 9 5
M  V30 37 1 36 10
M  V30 38 1 30 13
M  V30 39 2 36 32
M  V30 40 1 27 21
M  V30 41 1 3 37
M  V30 42 1 4 38
M  V30 43 1 4 39
M  V30 44 1 6 40
M  V30 45 1 8 41
M  V30 46 1 11 42
M  V30 47 1 14 43
M  V30 48 1 15 44
M  V30 49 1 17 45
M  V30 50 1 22 46
M  V30 51 1 23 47
M  V30 52 1 24 48
M  V30 53 1 29 49
M  V30 54 1 30 50
M  V30 55 1 33 51
M  V30 56 1 35 52
M  V30 END BOND
M  V30 END CTAB
M  END
>  <Dataset>  (248) 
ChEMBL_Kinases

>  <Ligand_Instance>  (248) 
nan

>  <PDB_ID>  (248) 
nan

>  <Standardized_SMILES>  (248) 
O=C(NCc1cocn1)c1cc(-c2ccc(NS(=O)(=O)c3cccc(Cl)c3Cl)cc2)nc2[nH]ncc12

>  <Name>  (248) 
nan

>  <Pocket>  (248) 
nan

>  <ATP_Site>  (248) 
nan

>  <Peripheral>  (248) 
nan

>  <Num_H_Atoms_ProtBoundConf>  (248) 
nan

>  <Num_Resolved_Atoms>  (248) 
nan

>  <Num_Not_Resolved_Atoms>  (248) 
nan

$$$$
CHEMBL5081247
     RDKit          3D

  0  0  0  0  0  0  0  0  0  0999 V3000
M  V30 BEGIN CTAB
M  V30 COUNTS 57 60 0 0 0
M  V30 BEGIN ATOM
M  V30 1 C 8.156264 -1.678589 0.545280 0
M  V30 2 C 7.264543 -1.901681 1.742563 0
M  V30 3 O 5.962146 -2.136618 1.288884 0
M  V30 4 C 5.183721 -1.296901 0.543716 0
M  V30 5 C 5.570441 -0.025729 0.097279 0
M  V30 6 C 4.698872 0.738034 -0.653308 0
M  V30 7 N 5.093992 1.964413 -1.077382 0
M  V30 8 C 4.242860 2.726209 -1.819897 0
M  V30 9 N 3.017310 2.272875 -2.134887 0
M  V30 10 C 2.566010 1.070867 -1.747192 0
M  V30 11 N 1.261192 0.633649 -2.100548 0
M  V30 12 C 0.437350 1.516853 -2.897282 0
M  V30 13 C -0.902371 0.985027 -3.257512 0
M  V30 14 C -1.784592 0.650040 -2.136410 0
M  V30 15 C -1.892213 -0.577775 -1.541906 0
M  V30 16 C -2.766283 -0.753028 -0.489158 0
M  V30 17 C -3.561173 0.232434 0.027122 0
M  V30 18 N -4.477129 0.100977 1.092444 0
M  V30 19 C -4.821783 -1.028924 1.847945 0
M  V30 20 O -4.281394 -2.116160 1.600506 0
M  V30 21 N -5.762083 -1.063646 2.909101 0
M  V30 22 C -5.865301 -2.385398 3.447453 0
M  V30 23 C -6.861583 -3.071274 2.754446 0
M  V30 24 C -7.178245 -4.395186 3.071008 0
M  V30 25 C -6.461534 -4.985088 4.095210 0
M  V30 26 C -5.488881 -4.308891 4.768245 0
M  V30 27 F -4.754746 -4.837660 5.781735 0
M  V30 28 C -5.165402 -2.994443 4.463247 0
M  V30 29 C -3.441453 1.461428 -0.581175 0
M  V30 30 C -2.575440 1.662366 -1.634690 0
M  V30 31 C 3.434874 0.311688 -0.998597 0
M  V30 32 C 3.075507 -0.938967 -0.549556 0
M  V30 33 C 3.902755 -1.744994 0.201746 0
M  V30 34 F 3.487586 -2.965273 0.611369 0
M  V30 35 H 8.702738 -0.741832 0.694250 0
M  V30 36 H 7.587322 -1.704951 -0.420363 0
M  V30 37 H 8.900375 -2.510654 0.472618 0
M  V30 38 H 7.608280 -2.812977 2.296748 0
M  V30 39 H 7.323292 -1.062059 2.455236 0
M  V30 40 H 6.574199 0.316526 0.370257 0
M  V30 41 H 4.505043 3.711250 -2.184681 0
M  V30 42 H 0.801627 -0.252709 -1.863028 0
M  V30 43 H 0.989951 1.947404 -3.753938 0
M  V30 44 H 0.249152 2.410136 -2.227189 0
M  V30 45 H -1.399770 1.748494 -3.893809 0
M  V30 46 H -0.821720 0.048805 -3.880518 0
M  V30 47 H -1.287305 -1.390010 -1.914299 0
M  V30 48 H -2.796623 -1.731341 -0.077730 0
M  V30 49 H -5.016405 0.947943 1.415339 0
M  V30 50 H -6.249145 -0.161753 3.165105 0
M  V30 51 H -7.488747 -2.710078 1.934223 0
M  V30 52 H -7.935804 -4.977103 2.573478 0
M  V30 53 H -6.609016 -5.994871 4.434811 0
M  V30 54 H -4.429791 -2.337733 4.898946 0
M  V30 55 H -4.038165 2.300556 -0.231069 0
M  V30 56 H -2.533716 2.651582 -2.062840 0
M  V30 57 H 2.112427 -1.329013 -0.780256 0
M  V30 END ATOM
M  V30 BEGIN BOND
M  V30 1 1 1 2
M  V30 2 1 2 3
M  V30 3 1 3 4
M  V30 4 2 4 5
M  V30 5 1 5 6
M  V30 6 2 6 7
M  V30 7 1 7 8
M  V30 8 2 8 9
M  V30 9 1 9 10
M  V30 10 1 10 11
M  V30 11 1 11 12
M  V30 12 1 12 13
M  V30 13 1 13 14
M  V30 14 2 14 15
M  V30 15 1 15 16
M  V30 16 2 16 17
M  V30 17 1 17 18
M  V30 18 1 18 19
M  V30 19 2 19 20
M  V30 20 1 19 21
M  V30 21 1 21 22
M  V30 22 2 22 23
M  V30 23 1 23 24
M  V30 24 2 24 25
M  V30 25 1 25 26
M  V30 26 1 26 27
M  V30 27 2 26 28
M  V30 28 1 17 29
M  V30 29 2 29 30
M  V30 30 2 10 31
M  V30 31 1 31 32
M  V30 32 2 32 33
M  V30 33 1 33 34
M  V30 34 1 33 4
M  V30 35 1 31 6
M  V30 36 1 30 14
M  V30 37 1 28 22
M  V30 38 1 1 35
M  V30 39 1 1 36
M  V30 40 1 1 37
M  V30 41 1 2 38
M  V30 42 1 2 39
M  V30 43 1 5 40
M  V30 44 1 8 41
M  V30 45 1 11 42
M  V30 46 1 12 43
M  V30 47 1 12 44
M  V30 48 1 13 45
M  V30 49 1 13 46
M  V30 50 1 15 47
M  V30 51 1 16 48
M  V30 52 1 18 49
M  V30 53 1 21 50
M  V30 54 1 23 51
M  V30 55 1 24 52
M  V30 56 1 25 53
M  V30 57 1 28 54
M  V30 58 1 29 55
M  V30 59 1 30 56
M  V30 60 1 32 57
M  V30 END BOND
M  V30 END CTAB
M  END
>  <Dataset>  (249) 
ChEMBL_Kinases

>  <Ligand_Instance>  (249) 
nan

>  <PDB_ID>  (249) 
nan

>  <Standardized_SMILES>  (249) 
CCOc1cc2ncnc(NCCc3ccc(NC(=O)Nc4cccc(F)c4)cc3)c2cc1F

>  <Name>  (249) 
nan

>  <Pocket>  (249) 
nan

>  <ATP_Site>  (249) 
nan

>  <Peripheral>  (249) 
nan

>  <Num_H_Atoms_ProtBoundConf>  (249) 
nan

>  <Num_Resolved_Atoms>  (249) 
nan

>  <Num_Not_Resolved_Atoms>  (249) 
nan

$$$$
CHEMBL5081262
     RDKit          3D

  0  0  0  0  0  0  0  0  0  0999 V3000
M  V30 BEGIN CTAB
M  V30 COUNTS 60 64 0 0 0
M  V30 BEGIN ATOM
M  V30 1 C -0.746651 -3.488853 3.831402 0
M  V30 2 C 0.084314 -2.332949 3.472274 0
M  V30 3 C 1.265529 -2.110351 4.146306 0
M  V30 4 C 2.036886 -1.026166 3.799628 0
M  V30 5 C 1.734815 -0.118933 2.819089 0
M  V30 6 N 2.495033 1.012388 2.430306 0
M  V30 7 C 3.725067 1.480511 2.939635 0
M  V30 8 O 4.274609 0.848086 3.869596 0
M  V30 9 C 4.386729 2.674750 2.427590 0
M  V30 10 C 5.584515 3.101139 2.958568 0
M  V30 11 C 6.154566 4.258631 2.415023 0
M  V30 12 C 7.444814 4.659190 3.037209 0
M  V30 13 F 8.349699 3.632047 3.003404 0
M  V30 14 F 7.135162 4.943298 4.372471 0
M  V30 15 C 5.518059 4.924929 1.387898 0
M  V30 16 N 4.347320 4.475164 0.896334 0
M  V30 17 N 3.829634 3.380220 1.426501 0
M  V30 18 C 0.551415 -0.366576 2.164176 0
M  V30 19 C -0.252470 -1.439869 2.478232 0
M  V30 20 C -1.493190 -1.601192 1.721477 0
M  V30 21 C -2.757856 -1.844643 2.221856 0
M  V30 22 C -3.823609 -1.974457 1.355717 0
M  V30 23 C -3.702861 -1.874175 -0.013693 0
M  V30 24 C -2.407451 -1.627381 -0.482689 0
M  V30 25 C -1.310762 -1.489747 0.343913 0
M  V30 26 O -2.162370 -1.505459 -1.866367 0
M  V30 27 C -2.855723 -2.110574 -2.949037 0
M  V30 28 C -3.179457 -3.541625 -2.700352 0
M  V30 29 C -2.510928 -4.547777 -3.549087 0
M  V30 30 O -2.024661 -4.149806 -4.758266 0
M  V30 31 C -2.436069 -2.925409 -5.207428 0
M  V30 32 C -2.009740 -1.900385 -4.179512 0
M  V30 33 C -4.188543 -1.384637 -3.191684 0
M  V30 34 C -5.144300 -1.817039 -2.107958 0
M  V30 35 O -6.335763 -2.029665 -2.423428 0
M  V30 36 N -4.938476 -2.041812 -0.717102 0
M  V30 37 H -0.027471 -4.306339 4.113027 0
M  V30 38 H -1.403303 -3.822256 2.990940 0
M  V30 39 H -1.399308 -3.228709 4.687334 0
M  V30 40 H 1.566096 -2.788610 4.933135 0
M  V30 41 H 2.942260 -0.909435 4.362318 0
M  V30 42 H 2.137071 1.619304 1.660772 0
M  V30 43 H 6.063974 2.546099 3.776125 0
M  V30 44 H 7.859876 5.586150 2.579863 0
M  V30 45 H 6.077008 5.800726 1.071057 0
M  V30 46 H 0.230882 0.306908 1.365310 0
M  V30 47 H -2.822706 -1.916408 3.289548 0
M  V30 48 H -4.816008 -2.166240 1.772096 0
M  V30 49 H -0.355498 -1.298827 -0.151746 0
M  V30 50 H -4.288106 -3.740103 -2.694832 0
M  V30 51 H -2.872727 -3.754423 -1.631806 0
M  V30 52 H -1.677894 -5.095416 -3.019641 0
M  V30 53 H -3.246478 -5.379005 -3.765622 0
M  V30 54 H -3.515778 -2.875153 -5.451037 0
M  V30 55 H -1.823890 -2.689440 -6.118569 0
M  V30 56 H -0.968709 -2.213787 -3.876804 0
M  V30 57 H -2.057062 -0.871635 -4.562574 0
M  V30 58 H -3.960445 -0.303492 -3.118683 0
M  V30 59 H -4.573193 -1.627099 -4.182090 0
M  V30 60 H -5.749199 -2.358643 -0.135253 0
M  V30 END ATOM
M  V30 BEGIN BOND
M  V30 1 1 1 2
M  V30 2 2 2 3
M  V30 3 1 3 4
M  V30 4 2 4 5
M  V30 5 1 5 6
M  V30 6 1 6 7
M  V30 7 2 7 8
M  V30 8 1 7 9
M  V30 9 2 9 10
M  V30 10 1 10 11
M  V30 11 1 11 12
M  V30 12 1 12 13
M  V30 13 1 12 14
M  V30 14 2 11 15
M  V30 15 1 15 16
M  V30 16 2 16 17
M  V30 17 1 5 18
M  V30 18 2 18 19
M  V30 19 1 19 20
M  V30 20 2 20 21
M  V30 21 1 21 22
M  V30 22 2 22 23
M  V30 23 1 23 24
M  V30 24 2 24 25
M  V30 25 1 24 26
M  V30 26 1 26 27
M  V30 27 1 27 28
M  V30 28 1 28 29
M  V30 29 1 29 30
M  V30 30 1 30 31
M  V30 31 1 31 32
M  V30 32 1 27 33
M  V30 33 1 33 34
M  V30 34 2 34 35
M  V30 35 1 34 36
M  V30 36 1 19 2
M  V30 37 1 25 20
M  V30 38 1 32 27
M  V30 39 1 17 9
M  V30 40 1 36 23
M  V30 41 1 1 37
M  V30 42 1 1 38
M  V30 43 1 1 39
M  V30 44 1 3 40
M  V30 45 1 4 41
M  V30 46 1 6 42
M  V30 47 1 10 43
M  V30 48 1 12 44
M  V30 49 1 15 45
M  V30 50 1 18 46
M  V30 51 1 21 47
M  V30 52 1 22 48
M  V30 53 1 25 49
M  V30 54 1 28 50
M  V30 55 1 28 51
M  V30 56 1 29 52
M  V30 57 1 29 53
M  V30 58 1 31 54
M  V30 59 1 31 55
M  V30 60 1 32 56
M  V30 61 1 32 57
M  V30 62 1 33 58
M  V30 63 1 33 59
M  V30 64 1 36 60
M  V30 END BOND
M  V30 END CTAB
M  END
>  <Dataset>  (250) 
ChEMBL_Kinases

>  <Ligand_Instance>  (250) 
nan

>  <PDB_ID>  (250) 
nan

>  <Standardized_SMILES>  (250) 
Cc1ccc(NC(=O)c2cc(C(F)F)cnn2)cc1-c1ccc2c(c1)OC1(CCOCC1)CC(=O)N2

>  <Name>  (250) 
nan

>  <Pocket>  (250) 
nan

>  <ATP_Site>  (250) 
nan

>  <Peripheral>  (250) 
nan

>  <Num_H_Atoms_ProtBoundConf>  (250) 
nan

>  <Num_Resolved_Atoms>  (250) 
nan

>  <Num_Not_Resolved_Atoms>  (250) 
nan

$$$$
CHEMBL5081270
     RDKit          3D

  0  0  0  0  0  0  0  0  0  0999 V3000
M  V30 BEGIN CTAB
M  V30 COUNTS 96 102 0 0 0
M  V30 BEGIN ATOM
M  V30 1 C 4.393605 -0.722375 3.545025 0
M  V30 2 C 5.083889 0.619734 3.591144 0
M  V30 3 C 5.106549 1.185717 4.965608 0
M  V30 4 C 6.302422 1.108362 5.676173 0
M  V30 5 C 6.537070 1.565397 6.955093 0
M  V30 6 C 5.425067 2.158232 7.551486 0
M  V30 7 C 4.201839 2.269465 6.901959 0
M  V30 8 C 3.076912 2.920654 7.619236 0
M  V30 9 C 2.065067 1.932535 8.141631 0
M  V30 10 C 4.055339 1.785304 5.623646 0
M  V30 11 N 2.826621 1.873126 4.914070 0
M  V30 12 C 1.765469 0.957788 4.852890 0
M  V30 13 O 1.883451 -0.109606 5.509775 0
M  V30 14 C 0.574252 1.225705 4.063326 0
M  V30 15 C 0.224542 2.324441 3.331600 0
M  V30 16 C -1.001980 2.139360 2.733043 0
M  V30 17 N -1.429556 0.916447 3.088148 0
M  V30 18 C -2.595399 0.107153 2.816226 0
M  V30 19 N -2.427051 -0.965305 1.975160 0
M  V30 20 C -3.510715 -1.756462 1.698983 0
M  V30 21 N -3.077424 -2.801896 0.807919 0
M  V30 22 C -3.050865 -2.860294 -0.612607 0
M  V30 23 C -3.565284 -1.736935 -1.225232 0
M  V30 24 C -3.606061 -1.661726 -2.602023 0
M  V30 25 C -3.120525 -2.734742 -3.316960 0
M  V30 26 N -3.107373 -2.791652 -4.734930 0
M  V30 27 C -2.428226 -3.791357 -5.559195 0
M  V30 28 C -2.217508 -3.325179 -6.953522 0
M  V30 29 C -1.890737 -1.885085 -7.140010 0
M  V30 30 N -0.518444 -1.543398 -7.189600 0
M  V30 31 C 0.298709 -1.783415 -6.075055 0
M  V30 32 C 1.061798 -0.593268 -5.552112 0
M  V30 33 N 1.555976 0.298154 -6.546283 0
M  V30 34 C 1.373935 1.689614 -6.256626 0
M  V30 35 C 1.267690 -0.069535 -7.898578 0
M  V30 36 C -0.151597 -0.527946 -8.102702 0
M  V30 37 C -2.686354 -0.988992 -6.195889 0
M  V30 38 C -3.784832 -1.851337 -5.615052 0
M  V30 39 C -2.611681 -3.846031 -2.683762 0
M  V30 40 C -2.562711 -3.939583 -1.320453 0
M  V30 41 O -2.098528 -4.951070 -0.527533 0
M  V30 42 C -1.563229 -6.136822 -1.082069 0
M  V30 43 N -4.743296 -1.562379 2.193371 0
M  V30 44 C -4.929487 -0.497884 3.033476 0
M  V30 45 N -6.002152 -0.026246 3.687688 0
M  V30 46 C -5.646326 1.060568 4.390190 0
M  V30 47 C -4.283395 1.314724 4.189848 0
M  V30 48 C -3.855818 0.315401 3.329074 0
M  V30 49 C -0.492290 0.333310 3.899175 0
M  V30 50 H 4.242495 -1.139130 4.572498 0
M  V30 51 H 3.419265 -0.620273 3.056216 0
M  V30 52 H 4.977949 -1.460042 2.929193 0
M  V30 53 H 6.114398 0.455651 3.230250 0
M  V30 54 H 4.566334 1.346540 2.903890 0
M  V30 55 H 7.166681 0.634106 5.182695 0
M  V30 56 H 7.504829 1.453577 7.412096 0
M  V30 57 H 5.596634 2.529294 8.574597 0
M  V30 58 H 3.512007 3.559686 8.444082 0
M  V30 59 H 2.599876 3.671386 6.932181 0
M  V30 60 H 2.394004 0.889978 8.005500 0
M  V30 61 H 1.960300 2.135576 9.242535 0
M  V30 62 H 1.032177 2.130504 7.731944 0
M  V30 63 H 2.800930 2.777676 4.397701 0
M  V30 64 H 0.796539 3.214889 3.219024 0
M  V30 65 H -1.627790 2.741053 2.088711 0
M  V30 66 H -2.734676 -3.630916 1.360897 0
M  V30 67 H -3.961510 -0.861336 -0.716439 0
M  V30 68 H -3.999071 -0.804413 -3.132263 0
M  V30 69 H -1.544445 -4.189019 -5.037980 0
M  V30 70 H -3.142292 -4.668492 -5.591343 0
M  V30 71 H -1.420074 -3.921845 -7.416206 0
M  V30 72 H -3.147278 -3.615137 -7.538414 0
M  V30 73 H -2.312774 -1.616574 -8.159726 0
M  V30 74 H 1.042981 -2.557452 -6.347984 0
M  V30 75 H -0.282109 -2.183440 -5.221898 0
M  V30 76 H 0.517712 -0.000071 -4.796295 0
M  V30 77 H 1.953044 -0.994220 -5.009172 0
M  V30 78 H 0.891427 1.829166 -5.268905 0
M  V30 79 H 0.732963 2.213403 -6.988440 0
M  V30 80 H 2.365653 2.186092 -6.175234 0
M  V30 81 H 2.000700 -0.816212 -8.287841 0
M  V30 82 H 1.401362 0.843637 -8.539772 0
M  V30 83 H -0.815658 0.359943 -8.147540 0
M  V30 84 H -0.204073 -0.967962 -9.136704 0
M  V30 85 H -1.966370 -0.730616 -5.391286 0
M  V30 86 H -3.119983 -0.117722 -6.690206 0
M  V30 87 H -4.341024 -2.391609 -6.414162 0
M  V30 88 H -4.529624 -1.241993 -5.053984 0
M  V30 89 H -2.211412 -4.733255 -3.198431 0
M  V30 90 H -0.829901 -6.583793 -0.377692 0
M  V30 91 H -0.998906 -5.859791 -1.995252 0
M  V30 92 H -2.385628 -6.872746 -1.323214 0
M  V30 93 H -6.924599 -0.504209 3.597400 0
M  V30 94 H -6.325081 1.650725 5.019821 0
M  V30 95 H -3.691394 2.136417 4.628675 0
M  V30 96 H -0.486875 -0.656852 4.385392 0
M  V30 END ATOM
M  V30 BEGIN BOND
M  V30 1 1 1 2
M  V30 2 1 2 3
M  V30 3 2 3 4
M  V30 4 1 4 5
M  V30 5 2 5 6
M  V30 6 1 6 7
M  V30 7 1 7 8
M  V30 8 1 8 9
M  V30 9 2 7 10
M  V30 10 1 10 11
M  V30 11 1 11 12
M  V30 12 2 12 13
M  V30 13 1 12 14
M  V30 14 1 14 15
M  V30 15 2 15 16
M  V30 16 1 16 17
M  V30 17 1 17 18
M  V30 18 2 18 19
M  V30 19 1 19 20
M  V30 20 1 20 21
M  V30 21 1 21 22
M  V30 22 2 22 23
M  V30 23 1 23 24
M  V30 24 2 24 25
M  V30 25 1 25 26
M  V30 26 1 26 27
M  V30 27 1 27 28
M  V30 28 1 28 29
M  V30 29 1 29 30
M  V30 30 1 30 31
M  V30 31 1 31 32
M  V30 32 1 32 33
M  V30 33 1 33 34
M  V30 34 1 33 35
M  V30 35 1 35 36
M  V30 36 1 29 37
M  V30 37 1 37 38
M  V30 38 1 25 39
M  V30 39 2 39 40
M  V30 40 1 40 41
M  V30 41 1 41 42
M  V30 42 2 20 43
M  V30 43 1 43 44
M  V30 44 1 44 45
M  V30 45 1 45 46
M  V30 46 2 46 47
M  V30 47 1 47 48
M  V30 48 1 17 49
M  V30 49 1 10 3
M  V30 50 2 49 14
M  V30 51 1 48 18
M  V30 52 1 40 22
M  V30 53 2 48 44
M  V30 54 1 38 26
M  V30 55 1 36 30
M  V30 56 1 1 50
M  V30 57 1 1 51
M  V30 58 1 1 52
M  V30 59 1 2 53
M  V30 60 1 2 54
M  V30 61 1 4 55
M  V30 62 1 5 56
M  V30 63 1 6 57
M  V30 64 1 8 58
M  V30 65 1 8 59
M  V30 66 1 9 60
M  V30 67 1 9 61
M  V30 68 1 9 62
M  V30 69 1 11 63
M  V30 70 1 15 64
M  V30 71 1 16 65
M  V30 72 1 21 66
M  V30 73 1 23 67
M  V30 74 1 24 68
M  V30 75 1 27 69
M  V30 76 1 27 70
M  V30 77 1 28 71
M  V30 78 1 28 72
M  V30 79 1 29 73
M  V30 80 1 31 74
M  V30 81 1 31 75
M  V30 82 1 32 76
M  V30 83 1 32 77
M  V30 84 1 34 78
M  V30 85 1 34 79
M  V30 86 1 34 80
M  V30 87 1 35 81
M  V30 88 1 35 82
M  V30 89 1 36 83
M  V30 90 1 36 84
M  V30 91 1 37 85
M  V30 92 1 37 86
M  V30 93 1 38 87
M  V30 94 1 38 88
M  V30 95 1 39 89
M  V30 96 1 42 90
M  V30 97 1 42 91
M  V30 98 1 42 92
M  V30 99 1 45 93
M  V30 100 1 46 94
M  V30 101 1 47 95
M  V30 102 1 49 96
M  V30 END BOND
M  V30 END CTAB
M  END
>  <Dataset>  (251) 
ChEMBL_Kinases

>  <Ligand_Instance>  (251) 
nan

>  <PDB_ID>  (251) 
nan

>  <Standardized_SMILES>  (251) 
CCc1cccc(CC)c1NC(=O)c1ccn(-c2nc(Nc3ccc(N4CCC(N5CCN(C)CC5)CC4)cc3OC)nc3[nH]ccc23)c1

>  <Name>  (251) 
nan

>  <Pocket>  (251) 
nan

>  <ATP_Site>  (251) 
nan

>  <Peripheral>  (251) 
nan

>  <Num_H_Atoms_ProtBoundConf>  (251) 
nan

>  <Num_Resolved_Atoms>  (251) 
nan

>  <Num_Not_Resolved_Atoms>  (251) 
nan

$$$$
CHEMBL5081306
     RDKit          3D

  0  0  0  0  0  0  0  0  0  0999 V3000
M  V30 BEGIN CTAB
M  V30 COUNTS 67 71 0 0 0
M  V30 BEGIN ATOM
M  V30 1 C -0.215863 -3.940712 2.361274 0
M  V30 2 C 0.858616 -3.423994 1.485945 0
M  V30 3 C 1.954428 -4.211296 1.191109 0
M  V30 4 C 2.969214 -3.744062 0.372681 0
M  V30 5 C 2.875141 -2.466071 -0.153819 0
M  V30 6 N 3.876659 -1.885873 -1.015895 0
M  V30 7 C 3.690568 -2.106283 -2.402248 0
M  V30 8 O 2.727215 -2.762806 -2.924745 0
M  V30 9 C 4.667787 -1.550571 -3.386704 0
M  V30 10 C 4.237302 -1.928403 -4.782029 0
M  V30 11 C 2.982422 -1.240800 -5.214144 0
M  V30 12 N 2.771106 0.027558 -4.554129 0
M  V30 13 C 4.016149 0.693928 -4.236777 0
M  V30 14 C 3.607503 2.039736 -3.623897 0
M  V30 15 F 2.849288 1.795535 -2.494819 0
M  V30 16 F 4.686352 2.809935 -3.296171 0
M  V30 17 F 2.759039 2.697427 -4.509434 0
M  V30 18 C 4.746134 -0.072263 -3.169438 0
M  V30 19 C 1.775103 -1.726940 0.165521 0
M  V30 20 C 0.726761 -2.146654 0.982322 0
M  V30 21 C -0.397397 -1.251943 1.246290 0
M  V30 22 C -0.841556 -0.636592 0.069866 0
M  V30 23 C -1.890036 0.251241 0.058898 0
M  V30 24 C -2.521128 0.542698 1.242093 0
M  V30 25 C -2.086045 -0.062872 2.408253 0
M  V30 26 C -1.035971 -0.954726 2.432437 0
M  V30 27 O -2.555362 0.068163 3.707923 0
M  V30 28 C -3.768954 0.682974 4.167186 0
M  V30 29 C -3.730264 0.693416 5.657431 0
M  V30 30 C -4.687192 -0.287788 6.297836 0
M  V30 31 O -5.953567 0.015041 5.748175 0
M  V30 32 C -5.942659 -0.567656 4.484846 0
M  V30 33 C -4.969782 0.057321 3.549481 0
M  V30 34 C -3.742029 2.143559 3.697667 0
M  V30 35 C -4.204324 2.213553 2.266808 0
M  V30 36 O -5.164807 2.927753 1.864369 0
M  V30 37 N -3.612125 1.477334 1.177899 0
M  V30 38 H -1.160046 -3.479036 2.061967 0
M  V30 39 H 0.054505 -3.767505 3.437345 0
M  V30 40 H -0.349700 -5.050139 2.232945 0
M  V30 41 H 2.029917 -5.225989 1.608662 0
M  V30 42 H 3.847663 -4.325834 0.113826 0
M  V30 43 H 4.695629 -1.339973 -0.739626 0
M  V30 44 H 5.647068 -2.062401 -3.205324 0
M  V30 45 H 5.027412 -1.792842 -5.527154 0
M  V30 46 H 4.005103 -3.027685 -4.743768 0
M  V30 47 H 2.068783 -1.872320 -5.083598 0
M  V30 48 H 3.050050 -1.038994 -6.302685 0
M  V30 49 H 2.214450 -0.087533 -3.662319 0
M  V30 50 H 4.594074 0.859597 -5.153711 0
M  V30 51 H 4.283888 0.215724 -2.182314 0
M  V30 52 H 5.803411 0.250955 -3.073189 0
M  V30 53 H 1.695478 -0.729490 -0.241675 0
M  V30 54 H -0.414880 -0.792177 -0.933155 0
M  V30 55 H -2.258649 0.744107 -0.830152 0
M  V30 56 H -0.621421 -1.473529 3.261659 0
M  V30 57 H -3.950822 1.696127 6.086844 0
M  V30 58 H -2.722344 0.420222 6.050211 0
M  V30 59 H -4.676420 -0.108431 7.388412 0
M  V30 60 H -4.425552 -1.322765 6.001376 0
M  V30 61 H -5.669753 -1.634957 4.645858 0
M  V30 62 H -6.940049 -0.591897 4.001178 0
M  V30 63 H -5.528753 0.744144 2.857878 0
M  V30 64 H -4.611791 -0.760216 2.857082 0
M  V30 65 H -4.441387 2.748651 4.288298 0
M  V30 66 H -2.731312 2.556080 3.830786 0
M  V30 67 H -3.961519 1.579022 0.187055 0
M  V30 END ATOM
M  V30 BEGIN BOND
M  V30 1 1 1 2
M  V30 2 2 2 3
M  V30 3 1 3 4
M  V30 4 2 4 5
M  V30 5 1 5 6
M  V30 6 1 6 7
M  V30 7 2 7 8
M  V30 8 1 7 9
M  V30 9 1 9 10
M  V30 10 1 10 11
M  V30 11 1 11 12
M  V30 12 1 12 13
M  V30 13 1 13 14
M  V30 14 1 14 15
M  V30 15 1 14 16
M  V30 16 1 14 17
M  V30 17 1 13 18
M  V30 18 1 5 19
M  V30 19 2 19 20
M  V30 20 1 20 21
M  V30 21 2 21 22
M  V30 22 1 22 23
M  V30 23 2 23 24
M  V30 24 1 24 25
M  V30 25 2 25 26
M  V30 26 1 25 27
M  V30 27 1 27 28
M  V30 28 1 28 29
M  V30 29 1 29 30
M  V30 30 1 30 31
M  V30 31 1 31 32
M  V30 32 1 32 33
M  V30 33 1 28 34
M  V30 34 1 34 35
M  V30 35 2 35 36
M  V30 36 1 35 37
M  V30 37 1 20 2
M  V30 38 1 26 21
M  V30 39 1 33 28
M  V30 40 1 18 9
M  V30 41 1 37 24
M  V30 42 1 1 38
M  V30 43 1 1 39
M  V30 44 1 1 40
M  V30 45 1 3 41
M  V30 46 1 4 42
M  V30 47 1 6 43
M  V30 48 1 9 44
M  V30 49 1 10 45
M  V30 50 1 10 46
M  V30 51 1 11 47
M  V30 52 1 11 48
M  V30 53 1 12 49
M  V30 54 1 13 50
M  V30 55 1 18 51
M  V30 56 1 18 52
M  V30 57 1 19 53
M  V30 58 1 22 54
M  V30 59 1 23 55
M  V30 60 1 26 56
M  V30 61 1 29 57
M  V30 62 1 29 58
M  V30 63 1 30 59
M  V30 64 1 30 60
M  V30 65 1 32 61
M  V30 66 1 32 62
M  V30 67 1 33 63
M  V30 68 1 33 64
M  V30 69 1 34 65
M  V30 70 1 34 66
M  V30 71 1 37 67
M  V30 END BOND
M  V30 END CTAB
M  END
>  <Dataset>  (252) 
ChEMBL_Kinases

>  <Ligand_Instance>  (252) 
nan

>  <PDB_ID>  (252) 
nan

>  <Standardized_SMILES>  (252) 
Cc1ccc(NC(=O)C2CCNC(C(F)(F)F)C2)cc1-c1ccc2c(c1)OC1(CCOCC1)CC(=O)N2

>  <Name>  (252) 
nan

>  <Pocket>  (252) 
nan

>  <ATP_Site>  (252) 
nan

>  <Peripheral>  (252) 
nan

>  <Num_H_Atoms_ProtBoundConf>  (252) 
nan

>  <Num_Resolved_Atoms>  (252) 
nan

>  <Num_Not_Resolved_Atoms>  (252) 
nan

$$$$
CHEMBL5081330
     RDKit          3D

  0  0  0  0  0  0  0  0  0  0999 V3000
M  V30 BEGIN CTAB
M  V30 COUNTS 72 76 0 0 0
M  V30 BEGIN ATOM
M  V30 1 C 5.073150 -2.458578 2.101710 0
M  V30 2 C 3.863767 -2.449471 2.945737 0
M  V30 3 N 3.817572 -2.712095 4.281828 0
M  V30 4 N 2.573167 -2.615881 4.718655 0
M  V30 5 C 1.743863 -2.289951 3.711825 0
M  V30 6 N 0.404597 -2.066479 3.586556 0
M  V30 7 C -0.125909 -1.747032 2.391826 0
M  V30 8 C -1.563653 -1.509772 2.266872 0
M  V30 9 C -2.094854 -1.180813 1.037032 0
M  V30 10 C -3.455352 -0.969203 0.984852 0
M  V30 11 C -4.322713 -1.063664 2.078483 0
M  V30 12 N -5.717152 -0.833667 1.957039 0
M  V30 13 S -6.521112 0.128962 3.122072 0
M  V30 14 O -6.383091 -0.477015 4.509249 0
M  V30 15 O -8.009226 0.174381 2.858270 0
M  V30 16 C -5.929121 1.770192 3.189973 0
M  V30 17 C -4.936302 2.304993 2.423778 0
M  V30 18 C -4.503170 3.607187 2.512150 0
M  V30 19 Cl -3.213684 4.205544 1.478305 0
M  V30 20 C -5.131180 4.418422 3.451336 0
M  V30 21 C -6.145640 3.914466 4.251059 0
M  V30 22 C -6.543774 2.605468 4.125546 0
M  V30 23 F -7.550074 2.213324 4.961635 0
M  V30 24 C -3.711502 -1.399295 3.283088 0
M  V30 25 C -2.354116 -1.621453 3.389506 0
M  V30 26 N 0.689015 -1.652547 1.325119 0
M  V30 27 C 2.032918 -1.864637 1.390636 0
M  V30 28 O 2.807882 -1.743186 0.220078 0
M  V30 29 C 2.074666 -1.397705 -0.968527 0
M  V30 30 C 2.222895 -2.559114 -1.887168 0
M  V30 31 C 1.533738 -2.213043 -3.179340 0
M  V30 32 C 1.726153 -3.431431 -4.090757 0
M  V30 33 C 0.039553 -2.079501 -3.020391 0
M  V30 34 N 2.196442 -1.116025 -3.755767 0
M  V30 35 C 3.076919 -1.421024 -4.826994 0
M  V30 36 C 2.418257 0.049927 -3.010541 0
M  V30 37 C 3.705077 0.760905 -3.466377 0
M  V30 38 C 1.308297 1.022114 -3.375828 0
M  V30 39 C 2.523765 -0.086741 -1.528824 0
M  V30 40 C 2.574196 -2.189357 2.603418 0
M  V30 41 H 5.938913 -2.835824 2.701404 0
M  V30 42 H 5.353036 -1.457404 1.728980 0
M  V30 43 H 4.988557 -3.179334 1.257368 0
M  V30 44 H 2.277712 -2.772966 5.713984 0
M  V30 45 H -1.507905 -1.082810 0.128531 0
M  V30 46 H -3.878429 -0.712015 0.027654 0
M  V30 47 H -6.248054 -1.251867 1.158088 0
M  V30 48 H -4.472056 1.645740 1.704366 0
M  V30 49 H -4.794653 5.430953 3.520267 0
M  V30 50 H -6.573907 4.632825 4.956939 0
M  V30 51 H -4.306508 -1.492983 4.174748 0
M  V30 52 H -1.878282 -1.883944 4.335262 0
M  V30 53 H 0.999799 -1.302963 -0.709673 0
M  V30 54 H 1.692021 -3.419708 -1.422886 0
M  V30 55 H 3.285207 -2.769041 -2.094574 0
M  V30 56 H 1.089685 -3.404723 -4.975609 0
M  V30 57 H 2.796424 -3.615146 -4.262210 0
M  V30 58 H 1.381477 -4.327038 -3.493334 0
M  V30 59 H -0.368463 -3.078662 -2.754026 0
M  V30 60 H -0.358083 -1.804669 -4.016577 0
M  V30 61 H -0.292573 -1.362278 -2.276819 0
M  V30 62 H 3.411545 -0.565851 -5.415121 0
M  V30 63 H 2.514400 -2.070275 -5.560744 0
M  V30 64 H 3.989406 -1.911603 -4.440987 0
M  V30 65 H 4.592099 0.131047 -3.376986 0
M  V30 66 H 3.566085 1.257393 -4.446861 0
M  V30 67 H 3.814713 1.599382 -2.742922 0
M  V30 68 H 1.159127 1.702479 -2.495495 0
M  V30 69 H 0.350343 0.510497 -3.624006 0
M  V30 70 H 1.604223 1.640344 -4.247427 0
M  V30 71 H 1.988383 0.769014 -1.060629 0
M  V30 72 H 3.573767 0.036093 -1.167198 0
M  V30 END ATOM
M  V30 BEGIN BOND
M  V30 1 1 1 2
M  V30 2 2 2 3
M  V30 3 1 3 4
M  V30 4 1 4 5
M  V30 5 2 5 6
M  V30 6 1 6 7
M  V30 7 1 7 8
M  V30 8 2 8 9
M  V30 9 1 9 10
M  V30 10 2 10 11
M  V30 11 1 11 12
M  V30 12 1 12 13
M  V30 13 2 13 14
M  V30 14 2 13 15
M  V30 15 1 13 16
M  V30 16 2 16 17
M  V30 17 1 17 18
M  V30 18 1 18 19
M  V30 19 2 18 20
M  V30 20 1 20 21
M  V30 21 2 21 22
M  V30 22 1 22 23
M  V30 23 1 11 24
M  V30 24 2 24 25
M  V30 25 2 7 26
M  V30 26 1 26 27
M  V30 27 1 27 28
M  V30 28 1 28 29
M  V30 29 1 29 30
M  V30 30 1 30 31
M  V30 31 1 31 32
M  V30 32 1 31 33
M  V30 33 1 31 34
M  V30 34 1 34 35
M  V30 35 1 34 36
M  V30 36 1 36 37
M  V30 37 1 36 38
M  V30 38 1 36 39
M  V30 39 2 27 40
M  V30 40 1 40 2
M  V30 41 1 40 5
M  V30 42 1 25 8
M  V30 43 1 39 29
M  V30 44 1 22 16
M  V30 45 1 1 41
M  V30 46 1 1 42
M  V30 47 1 1 43
M  V30 48 1 4 44
M  V30 49 1 9 45
M  V30 50 1 10 46
M  V30 51 1 12 47
M  V30 52 1 17 48
M  V30 53 1 20 49
M  V30 54 1 21 50
M  V30 55 1 24 51
M  V30 56 1 25 52
M  V30 57 1 29 53
M  V30 58 1 30 54
M  V30 59 1 30 55
M  V30 60 1 32 56
M  V30 61 1 32 57
M  V30 62 1 32 58
M  V30 63 1 33 59
M  V30 64 1 33 60
M  V30 65 1 33 61
M  V30 66 1 35 62
M  V30 67 1 35 63
M  V30 68 1 35 64
M  V30 69 1 37 65
M  V30 70 1 37 66
M  V30 71 1 37 67
M  V30 72 1 38 68
M  V30 73 1 38 69
M  V30 74 1 38 70
M  V30 75 1 39 71
M  V30 76 1 39 72
M  V30 END BOND
M  V30 END CTAB
M  END
>  <Dataset>  (253) 
ChEMBL_Kinases

>  <Ligand_Instance>  (253) 
nan

>  <PDB_ID>  (253) 
nan

>  <Standardized_SMILES>  (253) 
Cc1n[nH]c2nc(-c3ccc(NS(=O)(=O)c4cc(Cl)ccc4F)cc3)nc(OC3CC(C)(C)N(C)C(C)(C)C3)c12

>  <Name>  (253) 
nan

>  <Pocket>  (253) 
nan

>  <ATP_Site>  (253) 
nan

>  <Peripheral>  (253) 
nan

>  <Num_H_Atoms_ProtBoundConf>  (253) 
nan

>  <Num_Resolved_Atoms>  (253) 
nan

>  <Num_Not_Resolved_Atoms>  (253) 
nan

$$$$
CHEMBL5081036
     RDKit          3D

  0  0  0  0  0  0  0  0  0  0999 V3000
M  V30 BEGIN CTAB
M  V30 COUNTS 55 59 0 0 0
M  V30 BEGIN ATOM
M  V30 1 C 2.541831 -1.760094 3.743833 0
M  V30 2 C 2.834694 -0.420006 3.131418 0
M  V30 3 C 3.950665 0.246912 3.606733 0
M  V30 4 N 4.227957 1.450673 3.068058 0
M  V30 5 C 3.439348 1.977151 2.100885 0
M  V30 6 N 3.799542 3.259528 1.579109 0
M  V30 7 C 4.684965 3.216590 0.446754 0
M  V30 8 C 5.192630 2.075234 -0.150011 0
M  V30 9 C 6.007454 2.423500 -1.210307 0
M  V30 10 N 5.976879 3.770607 -1.234442 0
M  V30 11 N 5.204654 4.238831 -0.267096 0
M  V30 12 C 4.928069 5.648294 0.021027 0
M  V30 13 N 2.379737 1.302352 1.675871 0
M  V30 14 C 2.009763 0.091866 2.144281 0
M  V30 15 C 0.839026 -0.640658 1.666416 0
M  V30 16 C 0.423795 -0.839214 0.343171 0
M  V30 17 C -0.739822 -1.596232 0.418513 0
M  V30 18 N -1.054655 -1.867873 1.684534 0
M  V30 19 C -0.095825 -1.286237 2.426806 0
M  V30 20 C -2.261136 -2.657204 1.616614 0
M  V30 21 O -2.736696 -3.024159 2.728525 0
M  V30 22 N -2.663151 -2.854042 0.244497 0
M  V30 23 C -3.843172 -3.657053 0.062228 0 CFG=2
M  V30 24 C -3.453869 -4.929163 -0.680016 0
M  V30 25 O -2.513236 -5.668701 0.025406 0
M  V30 26 C -4.860546 -2.971666 -0.764656 0
M  V30 27 C -6.171351 -2.894008 -0.276540 0
M  V30 28 C -7.249459 -2.309775 -0.901798 0
M  V30 29 C -7.016481 -1.741727 -2.136593 0
M  V30 30 F -7.998833 -1.142053 -2.838733 0
M  V30 31 C -5.743643 -1.789766 -2.665017 0
M  V30 32 Cl -5.371857 -1.084541 -4.238457 0
M  V30 33 C -4.699109 -2.388368 -1.995404 0
M  V30 34 C -1.712076 -2.155255 -0.588929 0
M  V30 35 H 3.497379 -2.279858 4.006066 0
M  V30 36 H 2.042338 -2.420924 3.025592 0
M  V30 37 H 2.000521 -1.633638 4.709569 0
M  V30 38 H 4.591481 -0.162396 4.380950 0
M  V30 39 H 3.498953 4.199594 1.919998 0
M  V30 40 H 5.018046 1.036509 0.122474 0
M  V30 41 H 6.581956 1.831926 -1.918545 0
M  V30 42 H 5.858230 6.190304 -0.266340 0
M  V30 43 H 4.085236 6.044206 -0.556563 0
M  V30 44 H 4.687463 5.816511 1.083070 0
M  V30 45 H 0.957506 -0.448533 -0.511137 0
M  V30 46 H -0.048613 -1.311886 3.489797 0
M  V30 47 H -4.279589 -4.003511 1.011850 0
M  V30 48 H -4.383607 -5.545302 -0.711257 0
M  V30 49 H -3.163232 -4.726728 -1.719187 0
M  V30 50 H -1.573413 -5.414118 -0.186036 0
M  V30 51 H -6.373186 -3.340052 0.702301 0
M  V30 52 H -8.208763 -2.303005 -0.445798 0
M  V30 53 H -3.712016 -2.427594 -2.419956 0
M  V30 54 H -1.218343 -2.815408 -1.306494 0
M  V30 55 H -2.169356 -1.250778 -1.089786 0
M  V30 END ATOM
M  V30 BEGIN BOND
M  V30 1 1 1 2
M  V30 2 2 2 3
M  V30 3 1 3 4
M  V30 4 2 4 5
M  V30 5 1 5 6
M  V30 6 1 6 7
M  V30 7 2 7 8
M  V30 8 1 8 9
M  V30 9 2 9 10
M  V30 10 1 10 11
M  V30 11 1 11 12
M  V30 12 1 5 13
M  V30 13 2 13 14
M  V30 14 1 14 15
M  V30 15 1 15 16
M  V30 16 2 16 17
M  V30 17 1 17 18
M  V30 18 1 18 19
M  V30 19 1 18 20
M  V30 20 2 20 21
M  V30 21 1 20 22
M  V30 22 1 22 23
M  V30 23 1 23 24
M  V30 24 1 24 25
M  V30 25 1 23 26
M  V30 26 2 26 27
M  V30 27 1 27 28
M  V30 28 2 28 29
M  V30 29 1 29 30
M  V30 30 1 29 31
M  V30 31 1 31 32
M  V30 32 2 31 33
M  V30 33 1 22 34
M  V30 34 1 14 2
M  V30 35 2 19 15
M  V30 36 1 33 26
M  V30 37 1 11 7
M  V30 38 1 34 17
M  V30 39 1 1 35
M  V30 40 1 1 36
M  V30 41 1 1 37
M  V30 42 1 3 38
M  V30 43 1 6 39
M  V30 44 1 8 40
M  V30 45 1 9 41
M  V30 46 1 12 42
M  V30 47 1 12 43
M  V30 48 1 12 44
M  V30 49 1 16 45
M  V30 50 1 19 46
M  V30 51 1 23 47 CFG=1
M  V30 52 1 24 48
M  V30 53 1 24 49
M  V30 54 1 25 50
M  V30 55 1 27 51
M  V30 56 1 28 52
M  V30 57 1 33 53
M  V30 58 1 34 54
M  V30 59 1 34 55
M  V30 END BOND
M  V30 END CTAB
M  END
>  <Dataset>  (254) 
ChEMBL_Kinases

>  <Ligand_Instance>  (254) 
nan

>  <PDB_ID>  (254) 
nan

>  <Standardized_SMILES>  (254) 
Cc1cnc(Nc2ccnn2C)nc1-c1cc2n(c1)C(=O)N([C@H](CO)c1ccc(F)c(Cl)c1)C2

>  <Name>  (254) 
nan

>  <Pocket>  (254) 
nan

>  <ATP_Site>  (254) 
nan

>  <Peripheral>  (254) 
nan

>  <Num_H_Atoms_ProtBoundConf>  (254) 
nan

>  <Num_Resolved_Atoms>  (254) 
nan

>  <Num_Not_Resolved_Atoms>  (254) 
nan

$$$$
CHEMBL5079532
     RDKit          3D

  0  0  0  0  0  0  0  0  0  0999 V3000
M  V30 BEGIN CTAB
M  V30 COUNTS 68 72 0 0 0
M  V30 BEGIN ATOM
M  V30 1 C 2.339203 -0.144355 5.131559 0
M  V30 2 C 2.194737 -1.602682 4.831342 0
M  V30 3 N 1.612253 -1.938228 3.601507 0
M  V30 4 C 0.251727 -1.671614 3.364232 0
M  V30 5 C -0.083235 -0.729924 2.264337 0
M  V30 6 N 0.871417 -0.593493 1.216759 0
M  V30 7 C 0.708467 -0.498787 -0.192422 0
M  V30 8 C 1.182013 0.742757 -0.587555 0
M  V30 9 C 1.160135 1.092016 -1.944115 0
M  V30 10 N 1.565122 2.377948 -2.424881 0
M  V30 11 C 1.860107 3.455673 -1.513034 0
M  V30 12 C 2.731528 4.239939 -0.802821 0
M  V30 13 C 1.997280 5.143733 -0.071966 0
M  V30 14 C 2.629771 6.155063 0.805451 0
M  V30 15 N 0.684086 4.913842 -0.333026 0
M  V30 16 N 0.603449 3.899639 -1.198957 0
M  V30 17 N 0.683180 0.221795 -2.841268 0
M  V30 18 C 0.220657 -0.987461 -2.447410 0
M  V30 19 N -0.277882 -1.911199 -3.372148 0
M  V30 20 C -0.862332 -3.213973 -3.137931 0 CFG=1
M  V30 21 C 0.043082 -4.170956 -2.401997 0
M  V30 22 C -1.027093 -5.187558 -1.945833 0
M  V30 23 N -2.040804 -4.292028 -1.412155 0
M  V30 24 C -2.914631 -4.395565 -0.269270 0
M  V30 25 O -2.934750 -5.381425 0.516035 0
M  V30 26 C -3.836257 -3.328622 0.031233 0
M  V30 27 C -3.455614 -2.640207 1.183057 0
M  V30 28 C -4.203309 -1.552362 1.649269 0
M  V30 29 C -5.338447 -1.137304 0.976109 0
M  V30 30 Cl -6.298505 0.229837 1.535671 0
M  V30 31 C -5.689343 -1.838462 -0.158744 0
M  V30 32 F -6.802728 -1.472209 -0.866081 0
M  V30 33 C -4.976066 -2.898974 -0.629560 0
M  V30 34 C -2.079040 -3.140815 -2.270700 0
M  V30 35 N 0.243313 -1.318232 -1.147042 0
M  V30 36 C 2.254150 -0.562762 1.679919 0
M  V30 37 C 2.467261 -1.846721 2.456823 0
M  V30 38 H 1.448090 0.449933 4.938420 0
M  V30 39 H 2.545927 -0.036551 6.223299 0
M  V30 40 H 3.223965 0.316967 4.633390 0
M  V30 41 H 3.235553 -2.045446 4.842168 0
M  V30 42 H 1.668042 -2.096003 5.652939 0
M  V30 43 H -0.257108 -2.661254 3.139686 0
M  V30 44 H -0.213007 -1.358708 4.338294 0
M  V30 45 H -1.099598 -1.007406 1.857230 0
M  V30 46 H -0.308534 0.271331 2.756545 0
M  V30 47 H 1.600738 1.559947 0.009521 0
M  V30 48 H 1.658884 2.559052 -3.436224 0
M  V30 49 H 3.722604 3.944321 -1.004362 0
M  V30 50 H 3.649567 5.856307 1.074193 0
M  V30 51 H 2.030997 6.185415 1.744079 0
M  V30 52 H 2.645388 7.147045 0.303219 0
M  V30 53 H 0.003386 5.548300 0.169017 0
M  V30 54 H -0.216511 -1.618829 -4.389540 0
M  V30 55 H -1.178700 -3.688362 -4.103078 0
M  V30 56 H 0.397800 -3.687249 -1.464868 0
M  V30 57 H 0.825409 -4.624831 -2.999823 0
M  V30 58 H -1.440413 -5.598153 -2.895856 0
M  V30 59 H -0.644453 -5.921865 -1.245333 0
M  V30 60 H -2.600420 -2.848000 1.815461 0
M  V30 61 H -3.952202 -0.984815 2.531843 0
M  V30 62 H -5.179861 -3.497205 -1.500023 0
M  V30 63 H -3.023663 -3.066095 -2.845158 0
M  V30 64 H -1.959780 -2.248258 -1.587800 0
M  V30 65 H 2.977562 -0.614964 0.836608 0
M  V30 66 H 2.435344 0.278519 2.347400 0
M  V30 67 H 3.504682 -2.023845 2.761847 0
M  V30 68 H 2.200184 -2.686489 1.757284 0
M  V30 END ATOM
M  V30 BEGIN BOND
M  V30 1 1 1 2
M  V30 2 1 2 3
M  V30 3 1 3 4
M  V30 4 1 4 5
M  V30 5 1 5 6
M  V30 6 1 6 7
M  V30 7 2 7 8
M  V30 8 1 8 9
M  V30 9 1 9 10
M  V30 10 1 10 11
M  V30 11 1 11 12
M  V30 12 2 12 13
M  V30 13 1 13 14
M  V30 14 1 13 15
M  V30 15 1 15 16
M  V30 16 2 9 17
M  V30 17 1 17 18
M  V30 18 1 18 19
M  V30 19 1 19 20
M  V30 20 1 20 21
M  V30 21 1 21 22
M  V30 22 1 22 23
M  V30 23 1 23 24
M  V30 24 2 24 25
M  V30 25 1 24 26
M  V30 26 2 26 27
M  V30 27 1 27 28
M  V30 28 2 28 29
M  V30 29 1 29 30
M  V30 30 1 29 31
M  V30 31 1 31 32
M  V30 32 2 31 33
M  V30 33 1 23 34
M  V30 34 2 18 35
M  V30 35 1 6 36
M  V30 36 1 36 37
M  V30 37 1 37 3
M  V30 38 1 35 7
M  V30 39 2 16 11
M  V30 40 1 34 20
M  V30 41 1 33 26
M  V30 42 1 1 38
M  V30 43 1 1 39
M  V30 44 1 1 40
M  V30 45 1 2 41
M  V30 46 1 2 42
M  V30 47 1 4 43
M  V30 48 1 4 44
M  V30 49 1 5 45
M  V30 50 1 5 46
M  V30 51 1 8 47
M  V30 52 1 10 48
M  V30 53 1 12 49
M  V30 54 1 14 50
M  V30 55 1 14 51
M  V30 56 1 14 52
M  V30 57 1 15 53
M  V30 58 1 19 54
M  V30 59 1 20 55 CFG=3
M  V30 60 1 21 56
M  V30 61 1 21 57
M  V30 62 1 22 58
M  V30 63 1 22 59
M  V30 64 1 27 60
M  V30 65 1 28 61
M  V30 66 1 33 62
M  V30 67 1 34 63
M  V30 68 1 34 64
M  V30 69 1 36 65
M  V30 70 1 36 66
M  V30 71 1 37 67
M  V30 72 1 37 68
M  V30 END BOND
M  V30 END CTAB
M  END
>  <Dataset>  (255) 
ChEMBL_Kinases

>  <Ligand_Instance>  (255) 
nan

>  <PDB_ID>  (255) 
nan

>  <Standardized_SMILES>  (255) 
CCN1CCN(c2cc(Nc3cc(C)[nH]n3)nc(N[C@H]3CCN(C(=O)c4ccc(Cl)c(F)c4)C3)n2)CC1

>  <Name>  (255) 
nan

>  <Pocket>  (255) 
nan

>  <ATP_Site>  (255) 
nan

>  <Peripheral>  (255) 
nan

>  <Num_H_Atoms_ProtBoundConf>  (255) 
nan

>  <Num_Resolved_Atoms>  (255) 
nan

>  <Num_Not_Resolved_Atoms>  (255) 
nan

$$$$
CHEMBL5079586
     RDKit          3D

  0  0  0  0  0  0  0  0  0  0999 V3000
M  V30 BEGIN CTAB
M  V30 COUNTS 73 78 0 0 0
M  V30 BEGIN ATOM
M  V30 1 C 2.435870 -1.451565 3.917417 0
M  V30 2 C 1.146990 -1.623763 4.644220 0
M  V30 3 C 0.690162 -0.225929 5.056725 0
M  V30 4 N 0.145138 -2.387612 4.025264 0
M  V30 5 C -1.082907 -2.573092 4.698762 0
M  V30 6 C -2.269293 -1.837025 4.184015 0
M  V30 7 N -1.899917 -1.155980 2.958698 0
M  V30 8 C -2.199789 0.215222 2.852343 0
M  V30 9 O -2.770353 0.504495 3.936283 0
M  V30 10 C -2.045037 1.307778 1.912646 0
M  V30 11 C -2.942921 2.346149 1.993656 0
M  V30 12 C -2.793693 3.404034 1.113108 0
M  V30 13 C -1.768149 3.396675 0.190299 0
M  V30 14 N -1.540743 4.465818 -0.727822 0
M  V30 15 C -0.478135 4.375126 -1.671734 0
M  V30 16 N -0.124288 5.396529 -2.499151 0
M  V30 17 C 0.901351 5.222478 -3.387991 0
M  V30 18 C 1.597187 4.033695 -3.476088 0
M  V30 19 F 2.612134 3.867435 -4.359854 0
M  V30 20 C 1.222453 2.990277 -2.618413 0
M  V30 21 C 1.892522 1.692799 -2.666313 0
M  V30 22 C 3.213108 1.343606 -2.691713 0
M  V30 23 C 3.571180 0.014027 -2.757254 0
M  V30 24 C 2.612196 -0.977426 -2.797863 0
M  V30 25 N 2.968721 -2.273391 -2.866330 0
M  V30 26 C 2.046329 -3.260087 -2.911455 0
M  V30 27 C 0.703490 -2.953911 -2.887561 0
M  V30 28 N -0.403710 -3.863858 -2.929040 0
M  V30 29 C -1.801145 -3.419287 -2.897880 0
M  V30 30 C -2.452866 -4.103049 -1.704890 0
M  V30 31 O -2.468935 -5.480712 -1.898387 0
M  V30 32 C -1.215304 -6.026661 -2.055618 0
M  V30 33 C -0.323420 -5.291422 -3.008999 0
M  V30 34 N 0.373050 -1.655972 -2.818372 0
M  V30 35 C 1.272706 -0.659375 -2.773357 0
M  V30 36 C 0.917413 0.686169 -2.707410 0
M  V30 37 N 0.208224 3.248354 -1.780086 0
M  V30 38 N -0.941888 2.344549 0.182734 0
M  V30 39 C -1.012601 1.283690 0.993345 0
M  V30 40 C -1.246729 -2.095588 2.030226 0
M  V30 41 C 0.111432 -2.462083 2.607284 0
M  V30 42 H 3.320502 -1.537525 4.613689 0
M  V30 43 H 2.543923 -0.482462 3.399700 0
M  V30 44 H 2.585532 -2.255886 3.170117 0
M  V30 45 H 1.400535 -2.132220 5.622989 0
M  V30 46 H 1.621659 0.264294 5.451508 0
M  V30 47 H 0.381978 0.395118 4.200231 0
M  V30 48 H -0.008280 -0.241845 5.891047 0
M  V30 49 H -1.002751 -2.345853 5.793476 0
M  V30 50 H -1.309944 -3.670073 4.676499 0
M  V30 51 H -2.664846 -1.118194 4.931365 0
M  V30 52 H -3.063225 -2.569168 3.871402 0
M  V30 53 H -3.773396 2.403748 2.707348 0
M  V30 54 H -3.469347 4.252493 1.131145 0
M  V30 55 H -2.174323 5.300116 -0.682509 0
M  V30 56 H 1.150975 6.071890 -4.031332 0
M  V30 57 H 3.847223 2.215172 -2.653824 0
M  V30 58 H 4.634086 -0.191507 -2.774382 0
M  V30 59 H 2.268146 -4.315673 -2.968569 0
M  V30 60 H -1.866799 -2.326712 -2.727589 0
M  V30 61 H -2.304989 -3.756262 -3.802879 0
M  V30 62 H -3.497067 -3.755060 -1.661489 0
M  V30 63 H -1.960230 -3.812319 -0.761901 0
M  V30 64 H -0.676122 -6.239795 -1.110363 0
M  V30 65 H -1.375352 -7.045954 -2.518908 0
M  V30 66 H 0.719309 -5.662643 -2.824041 0
M  V30 67 H -0.588207 -5.609427 -4.055635 0
M  V30 68 H -0.181238 0.808167 -2.693215 0
M  V30 69 H -0.293000 0.487400 0.907605 0
M  V30 70 H -1.201971 -1.705473 1.000668 0
M  V30 71 H -1.914728 -2.977198 1.976321 0
M  V30 72 H 0.895180 -1.812728 2.183953 0
M  V30 73 H 0.337671 -3.501162 2.297254 0
M  V30 END ATOM
M  V30 BEGIN BOND
M  V30 1 1 1 2
M  V30 2 1 2 3
M  V30 3 1 2 4
M  V30 4 1 4 5
M  V30 5 1 5 6
M  V30 6 1 6 7
M  V30 7 1 7 8
M  V30 8 2 8 9
M  V30 9 1 8 10
M  V30 10 2 10 11
M  V30 11 1 11 12
M  V30 12 2 12 13
M  V30 13 1 13 14
M  V30 14 1 14 15
M  V30 15 2 15 16
M  V30 16 1 16 17
M  V30 17 2 17 18
M  V30 18 1 18 19
M  V30 19 1 18 20
M  V30 20 1 20 21
M  V30 21 2 21 22
M  V30 22 1 22 23
M  V30 23 2 23 24
M  V30 24 1 24 25
M  V30 25 2 25 26
M  V30 26 1 26 27
M  V30 27 1 27 28
M  V30 28 1 28 29
M  V30 29 1 29 30
M  V30 30 1 30 31
M  V30 31 1 31 32
M  V30 32 1 32 33
M  V30 33 2 27 34
M  V30 34 1 34 35
M  V30 35 2 35 36
M  V30 36 2 20 37
M  V30 37 1 13 38
M  V30 38 2 38 39
M  V30 39 1 7 40
M  V30 40 1 40 41
M  V30 41 1 41 4
M  V30 42 1 39 10
M  V30 43 1 37 15
M  V30 44 1 36 21
M  V30 45 1 35 24
M  V30 46 1 33 28
M  V30 47 1 1 42
M  V30 48 1 1 43
M  V30 49 1 1 44
M  V30 50 1 2 45
M  V30 51 1 3 46
M  V30 52 1 3 47
M  V30 53 1 3 48
M  V30 54 1 5 49
M  V30 55 1 5 50
M  V30 56 1 6 51
M  V30 57 1 6 52
M  V30 58 1 11 53
M  V30 59 1 12 54
M  V30 60 1 14 55
M  V30 61 1 17 56
M  V30 62 1 22 57
M  V30 63 1 23 58
M  V30 64 1 26 59
M  V30 65 1 29 60
M  V30 66 1 29 61
M  V30 67 1 30 62
M  V30 68 1 30 63
M  V30 69 1 32 64
M  V30 70 1 32 65
M  V30 71 1 33 66
M  V30 72 1 33 67
M  V30 73 1 36 68
M  V30 74 1 39 69
M  V30 75 1 40 70
M  V30 76 1 40 71
M  V30 77 1 41 72
M  V30 78 1 41 73
M  V30 END BOND
M  V30 END CTAB
M  END
>  <Dataset>  (256) 
ChEMBL_Kinases

>  <Ligand_Instance>  (256) 
nan

>  <PDB_ID>  (256) 
nan

>  <Standardized_SMILES>  (256) 
CC(C)N1CCN(C(=O)c2ccc(Nc3ncc(F)c(-c4ccc5ncc(N6CCOCC6)nc5c4)n3)nc2)CC1

>  <Name>  (256) 
nan

>  <Pocket>  (256) 
nan

>  <ATP_Site>  (256) 
nan

>  <Peripheral>  (256) 
nan

>  <Num_H_Atoms_ProtBoundConf>  (256) 
nan

>  <Num_Resolved_Atoms>  (256) 
nan

>  <Num_Not_Resolved_Atoms>  (256) 
nan

$$$$
CHEMBL5079606
     RDKit          3D

  0  0  0  0  0  0  0  0  0  0999 V3000
M  V30 BEGIN CTAB
M  V30 COUNTS 104 110 0 0 0
M  V30 BEGIN ATOM
M  V30 1 C -0.213619 -7.768230 -2.439870 0
M  V30 2 C 0.900095 -8.659502 -2.865070 0
M  V30 3 C 1.916388 -8.959021 -1.855568 0
M  V30 4 C 1.912708 -10.180412 -1.168278 0
M  V30 5 C 2.875992 -10.459961 -0.213134 0
M  V30 6 C 3.827850 -9.460732 0.009426 0
M  V30 7 C 3.817193 -8.268924 -0.673404 0
M  V30 8 C 4.976079 -7.404402 -0.273121 0
M  V30 9 C 6.025537 -7.619039 -1.360085 0
M  V30 10 C 2.852308 -7.978292 -1.634576 0
M  V30 11 N 3.033534 -6.707428 -2.196777 0
M  V30 12 C 3.803297 -6.247937 -3.344693 0
M  V30 13 C 2.908041 -5.447705 -4.239149 0
M  V30 14 N 2.347821 -4.338120 -3.496656 0
M  V30 15 C 2.011664 -3.094204 -3.984892 0
M  V30 16 C 1.465838 -2.357831 -2.917413 0
M  V30 17 C 0.957468 -0.984446 -2.763704 0
M  V30 18 N 1.267657 -0.279617 -1.689266 0
M  V30 19 C 0.934339 0.960144 -1.373901 0
M  V30 20 N 1.301597 1.598325 -0.119539 0
M  V30 21 C 0.324081 1.818293 0.899622 0
M  V30 22 C -0.927290 1.308165 0.584555 0
M  V30 23 C -1.960918 1.454849 1.479403 0
M  V30 24 C -1.762428 2.097673 2.673638 0
M  V30 25 N -2.722814 2.304990 3.700164 0
M  V30 26 C -4.020713 1.694034 3.654779 0
M  V30 27 C -5.094070 2.737398 3.598857 0
M  V30 28 C -4.713602 4.038682 4.139306 0
M  V30 29 C -4.360339 5.010064 3.087954 0
M  V30 30 O -4.701305 4.159073 2.216801 0
M  V30 31 N -3.895430 6.253557 2.581183 0
M  V30 32 C -3.377605 7.374782 3.364782 0
M  V30 33 C -3.973082 6.470161 1.152956 0
M  V30 34 C -2.755332 5.984093 0.393536 0
M  V30 35 N -2.820798 6.231759 -0.978430 0
M  V30 36 C -3.754846 5.583869 -1.799147 0
M  V30 37 C -2.160677 7.310453 -1.570450 0
M  V30 38 C -3.639375 4.028362 5.183980 0
M  V30 39 C -2.503360 3.098694 4.862633 0
M  V30 40 C -0.503457 2.556626 2.882955 0
M  V30 41 C 0.635621 2.501153 2.110853 0
M  V30 42 O 1.916583 2.868019 2.115998 0
M  V30 43 C 2.647346 3.554614 3.088346 0
M  V30 44 N 0.171240 1.564428 -2.300738 0
M  V30 45 C -0.226223 0.981337 -3.439694 0
M  V30 46 N -0.972278 1.357752 -4.491315 0
M  V30 47 C -1.070430 0.347239 -5.402456 0
M  V30 48 C -0.340927 -0.724821 -4.887098 0
M  V30 49 C 0.168884 -0.311135 -3.679871 0
M  V30 50 C 1.480877 -3.176513 -1.785957 0
M  V30 51 C 2.028371 -4.363151 -2.198404 0
M  V30 52 C 2.384057 -5.599066 -1.531243 0
M  V30 53 O 2.090391 -5.677653 -0.282859 0
M  V30 54 H -0.478289 -7.064694 -3.285910 0
M  V30 55 H 0.013273 -7.222153 -1.521783 0
M  V30 56 H -1.174813 -8.368331 -2.329344 0
M  V30 57 H 0.431500 -9.650214 -3.141766 0
M  V30 58 H 1.330346 -8.280706 -3.818713 0
M  V30 59 H 1.107928 -10.878939 -1.446470 0
M  V30 60 H 2.852732 -11.399509 0.295072 0
M  V30 61 H 4.545261 -9.764946 0.772325 0
M  V30 62 H 5.384984 -7.645761 0.712695 0
M  V30 63 H 4.726512 -6.312157 -0.345023 0
M  V30 64 H 6.470252 -6.669622 -1.713274 0
M  V30 65 H 6.905099 -8.204850 -0.966641 0
M  V30 66 H 5.628315 -8.199043 -2.218314 0
M  V30 67 H 4.624490 -5.561607 -2.976886 0
M  V30 68 H 4.286569 -7.101761 -3.867738 0
M  V30 69 H 2.036406 -6.119672 -4.504003 0
M  V30 70 H 3.401110 -5.087107 -5.168455 0
M  V30 71 H 2.081232 -2.622598 -4.948366 0
M  V30 72 H 2.302287 1.665270 -0.349219 0
M  V30 73 H -1.160331 0.791604 -0.326099 0
M  V30 74 H -2.927769 1.063939 1.248879 0
M  V30 75 H -4.136795 0.935716 2.832365 0
M  V30 76 H -4.157754 1.150408 4.651952 0
M  V30 77 H -5.646103 2.726731 2.631898 0
M  V30 78 H -5.937736 2.345178 4.302517 0
M  V30 79 H -5.667200 4.495261 4.602418 0
M  V30 80 H -2.574369 7.842406 2.753094 0
M  V30 81 H -2.919636 7.082069 4.308600 0
M  V30 82 H -4.199700 8.080341 3.576827 0
M  V30 83 H -4.104260 7.536503 0.959306 0
M  V30 84 H -4.896165 5.942055 0.766412 0
M  V30 85 H -1.806563 6.278475 0.869084 0
M  V30 86 H -2.807420 4.844032 0.516267 0
M  V30 87 H -3.527229 5.849528 -2.872207 0
M  V30 88 H -4.822259 5.877487 -1.585749 0
M  V30 89 H -3.687624 4.460240 -1.806773 0
M  V30 90 H -1.423457 6.984903 -2.346807 0
M  V30 91 H -2.926579 8.004462 -2.008110 0
M  V30 92 H -1.590609 7.957071 -0.850295 0
M  V30 93 H -4.123175 3.646813 6.107222 0
M  V30 94 H -3.290086 5.043455 5.439768 0
M  V30 95 H -2.317177 2.378556 5.714350 0
M  V30 96 H -1.600222 3.726147 4.802937 0
M  V30 97 H -0.122559 3.091232 3.776253 0
M  V30 98 H 2.024863 4.127752 3.812877 0
M  V30 99 H 3.240744 2.788511 3.670722 0
M  V30 100 H 3.408379 4.202673 2.583005 0
M  V30 101 H -1.381838 2.314192 -4.520368 0
M  V30 102 H -1.613382 0.389634 -6.334778 0
M  V30 103 H -0.195063 -1.694652 -5.336693 0
M  V30 104 H 1.143969 -2.983623 -0.752451 0
M  V30 END ATOM
M  V30 BEGIN BOND
M  V30 1 1 1 2
M  V30 2 1 2 3
M  V30 3 2 3 4
M  V30 4 1 4 5
M  V30 5 2 5 6
M  V30 6 1 6 7
M  V30 7 1 7 8
M  V30 8 1 8 9
M  V30 9 2 7 10
M  V30 10 1 10 11
M  V30 11 1 11 12
M  V30 12 1 12 13
M  V30 13 1 13 14
M  V30 14 1 14 15
M  V30 15 2 15 16
M  V30 16 1 16 17
M  V30 17 2 17 18
M  V30 18 1 18 19
M  V30 19 1 19 20
M  V30 20 1 20 21
M  V30 21 2 21 22
M  V30 22 1 22 23
M  V30 23 2 23 24
M  V30 24 1 24 25
M  V30 25 1 25 26
M  V30 26 1 26 27
M  V30 27 1 27 28
M  V30 28 1 28 29
M  V30 29 2 29 30
M  V30 30 1 29 31
M  V30 31 1 31 32
M  V30 32 1 31 33
M  V30 33 1 33 34
M  V30 34 1 34 35
M  V30 35 1 35 36
M  V30 36 1 35 37
M  V30 37 1 28 38
M  V30 38 1 38 39
M  V30 39 1 24 40
M  V30 40 2 40 41
M  V30 41 1 41 42
M  V30 42 1 42 43
M  V30 43 2 19 44
M  V30 44 1 44 45
M  V30 45 1 45 46
M  V30 46 1 46 47
M  V30 47 2 47 48
M  V30 48 1 48 49
M  V30 49 1 16 50
M  V30 50 2 50 51
M  V30 51 1 51 52
M  V30 52 2 52 53
M  V30 53 1 10 3
M  V30 54 1 52 11
M  V30 55 1 51 14
M  V30 56 1 49 17
M  V30 57 1 41 21
M  V30 58 2 49 45
M  V30 59 1 39 25
M  V30 60 1 1 54
M  V30 61 1 1 55
M  V30 62 1 1 56
M  V30 63 1 2 57
M  V30 64 1 2 58
M  V30 65 1 4 59
M  V30 66 1 5 60
M  V30 67 1 6 61
M  V30 68 1 8 62
M  V30 69 1 8 63
M  V30 70 1 9 64
M  V30 71 1 9 65
M  V30 72 1 9 66
M  V30 73 1 12 67
M  V30 74 1 12 68
M  V30 75 1 13 69
M  V30 76 1 13 70
M  V30 77 1 15 71
M  V30 78 1 20 72
M  V30 79 1 22 73
M  V30 80 1 23 74
M  V30 81 1 26 75
M  V30 82 1 26 76
M  V30 83 1 27 77
M  V30 84 1 27 78
M  V30 85 1 28 79
M  V30 86 1 32 80
M  V30 87 1 32 81
M  V30 88 1 32 82
M  V30 89 1 33 83
M  V30 90 1 33 84
M  V30 91 1 34 85
M  V30 92 1 34 86
M  V30 93 1 36 87
M  V30 94 1 36 88
M  V30 95 1 36 89
M  V30 96 1 37 90
M  V30 97 1 37 91
M  V30 98 1 37 92
M  V30 99 1 38 93
M  V30 100 1 38 94
M  V30 101 1 39 95
M  V30 102 1 39 96
M  V30 103 1 40 97
M  V30 104 1 43 98
M  V30 105 1 43 99
M  V30 106 1 43 100
M  V30 107 1 46 101
M  V30 108 1 47 102
M  V30 109 1 48 103
M  V30 110 1 50 104
M  V30 END BOND
M  V30 END CTAB
M  END
>  <Dataset>  (257) 
ChEMBL_Kinases

>  <Ligand_Instance>  (257) 
nan

>  <PDB_ID>  (257) 
nan

>  <Standardized_SMILES>  (257) 
CCc1cccc(CC)c1N1CCn2cc(-c3nc(Nc4ccc(N5CCC(C(=O)N(C)CCN(C)C)CC5)cc4OC)nc4[nH]ccc34)cc2C1=O

>  <Name>  (257) 
nan

>  <Pocket>  (257) 
nan

>  <ATP_Site>  (257) 
nan

>  <Peripheral>  (257) 
nan

>  <Num_H_Atoms_ProtBoundConf>  (257) 
nan

>  <Num_Resolved_Atoms>  (257) 
nan

>  <Num_Not_Resolved_Atoms>  (257) 
nan

$$$$
CHEMBL5079750
     RDKit          3D

  0  0  0  0  0  0  0  0  0  0999 V3000
M  V30 BEGIN CTAB
M  V30 COUNTS 56 59 0 0 0
M  V30 BEGIN ATOM
M  V30 1 O 5.357986 0.022782 6.455948 0
M  V30 2 C 6.051932 1.009956 6.745937 0
M  V30 3 O 6.054325 0.179426 7.832480 0
M  V30 4 C 6.139009 2.005576 5.647618 0
M  V30 5 C 5.317908 1.450059 4.503371 0
M  V30 6 C 5.308509 2.347699 3.312372 0
M  V30 7 N 4.531633 1.833475 2.212287 0
M  V30 8 C 3.141103 1.541989 2.258476 0
M  V30 9 O 2.591988 1.768626 3.368482 0
M  V30 10 C 2.385036 1.020905 1.125045 0
M  V30 11 C 2.879310 0.730446 -0.130382 0
M  V30 12 C 2.063821 0.239670 -1.129296 0
M  V30 13 C 0.716385 0.012326 -0.932493 0
M  V30 14 C 0.203971 0.297049 0.316807 0
M  V30 15 C 1.036632 0.787014 1.301594 0
M  V30 16 C -1.173952 0.146571 0.775932 0
M  V30 17 O -1.472825 0.682500 1.856502 0
M  V30 18 C -2.236653 -0.578516 0.079278 0
M  V30 19 C -3.474150 -0.383819 0.643723 0
M  V30 20 C -4.615297 -0.959298 0.165160 0
M  V30 21 C -4.521321 -1.777682 -0.941097 0
M  V30 22 N -5.648882 -2.423864 -1.518801 0
M  V30 23 C -5.726562 -3.311739 -2.626991 0
M  V30 24 C -6.428415 -3.148878 -3.798267 0
M  V30 25 C -6.384423 -4.132128 -4.772361 0
M  V30 26 C -5.652858 -5.277232 -4.601720 0
M  V30 27 F -5.654780 -6.188413 -5.587087 0
M  V30 28 C -4.941571 -5.442333 -3.414809 0
M  V30 29 C -4.985153 -4.452327 -2.432455 0
M  V30 30 F -4.220473 -4.828223 -1.367396 0
M  V30 31 C -3.274403 -1.982707 -1.521605 0
M  V30 32 C -2.109091 -1.392696 -1.029713 0
M  V30 33 C -0.884238 -1.722981 -1.771106 0
M  V30 34 C -0.038701 -0.517203 -2.093695 0
M  V30 35 H 6.728425 0.296566 8.591643 0
M  V30 36 H 5.691268 2.960295 6.046378 0
M  V30 37 H 7.198509 2.128435 5.387927 0
M  V30 38 H 5.807568 0.487777 4.221970 0
M  V30 39 H 4.304924 1.302488 4.872530 0
M  V30 40 H 6.349284 2.505566 2.962185 0
M  V30 41 H 4.945571 3.373551 3.595936 0
M  V30 42 H 4.991880 1.641230 1.272714 0
M  V30 43 H 3.927312 0.905227 -0.290317 0
M  V30 44 H 2.463086 0.018492 -2.101434 0
M  V30 45 H 0.567544 0.989419 2.261146 0
M  V30 46 H -3.533940 0.266146 1.518332 0
M  V30 47 H -5.597120 -0.832985 0.575838 0
M  V30 48 H -6.597047 -2.264069 -1.113859 0
M  V30 49 H -6.981633 -2.207731 -3.846777 0
M  V30 50 H -6.970812 -3.918166 -5.666862 0
M  V30 51 H -4.396227 -6.380864 -3.379357 0
M  V30 52 H -3.090693 -2.604736 -2.391649 0
M  V30 53 H -1.133836 -2.184868 -2.767426 0
M  V30 54 H -0.275735 -2.412092 -1.175027 0
M  V30 55 H -0.734258 0.289113 -2.428106 0
M  V30 56 H 0.623634 -0.720691 -2.954675 0
M  V30 END ATOM
M  V30 BEGIN BOND
M  V30 1 2 1 2
M  V30 2 1 2 3
M  V30 3 1 2 4
M  V30 4 1 4 5
M  V30 5 1 5 6
M  V30 6 1 6 7
M  V30 7 1 7 8
M  V30 8 2 8 9
M  V30 9 1 8 10
M  V30 10 2 10 11
M  V30 11 1 11 12
M  V30 12 2 12 13
M  V30 13 1 13 14
M  V30 14 2 14 15
M  V30 15 1 14 16
M  V30 16 2 16 17
M  V30 17 1 16 18
M  V30 18 2 18 19
M  V30 19 1 19 20
M  V30 20 2 20 21
M  V30 21 1 21 22
M  V30 22 1 22 23
M  V30 23 2 23 24
M  V30 24 1 24 25
M  V30 25 2 25 26
M  V30 26 1 26 27
M  V30 27 1 26 28
M  V30 28 2 28 29
M  V30 29 1 29 30
M  V30 30 1 21 31
M  V30 31 2 31 32
M  V30 32 1 32 33
M  V30 33 1 33 34
M  V30 34 1 15 10
M  V30 35 1 32 18
M  V30 36 1 34 13
M  V30 37 1 29 23
M  V30 38 1 3 35
M  V30 39 1 4 36
M  V30 40 1 4 37
M  V30 41 1 5 38
M  V30 42 1 5 39
M  V30 43 1 6 40
M  V30 44 1 6 41
M  V30 45 1 7 42
M  V30 46 1 11 43
M  V30 47 1 12 44
M  V30 48 1 15 45
M  V30 49 1 19 46
M  V30 50 1 20 47
M  V30 51 1 22 48
M  V30 52 1 24 49
M  V30 53 1 25 50
M  V30 54 1 28 51
M  V30 55 1 31 52
M  V30 56 1 33 53
M  V30 57 1 33 54
M  V30 58 1 34 55
M  V30 59 1 34 56
M  V30 END BOND
M  V30 END CTAB
M  END
>  <Dataset>  (258) 
ChEMBL_Kinases

>  <Ligand_Instance>  (258) 
nan

>  <PDB_ID>  (258) 
nan

>  <Standardized_SMILES>  (258) 
O=C(O)CCCNC(=O)c1ccc2c(c1)C(=O)c1ccc(Nc3ccc(F)cc3F)cc1CC2

>  <Name>  (258) 
nan

>  <Pocket>  (258) 
nan

>  <ATP_Site>  (258) 
nan

>  <Peripheral>  (258) 
nan

>  <Num_H_Atoms_ProtBoundConf>  (258) 
nan

>  <Num_Resolved_Atoms>  (258) 
nan

>  <Num_Not_Resolved_Atoms>  (258) 
nan

$$$$
CHEMBL5079781
     RDKit          3D

  0  0  0  0  0  0  0  0  0  0999 V3000
M  V30 BEGIN CTAB
M  V30 COUNTS 62 67 0 0 0
M  V30 BEGIN ATOM
M  V30 1 O 3.197336 3.026660 2.088037 0
M  V30 2 C 2.442227 2.202909 1.526061 0
M  V30 3 N 2.970651 0.985898 0.955151 0
M  V30 4 C 4.356962 0.727211 1.037196 0
M  V30 5 C 4.785014 -0.493258 1.779339 0
M  V30 6 C 5.250463 -1.437039 0.689117 0
M  V30 7 N 5.124628 -0.739361 -0.552064 0
M  V30 8 C 4.056557 -1.177837 -1.392394 0
M  V30 9 C 3.818715 -0.551839 -2.706869 0
M  V30 10 C 4.396348 -1.919490 -2.676376 0
M  V30 11 C 5.120897 0.667890 -0.239923 0
M  V30 12 C 1.000078 2.466400 1.439814 0
M  V30 13 C 0.037799 1.521644 1.190235 0
M  V30 14 C -1.317315 1.809694 1.124543 0
M  V30 15 C -2.336327 0.791473 0.874949 0
M  V30 16 C -2.063010 -0.536160 0.664348 0
M  V30 17 C -3.113387 -1.397716 0.453835 0
M  V30 18 C -4.429665 -0.988432 0.444813 0
M  V30 19 N -5.497513 -1.867179 0.228175 0
M  V30 20 S -6.222733 -3.299835 0.748195 0
M  V30 21 O -7.521035 -3.506033 0.001190 0
M  V30 22 O -6.574425 -3.235265 2.245094 0
M  V30 23 C -5.235754 -4.730458 0.610792 0
M  V30 24 C -5.569034 -5.659154 -0.385482 0
M  V30 25 C -4.809954 -6.789592 -0.582098 0
M  V30 26 C -3.697150 -7.073316 0.172997 0
M  V30 27 C -3.370037 -6.172119 1.145298 0
M  V30 28 Cl -1.966673 -6.503550 2.120192 0
M  V30 29 C -4.118897 -5.047524 1.347137 0
M  V30 30 Cl -3.683964 -3.965366 2.650825 0
M  V30 31 C -4.635827 0.367574 0.662720 0
M  V30 32 C -3.647098 1.296630 0.881101 0
M  V30 33 N -1.600474 3.102813 1.327229 0
M  V30 34 C -0.722720 4.076528 1.574424 0
M  V30 35 N -0.981308 5.401916 1.785329 0
M  V30 36 N 0.224381 5.950569 1.986147 0
M  V30 37 C 1.184097 5.018003 1.905314 0
M  V30 38 C 0.631853 3.785962 1.640360 0
M  V30 39 H 2.357486 0.264775 0.470712 0
M  V30 40 H 4.806367 1.591872 1.615350 0
M  V30 41 H 3.989354 -1.021464 2.335853 0
M  V30 42 H 5.601957 -0.316449 2.519207 0
M  V30 43 H 4.691339 -2.400694 0.691075 0
M  V30 44 H 6.321470 -1.675873 0.868216 0
M  V30 45 H 3.209073 -1.633630 -0.830965 0
M  V30 46 H 2.775051 -0.501934 -3.134531 0
M  V30 47 H 4.429380 0.318423 -3.036327 0
M  V30 48 H 5.476528 -2.004166 -2.970768 0
M  V30 49 H 3.827048 -2.815144 -2.957077 0
M  V30 50 H 6.154460 1.046586 -0.094541 0
M  V30 51 H 4.583507 1.282082 -0.986536 0
M  V30 52 H 0.382137 0.509870 1.042587 0
M  V30 53 H -1.043756 -0.877853 0.665675 0
M  V30 54 H -2.834627 -2.426699 0.284330 0
M  V30 55 H -5.999171 -1.405295 -0.598710 0
M  V30 56 H -6.438029 -5.465317 -0.998877 0
M  V30 57 H -5.158593 -7.451177 -1.387691 0
M  V30 58 H -3.197756 -7.977519 -0.079273 0
M  V30 59 H -5.668067 0.691540 0.654061 0
M  V30 60 H -3.884684 2.347721 1.046138 0
M  V30 61 H -1.926534 5.840260 1.779406 0
M  V30 62 H 2.261171 5.148594 2.021644 0
M  V30 END ATOM
M  V30 BEGIN BOND
M  V30 1 2 1 2
M  V30 2 1 2 3
M  V30 3 1 3 4
M  V30 4 1 4 5
M  V30 5 1 5 6
M  V30 6 1 6 7
M  V30 7 1 7 8
M  V30 8 1 8 9
M  V30 9 1 9 10
M  V30 10 1 7 11
M  V30 11 1 2 12
M  V30 12 2 12 13
M  V30 13 1 13 14
M  V30 14 1 14 15
M  V30 15 2 15 16
M  V30 16 1 16 17
M  V30 17 2 17 18
M  V30 18 1 18 19
M  V30 19 1 19 20
M  V30 20 2 20 21
M  V30 21 2 20 22
M  V30 22 1 20 23
M  V30 23 2 23 24
M  V30 24 1 24 25
M  V30 25 2 25 26
M  V30 26 1 26 27
M  V30 27 1 27 28
M  V30 28 2 27 29
M  V30 29 1 29 30
M  V30 30 1 18 31
M  V30 31 2 31 32
M  V30 32 2 14 33
M  V30 33 1 33 34
M  V30 34 1 34 35
M  V30 35 1 35 36
M  V30 36 2 36 37
M  V30 37 1 37 38
M  V30 38 1 11 4
M  V30 39 1 38 12
M  V30 40 1 10 8
M  V30 41 1 32 15
M  V30 42 2 38 34
M  V30 43 1 29 23
M  V30 44 1 3 39
M  V30 45 1 4 40
M  V30 46 1 5 41
M  V30 47 1 5 42
M  V30 48 1 6 43
M  V30 49 1 6 44
M  V30 50 1 8 45
M  V30 51 1 9 46
M  V30 52 1 9 47
M  V30 53 1 10 48
M  V30 54 1 10 49
M  V30 55 1 11 50
M  V30 56 1 11 51
M  V30 57 1 13 52
M  V30 58 1 16 53
M  V30 59 1 17 54
M  V30 60 1 19 55
M  V30 61 1 24 56
M  V30 62 1 25 57
M  V30 63 1 26 58
M  V30 64 1 31 59
M  V30 65 1 32 60
M  V30 66 1 35 61
M  V30 67 1 37 62
M  V30 END BOND
M  V30 END CTAB
M  END
>  <Dataset>  (259) 
ChEMBL_Kinases

>  <Ligand_Instance>  (259) 
nan

>  <PDB_ID>  (259) 
nan

>  <Standardized_SMILES>  (259) 
O=C(NC1CCN(C2CC2)C1)c1cc(-c2ccc(NS(=O)(=O)c3cccc(Cl)c3Cl)cc2)nc2[nH]ncc12

>  <Name>  (259) 
nan

>  <Pocket>  (259) 
nan

>  <ATP_Site>  (259) 
nan

>  <Peripheral>  (259) 
nan

>  <Num_H_Atoms_ProtBoundConf>  (259) 
nan

>  <Num_Resolved_Atoms>  (259) 
nan

>  <Num_Not_Resolved_Atoms>  (259) 
nan

$$$$
CHEMBL5079859
     RDKit          3D

  0  0  0  0  0  0  0  0  0  0999 V3000
M  V30 BEGIN CTAB
M  V30 COUNTS 56 59 0 0 0
M  V30 BEGIN ATOM
M  V30 1 C 5.976335 0.269708 5.197669 0
M  V30 2 N 4.852719 -0.359831 4.486491 0
M  V30 3 C 4.671465 0.002720 3.099258 0
M  V30 4 O 5.596736 0.823382 2.854751 0
M  V30 5 C 3.491832 -0.722630 2.530347 0 CFG=1
M  V30 6 C 2.266364 -0.337735 3.325886 0
M  V30 7 C 1.862192 0.964593 2.734407 0
M  V30 8 C 2.156235 0.867428 1.297735 0 CFG=2
M  V30 9 C 2.894238 2.132824 0.829339 0
M  V30 10 N 2.739436 2.061636 -0.633196 0
M  V30 11 C 1.387234 1.582736 -0.788850 0
M  V30 12 N 0.562421 1.774223 -1.861491 0
M  V30 13 C -0.686939 1.276232 -1.886118 0
M  V30 14 C -1.106487 0.570549 -0.800934 0
M  V30 15 C -2.460132 0.033174 -0.831175 0
M  V30 16 C -3.539010 0.750444 -0.361240 0
M  V30 17 C -4.825213 0.268275 -0.377712 0
M  V30 18 C -5.059124 -1.013430 -0.895663 0
M  V30 19 N -6.424417 -1.401470 -0.860208 0
M  V30 20 C -4.017470 -1.773998 -1.378731 0
M  V30 21 C -4.367266 -3.080707 -1.888886 0
M  V30 22 O -5.625203 -3.313573 -1.792306 0
M  V30 23 N -3.752454 -4.205515 -2.471691 0
M  V30 24 C -2.382450 -4.488265 -2.810499 0
M  V30 25 C -4.572883 -5.369664 -2.842364 0
M  V30 26 C -2.779050 -1.205108 -1.317714 0
M  V30 27 F -1.722402 -1.890803 -1.769590 0
M  V30 28 C -0.256424 0.391904 0.266495 0
M  V30 29 Cl -0.887723 -0.525291 1.612339 0
M  V30 30 C 1.027081 0.867915 0.363716 0
M  V30 31 C 3.127873 -0.255042 1.140498 0
M  V30 32 H 6.930374 -0.234754 4.945741 0
M  V30 33 H 5.827299 0.210908 6.276263 0
M  V30 34 H 6.022751 1.366954 4.953474 0
M  V30 35 H 4.263744 -1.036302 5.061593 0
M  V30 36 H 3.665394 -1.823426 2.547993 0
M  V30 37 H 2.487512 -0.279975 4.413997 0
M  V30 38 H 1.555997 -1.174085 3.191468 0
M  V30 39 H 2.545866 1.738956 3.191788 0
M  V30 40 H 0.844549 1.296195 3.000498 0
M  V30 41 H 2.460243 3.044503 1.249663 0
M  V30 42 H 3.973359 2.047473 1.024977 0
M  V30 43 H 3.451006 2.304352 -1.371188 0
M  V30 44 H -1.223521 1.494390 -2.774089 0
M  V30 45 H -3.393149 1.741295 0.044340 0
M  V30 46 H -5.628981 0.878979 0.005319 0
M  V30 47 H -6.538680 -1.994360 -0.004739 0
M  V30 48 H -7.256554 -1.223383 -1.469296 0
M  V30 49 H -2.244706 -5.489436 -3.299052 0
M  V30 50 H -1.944980 -3.781210 -3.561350 0
M  V30 51 H -1.745796 -4.508866 -1.892810 0
M  V30 52 H -4.249278 -6.240705 -2.220431 0
M  V30 53 H -5.630366 -5.100174 -2.660602 0
M  V30 54 H -4.386529 -5.622110 -3.908820 0
M  V30 55 H 2.640237 -1.137331 0.632710 0
M  V30 56 H 4.050198 0.021568 0.574836 0
M  V30 END ATOM
M  V30 BEGIN BOND
M  V30 1 1 1 2
M  V30 2 1 2 3
M  V30 3 2 3 4
M  V30 4 1 3 5
M  V30 5 1 5 6
M  V30 6 1 6 7
M  V30 7 1 8 7 CFG=1
M  V30 8 1 8 9
M  V30 9 1 9 10
M  V30 10 1 10 11
M  V30 11 2 11 12
M  V30 12 1 12 13
M  V30 13 2 13 14
M  V30 14 1 14 15
M  V30 15 2 15 16
M  V30 16 1 16 17
M  V30 17 2 17 18
M  V30 18 1 18 19
M  V30 19 1 18 20
M  V30 20 1 20 21
M  V30 21 2 21 22
M  V30 22 1 21 23
M  V30 23 1 23 24
M  V30 24 1 23 25
M  V30 25 2 20 26
M  V30 26 1 26 27
M  V30 27 1 14 28
M  V30 28 1 28 29
M  V30 29 2 28 30
M  V30 30 1 8 31
M  V30 31 1 31 5
M  V30 32 1 30 8
M  V30 33 1 30 11
M  V30 34 1 26 15
M  V30 35 1 1 32
M  V30 36 1 1 33
M  V30 37 1 1 34
M  V30 38 1 2 35
M  V30 39 1 5 36 CFG=3
M  V30 40 1 6 37
M  V30 41 1 6 38
M  V30 42 1 7 39
M  V30 43 1 7 40
M  V30 44 1 9 41
M  V30 45 1 9 42
M  V30 46 1 10 43
M  V30 47 1 13 44
M  V30 48 1 16 45
M  V30 49 1 17 46
M  V30 50 1 19 47
M  V30 51 1 19 48
M  V30 52 1 24 49
M  V30 53 1 24 50
M  V30 54 1 24 51
M  V30 55 1 25 52
M  V30 56 1 25 53
M  V30 57 1 25 54
M  V30 58 1 31 55
M  V30 59 1 31 56
M  V30 END BOND
M  V30 END CTAB
M  END
>  <Dataset>  (260) 
ChEMBL_Kinases

>  <Ligand_Instance>  (260) 
nan

>  <PDB_ID>  (260) 
nan

>  <Standardized_SMILES>  (260) 
CNC(=O)[C@H]1CC[C@@]2(CNc3ncc(-c4ccc(N)c(C(=O)N(C)C)c4F)c(Cl)c32)C1

>  <Name>  (260) 
nan

>  <Pocket>  (260) 
nan

>  <ATP_Site>  (260) 
nan

>  <Peripheral>  (260) 
nan

>  <Num_H_Atoms_ProtBoundConf>  (260) 
nan

>  <Num_Resolved_Atoms>  (260) 
nan

>  <Num_Not_Resolved_Atoms>  (260) 
nan

$$$$
CHEMBL3702296
     RDKit          3D

  0  0  0  0  0  0  0  0  0  0999 V3000
M  V30 BEGIN CTAB
M  V30 COUNTS 51 53 0 0 0
M  V30 BEGIN ATOM
M  V30 1 C 0.956651 -1.288838 1.091250 0
M  V30 2 C 1.164359 0.105846 1.552224 0
M  V30 3 C 2.459801 0.476417 1.593650 0
M  V30 4 C 3.803120 -0.043753 1.388535 0
M  V30 5 O 4.783180 0.767074 1.583808 0
M  V30 6 N 4.370183 -1.267191 1.017336 0
M  V30 7 C 5.774223 -1.484185 0.896590 0
M  V30 8 C 6.442752 -0.660204 -0.104908 0
M  V30 9 C 7.010444 0.011404 -0.919759 0
M  V30 10 C 7.732921 0.849814 -1.913815 0
M  V30 11 N 7.002667 0.992287 -3.137933 0
M  V30 12 S 2.440383 2.189326 2.101561 0
M  V30 13 C 0.619370 2.304114 2.238386 0
M  V30 14 N -0.149293 3.325142 2.598817 0
M  V30 15 C -1.511595 3.156275 2.646007 0
M  V30 16 N -1.898890 1.913764 2.300942 0
M  V30 17 C -1.092801 0.904957 1.940182 0
M  V30 18 N -1.937285 -0.211114 1.708323 0
M  V30 19 C -3.076377 -0.107273 0.882967 0
M  V30 20 C -3.479393 1.036277 0.178938 0
M  V30 21 C -4.604832 1.175184 -0.575405 0
M  V30 22 C -5.465089 0.102341 -0.684594 0
M  V30 23 N -5.141991 -1.048064 -0.028883 0
M  V30 24 C -4.020076 -1.124275 0.696602 0
M  V30 25 O -3.793871 -2.332645 1.306166 0
M  V30 26 C -4.667679 -3.424925 1.273280 0
M  V30 27 C -4.560031 -4.181675 -0.054438 0
M  V30 28 C -4.527832 -4.409194 2.379269 0
M  V30 29 C 0.256278 1.059890 1.889157 0
M  V30 30 H 1.325098 -2.041855 1.810178 0
M  V30 31 H -0.078985 -1.552423 0.840269 0
M  V30 32 H 1.499423 -1.471801 0.124053 0
M  V30 33 H 3.624516 -1.997434 0.850151 0
M  V30 34 H 5.910722 -2.581807 0.666046 0
M  V30 35 H 6.329747 -1.344166 1.849409 0
M  V30 36 H 8.028108 1.789363 -1.422800 0
M  V30 37 H 8.702626 0.328521 -2.171429 0
M  V30 38 H 6.372371 0.182377 -3.251645 0
M  V30 39 H 6.546003 1.918790 -3.280986 0
M  V30 40 H -2.112544 3.993494 2.940977 0
M  V30 41 H -1.858116 -1.191440 2.110999 0
M  V30 42 H -2.838394 1.910905 0.210883 0
M  V30 43 H -4.833012 2.097434 -1.086253 0
M  V30 44 H -6.341517 0.244321 -1.287547 0
M  V30 45 H -5.721628 -3.001922 1.238134 0
M  V30 46 H -4.938788 -5.219764 0.018163 0
M  V30 47 H -5.197429 -3.661564 -0.828219 0
M  V30 48 H -3.515906 -4.240584 -0.421312 0
M  V30 49 H -5.428709 -5.050298 2.422601 0
M  V30 50 H -3.661868 -5.068739 2.151453 0
M  V30 51 H -4.453310 -3.954892 3.397280 0
M  V30 END ATOM
M  V30 BEGIN BOND
M  V30 1 1 1 2
M  V30 2 2 2 3
M  V30 3 1 3 4
M  V30 4 2 4 5
M  V30 5 1 4 6
M  V30 6 1 6 7
M  V30 7 1 7 8
M  V30 8 3 8 9
M  V30 9 1 9 10
M  V30 10 1 10 11
M  V30 11 1 3 12
M  V30 12 1 12 13
M  V30 13 2 13 14
M  V30 14 1 14 15
M  V30 15 2 15 16
M  V30 16 1 16 17
M  V30 17 1 17 18
M  V30 18 1 18 19
M  V30 19 2 19 20
M  V30 20 1 20 21
M  V30 21 2 21 22
M  V30 22 1 22 23
M  V30 23 2 23 24
M  V30 24 1 24 25
M  V30 25 1 25 26
M  V30 26 1 26 27
M  V30 27 1 26 28
M  V30 28 2 17 29
M  V30 29 1 29 2
M  V30 30 1 29 13
M  V30 31 1 24 19
M  V30 32 1 1 30
M  V30 33 1 1 31
M  V30 34 1 1 32
M  V30 35 1 6 33
M  V30 36 1 7 34
M  V30 37 1 7 35
M  V30 38 1 10 36
M  V30 39 1 10 37
M  V30 40 1 11 38
M  V30 41 1 11 39
M  V30 42 1 15 40
M  V30 43 1 18 41
M  V30 44 1 20 42
M  V30 45 1 21 43
M  V30 46 1 22 44
M  V30 47 1 26 45
M  V30 48 1 27 46
M  V30 49 1 27 47
M  V30 50 1 27 48
M  V30 51 1 28 49
M  V30 52 1 28 50
M  V30 53 1 28 51
M  V30 END BOND
M  V30 END CTAB
M  END
>  <Dataset>  (261) 
ChEMBL_Kinases

>  <Ligand_Instance>  (261) 
nan

>  <PDB_ID>  (261) 
nan

>  <Standardized_SMILES>  (261) 
Cc1c(C(=O)NCC#CCN)sc2ncnc(Nc3cccnc3OC(C)C)c12

>  <Name>  (261) 
nan

>  <Pocket>  (261) 
nan

>  <ATP_Site>  (261) 
nan

>  <Peripheral>  (261) 
nan

>  <Num_H_Atoms_ProtBoundConf>  (261) 
nan

>  <Num_Resolved_Atoms>  (261) 
nan

>  <Num_Not_Resolved_Atoms>  (261) 
nan

$$$$
CHEMBL590238
     RDKit          3D

  0  0  0  0  0  0  0  0  0  0999 V3000
M  V30 BEGIN CTAB
M  V30 COUNTS 51 53 0 0 0
M  V30 BEGIN ATOM
M  V30 1 C 2.994453 -3.009158 4.187688 0
M  V30 2 O 1.838670 -2.224249 4.000006 0
M  V30 3 C 0.699302 -2.983831 4.199540 0
M  V30 4 C -0.515599 -2.139467 3.997604 0
M  V30 5 N -0.530579 -1.615382 2.649340 0
M  V30 6 C 0.332724 -0.676255 2.036146 0
M  V30 7 N 1.356808 -0.052812 2.634783 0
M  V30 8 C 2.150000 0.848744 2.037219 0
M  V30 9 C 1.895538 1.155589 0.718142 0
M  V30 10 C 2.722728 2.128547 0.012678 0
M  V30 11 C 3.793030 2.820158 0.537340 0
M  V30 12 C 4.515761 3.723745 -0.214586 0
M  V30 13 N 4.183168 3.958914 -1.518071 0
M  V30 14 C 3.151858 3.311705 -2.072270 0
M  V30 15 C 2.437926 2.414393 -1.317532 0
M  V30 16 N 0.873032 0.544296 0.091565 0
M  V30 17 C 0.093533 -0.356812 0.716434 0
M  V30 18 N -0.927467 -0.887302 -0.155383 0
M  V30 19 C -0.879865 -2.298652 -0.459914 0
M  V30 20 C -2.255977 -2.870509 -0.475229 0
M  V30 21 C -3.309700 -1.866749 -0.176179 0
M  V30 22 N -3.691278 -1.039165 -1.292875 0
M  V30 23 C -4.271689 -1.734081 -2.396020 0
M  V30 24 C -2.710569 -0.074099 -1.658581 0
M  V30 25 C -1.766233 0.220726 -0.514373 0
M  V30 26 H 2.992990 -3.859157 3.459129 0
M  V30 27 H 3.856488 -2.330665 3.969756 0
M  V30 28 H 2.976195 -3.345881 5.238131 0
M  V30 29 H 0.709152 -3.439910 5.212462 0
M  V30 30 H 0.637305 -3.831298 3.484433 0
M  V30 31 H -1.445089 -2.645962 4.291057 0
M  V30 32 H -0.382867 -1.242205 4.689423 0
M  V30 33 H -1.315381 -2.032745 2.113489 0
M  V30 34 H 2.943651 1.288255 2.611930 0
M  V30 35 H 4.047215 2.628492 1.563662 0
M  V30 36 H 5.351621 4.246500 0.239074 0
M  V30 37 H 2.887314 3.499301 -3.110372 0
M  V30 38 H 1.611026 1.911114 -1.801525 0
M  V30 39 H -0.467358 -2.402939 -1.508249 0
M  V30 40 H -0.168048 -2.838018 0.199102 0
M  V30 41 H -2.293554 -3.625133 0.366188 0
M  V30 42 H -2.463467 -3.480860 -1.379907 0
M  V30 43 H -2.997437 -1.222745 0.647167 0
M  V30 44 H -4.255722 -2.405201 0.123950 0
M  V30 45 H -3.808811 -2.675274 -2.683953 0
M  V30 46 H -4.148952 -1.055420 -3.289823 0
M  V30 47 H -5.355869 -1.868800 -2.248193 0
M  V30 48 H -3.220412 0.913224 -1.859830 0
M  V30 49 H -2.196039 -0.312025 -2.605198 0
M  V30 50 H -2.339909 0.652568 0.304579 0
M  V30 51 H -1.085915 1.049786 -0.869293 0
M  V30 END ATOM
M  V30 BEGIN BOND
M  V30 1 1 1 2
M  V30 2 1 2 3
M  V30 3 1 3 4
M  V30 4 1 4 5
M  V30 5 1 5 6
M  V30 6 2 6 7
M  V30 7 1 7 8
M  V30 8 2 8 9
M  V30 9 1 9 10
M  V30 10 2 10 11
M  V30 11 1 11 12
M  V30 12 2 12 13
M  V30 13 1 13 14
M  V30 14 2 14 15
M  V30 15 1 9 16
M  V30 16 2 16 17
M  V30 17 1 17 18
M  V30 18 1 18 19
M  V30 19 1 19 20
M  V30 20 1 20 21
M  V30 21 1 21 22
M  V30 22 1 22 23
M  V30 23 1 22 24
M  V30 24 1 24 25
M  V30 25 1 17 6
M  V30 26 1 25 18
M  V30 27 1 15 10
M  V30 28 1 1 26
M  V30 29 1 1 27
M  V30 30 1 1 28
M  V30 31 1 3 29
M  V30 32 1 3 30
M  V30 33 1 4 31
M  V30 34 1 4 32
M  V30 35 1 5 33
M  V30 36 1 8 34
M  V30 37 1 11 35
M  V30 38 1 12 36
M  V30 39 1 14 37
M  V30 40 1 15 38
M  V30 41 1 19 39
M  V30 42 1 19 40
M  V30 43 1 20 41
M  V30 44 1 20 42
M  V30 45 1 21 43
M  V30 46 1 21 44
M  V30 47 1 23 45
M  V30 48 1 23 46
M  V30 49 1 23 47
M  V30 50 1 24 48
M  V30 51 1 24 49
M  V30 52 1 25 50
M  V30 53 1 25 51
M  V30 END BOND
M  V30 END CTAB
M  END
>  <Dataset>  (262) 
ChEMBL_Kinases

>  <Ligand_Instance>  (262) 
nan

>  <PDB_ID>  (262) 
nan

>  <Standardized_SMILES>  (262) 
COCCNc1ncc(-c2ccncc2)nc1N1CCCN(C)CC1

>  <Name>  (262) 
nan

>  <Pocket>  (262) 
nan

>  <ATP_Site>  (262) 
nan

>  <Peripheral>  (262) 
nan

>  <Num_H_Atoms_ProtBoundConf>  (262) 
nan

>  <Num_Resolved_Atoms>  (262) 
nan

>  <Num_Not_Resolved_Atoms>  (262) 
nan

$$$$
CHEMBL5079919
     RDKit          3D

  0  0  0  0  0  0  0  0  0  0999 V3000
M  V30 BEGIN CTAB
M  V30 COUNTS 24 26 0 0 0
M  V30 BEGIN ATOM
M  V30 1 C 1.327444 -0.557686 4.618947 0
M  V30 2 C 0.921570 -1.051963 3.375138 0
M  V30 3 C 1.009647 -0.161048 2.328023 0
M  V30 4 C 0.627903 -0.494073 0.936013 0
M  V30 5 C 0.806177 -1.787187 0.501186 0
M  V30 6 C 0.452972 -2.136643 -0.806333 0
M  V30 7 C -0.063581 -1.124241 -1.583701 0
M  V30 8 O -0.466465 -1.205205 -2.837681 0
M  V30 9 C -0.899166 -0.053742 -3.261899 0
M  V30 10 C -0.803332 0.903992 -2.264549 0
M  V30 11 C -0.263132 0.184765 -1.200095 0
M  V30 12 C 0.099203 0.503654 0.110481 0
M  V30 13 C 1.467226 1.129805 2.495153 0
M  V30 14 C 1.857985 1.568514 3.753620 0
M  V30 15 N 1.771114 0.698312 4.771979 0
M  V30 16 H 1.270896 -1.226439 5.455133 0
M  V30 17 H 0.558045 -2.045248 3.181385 0
M  V30 18 H 1.218677 -2.517986 1.177403 0
M  V30 19 H 0.579579 -3.143062 -1.182206 0
M  V30 20 H -1.295927 0.191718 -4.254256 0
M  V30 21 H -1.051796 1.960852 -2.215021 0
M  V30 22 H -0.038713 1.525711 0.462149 0
M  V30 23 H 1.549206 1.849712 1.703235 0
M  V30 24 H 2.216606 2.579231 3.889908 0
M  V30 END ATOM
M  V30 BEGIN BOND
M  V30 1 2 1 2
M  V30 2 1 2 3
M  V30 3 1 3 4
M  V30 4 2 4 5
M  V30 5 1 5 6
M  V30 6 2 6 7
M  V30 7 1 7 8
M  V30 8 1 8 9
M  V30 9 2 9 10
M  V30 10 1 10 11
M  V30 11 2 11 12
M  V30 12 2 3 13
M  V30 13 1 13 14
M  V30 14 2 14 15
M  V30 15 1 15 1
M  V30 16 1 12 4
M  V30 17 1 11 7
M  V30 18 1 1 16
M  V30 19 1 2 17
M  V30 20 1 5 18
M  V30 21 1 6 19
M  V30 22 1 9 20
M  V30 23 1 10 21
M  V30 24 1 12 22
M  V30 25 1 13 23
M  V30 26 1 14 24
M  V30 END BOND
M  V30 END CTAB
M  END
>  <Dataset>  (263) 
ChEMBL_Kinases

>  <Ligand_Instance>  (263) 
nan

>  <PDB_ID>  (263) 
nan

>  <Standardized_SMILES>  (263) 
c1cc(-c2ccc3occc3c2)ccn1

>  <Name>  (263) 
nan

>  <Pocket>  (263) 
nan

>  <ATP_Site>  (263) 
nan

>  <Peripheral>  (263) 
nan

>  <Num_H_Atoms_ProtBoundConf>  (263) 
nan

>  <Num_Resolved_Atoms>  (263) 
nan

>  <Num_Not_Resolved_Atoms>  (263) 
nan

$$$$
CHEMBL5080054
     RDKit          3D

  0  0  0  0  0  0  0  0  0  0999 V3000
M  V30 BEGIN CTAB
M  V30 COUNTS 57 61 0 0 0
M  V30 BEGIN ATOM
M  V30 1 C 0.226113 -4.875401 1.949063 0
M  V30 2 C 1.186392 -3.746916 1.895453 0
M  V30 3 C 1.366697 -2.881217 2.980429 0
M  V30 4 C 2.268573 -1.842492 2.901701 0
M  V30 5 C 3.011858 -1.632434 1.757051 0
M  V30 6 S 4.140433 -0.336687 1.692215 0
M  V30 7 O 5.422124 -0.742951 0.977250 0
M  V30 8 O 4.587761 -0.045571 3.118729 0
M  V30 9 N 3.576441 1.124807 1.053876 0
M  V30 10 C 3.132876 1.099831 -0.305206 0
M  V30 11 C 2.694967 2.509038 -0.643025 0
M  V30 12 N 1.610202 2.934560 0.208488 0
M  V30 13 C 0.289069 2.410914 0.189085 0
M  V30 14 N -0.652402 2.894464 1.051102 0
M  V30 15 C -1.916056 2.439135 1.035138 0
M  V30 16 C -2.325195 1.463438 0.150327 0
M  V30 17 C -1.366353 0.981205 -0.715580 0
M  V30 18 C -1.785421 -0.031294 -1.672704 0
M  V30 19 C -2.411319 -1.160710 -1.199858 0
M  V30 20 C -2.823164 -1.662140 0.100524 0
M  V30 21 C -4.207860 -1.829659 0.235379 0
M  V30 22 C -4.813353 -2.291681 1.385038 0
M  V30 23 C -4.018413 -2.607299 2.462315 0
M  V30 24 C -2.656093 -2.442015 2.328865 0
M  V30 25 O -1.872369 -2.765339 3.426832 0
M  V30 26 C -2.037582 -1.983595 1.192680 0
M  V30 27 N -2.684794 -1.934088 -2.262349 0
M  V30 28 C -2.231467 -1.286155 -3.381595 0
M  V30 29 S -2.044479 -1.317494 -5.204401 0
M  V30 30 C -1.184483 0.368400 -5.251332 0
M  V30 31 C -1.155675 0.716953 -3.921092 0
M  V30 32 N -1.672736 -0.102165 -3.007736 0
M  V30 33 N -0.085294 1.456900 -0.683647 0
M  V30 34 C 2.873409 -2.460717 0.648748 0
M  V30 35 C 1.957688 -3.481689 0.784898 0
M  V30 36 H -0.193028 -4.897963 2.994917 0
M  V30 37 H 0.714544 -5.847806 1.730541 0
M  V30 38 H -0.585663 -4.626248 1.245913 0
M  V30 39 H 0.807516 -3.012788 3.895084 0
M  V30 40 H 2.396701 -1.179680 3.752623 0
M  V30 41 H 2.989757 1.708205 1.657614 0
M  V30 42 H 2.357949 0.356300 -0.506833 0
M  V30 43 H 3.977554 0.858839 -0.986641 0
M  V30 44 H 3.537007 3.222755 -0.598128 0
M  V30 45 H 2.336276 2.562066 -1.717378 0
M  V30 46 H 1.823076 3.702412 0.905214 0
M  V30 47 H -2.525004 2.921497 1.772747 0
M  V30 48 H -3.357626 1.146490 0.195273 0
M  V30 49 H -4.901159 -1.603212 -0.566262 0
M  V30 50 H -5.884481 -2.413000 1.466098 0
M  V30 51 H -4.428669 -2.979062 3.405839 0
M  V30 52 H -2.136731 -3.515523 4.049089 0
M  V30 53 H -0.982630 -1.840050 1.046198 0
M  V30 54 H -0.899604 0.722943 -6.199947 0
M  V30 55 H -0.678909 1.677135 -3.830208 0
M  V30 56 H 3.453099 -2.284245 -0.223757 0
M  V30 57 H 1.841946 -4.132753 -0.073568 0
M  V30 END ATOM
M  V30 BEGIN BOND
M  V30 1 1 1 2
M  V30 2 2 2 3
M  V30 3 1 3 4
M  V30 4 2 4 5
M  V30 5 1 5 6
M  V30 6 2 6 7
M  V30 7 2 6 8
M  V30 8 1 6 9
M  V30 9 1 9 10
M  V30 10 1 10 11
M  V30 11 1 11 12
M  V30 12 1 12 13
M  V30 13 2 13 14
M  V30 14 1 14 15
M  V30 15 2 15 16
M  V30 16 1 16 17
M  V30 17 1 17 18
M  V30 18 2 18 19
M  V30 19 1 19 20
M  V30 20 2 20 21
M  V30 21 1 21 22
M  V30 22 2 22 23
M  V30 23 1 23 24
M  V30 24 1 24 25
M  V30 25 2 24 26
M  V30 26 1 19 27
M  V30 27 2 27 28
M  V30 28 1 28 29
M  V30 29 1 29 30
M  V30 30 2 30 31
M  V30 31 1 31 32
M  V30 32 2 17 33
M  V30 33 1 5 34
M  V30 34 2 34 35
M  V30 35 1 35 2
M  V30 36 1 33 13
M  V30 37 1 32 18
M  V30 38 1 26 20
M  V30 39 1 32 28
M  V30 40 1 1 36
M  V30 41 1 1 37
M  V30 42 1 1 38
M  V30 43 1 3 39
M  V30 44 1 4 40
M  V30 45 1 9 41
M  V30 46 1 10 42
M  V30 47 1 10 43
M  V30 48 1 11 44
M  V30 49 1 11 45
M  V30 50 1 12 46
M  V30 51 1 15 47
M  V30 52 1 16 48
M  V30 53 1 21 49
M  V30 54 1 22 50
M  V30 55 1 23 51
M  V30 56 1 25 52
M  V30 57 1 26 53
M  V30 58 1 30 54
M  V30 59 1 31 55
M  V30 60 1 34 56
M  V30 61 1 35 57
M  V30 END BOND
M  V30 END CTAB
M  END
>  <Dataset>  (264) 
ChEMBL_Kinases

>  <Ligand_Instance>  (264) 
nan

>  <PDB_ID>  (264) 
nan

>  <Standardized_SMILES>  (264) 
Cc1ccc(S(=O)(=O)NCCNc2nccc(-c3c(-c4cccc(O)c4)nc4sccn34)n2)cc1

>  <Name>  (264) 
nan

>  <Pocket>  (264) 
nan

>  <ATP_Site>  (264) 
nan

>  <Peripheral>  (264) 
nan

>  <Num_H_Atoms_ProtBoundConf>  (264) 
nan

>  <Num_Resolved_Atoms>  (264) 
nan

>  <Num_Not_Resolved_Atoms>  (264) 
nan

$$$$
CHEMBL5080055
     RDKit          3D

  0  0  0  0  0  0  0  0  0  0999 V3000
M  V30 BEGIN CTAB
M  V30 COUNTS 51 54 0 0 0
M  V30 BEGIN ATOM
M  V30 1 C 4.372142 -2.196622 4.207081 0
M  V30 2 O 3.898146 -1.061598 3.508124 0
M  V30 3 C 4.469554 -0.811993 2.246062 0
M  V30 4 C 5.444956 -1.627703 1.707838 0
M  V30 5 C 5.950831 -1.302433 0.454902 0
M  V30 6 C 5.438575 -0.182230 -0.162624 0
M  V30 7 C 4.466075 0.651192 0.347897 0
M  V30 8 C 3.959088 0.320828 1.609108 0
M  V30 9 C 2.927619 1.152914 2.217185 0
M  V30 10 C 3.009529 2.251430 3.046465 0
M  V30 11 N 1.751144 2.662944 3.334863 0
M  V30 12 C 0.836377 1.870442 2.721814 0
M  V30 13 N -0.509699 1.873422 2.700811 0
M  V30 14 C -1.174709 0.940472 1.986290 0
M  V30 15 C -0.490235 -0.039438 1.259498 0
M  V30 16 C -1.184467 -1.058193 0.480839 0
M  V30 17 C -0.653225 -2.314619 0.299015 0
M  V30 18 C -1.336167 -3.251739 -0.440518 0
M  V30 19 C -2.575067 -2.937784 -1.014256 0
M  V30 20 N -3.165671 -3.996959 -1.749023 0
M  V30 21 C -3.149568 -1.696892 -0.862626 0
M  V30 22 C -4.431334 -1.448793 -1.487212 0
M  V30 23 O -4.869541 -2.460483 -2.135187 0
M  V30 24 N -5.253753 -0.298279 -1.495020 0
M  V30 25 C -5.037559 0.998300 -0.855818 0
M  V30 26 C -6.514095 -0.391512 -2.249934 0
M  V30 27 C -2.403948 -0.819015 -0.110546 0
M  V30 28 C 0.889620 -0.019638 1.298198 0
M  V30 29 C 1.575433 0.939339 2.032845 0
M  V30 30 H 4.301024 -3.114334 3.564861 0
M  V30 31 H 3.794090 -2.359573 5.141103 0
M  V30 32 H 5.434969 -2.059064 4.552700 0
M  V30 33 H 5.794877 -2.490630 2.257720 0
M  V30 34 H 6.718943 -1.910037 -0.014206 0
M  V30 35 H 5.813092 0.106000 -1.152380 0
M  V30 36 H 4.107420 1.515478 -0.187951 0
M  V30 37 H 3.951279 2.661387 3.371605 0
M  V30 38 H 1.566528 3.486273 3.952194 0
M  V30 39 H -2.249737 0.859639 1.906861 0
M  V30 40 H 0.290396 -2.576875 0.727035 0
M  V30 41 H -0.889434 -4.223413 -0.560927 0
M  V30 42 H -2.874244 -4.533194 -2.594769 0
M  V30 43 H -2.818554 -4.507950 -2.610649 0
M  V30 44 H -5.932544 1.660636 -1.043225 0
M  V30 45 H -4.171428 1.545296 -1.264348 0
M  V30 46 H -5.013949 0.885611 0.254072 0
M  V30 47 H -7.294753 0.266466 -1.787618 0
M  V30 48 H -6.300956 -0.031355 -3.268785 0
M  V30 49 H -6.848848 -1.446629 -2.202562 0
M  V30 50 H -2.785672 0.172715 0.052390 0
M  V30 51 H 1.415157 -0.778513 0.735467 0
M  V30 END ATOM
M  V30 BEGIN BOND
M  V30 1 1 1 2
M  V30 2 1 2 3
M  V30 3 2 3 4
M  V30 4 1 4 5
M  V30 5 2 5 6
M  V30 6 1 6 7
M  V30 7 2 7 8
M  V30 8 1 8 9
M  V30 9 2 9 10
M  V30 10 1 10 11
M  V30 11 1 11 12
M  V30 12 2 12 13
M  V30 13 1 13 14
M  V30 14 2 14 15
M  V30 15 1 15 16
M  V30 16 2 16 17
M  V30 17 1 17 18
M  V30 18 2 18 19
M  V30 19 1 19 20
M  V30 20 1 19 21
M  V30 21 1 21 22
M  V30 22 2 22 23
M  V30 23 1 22 24
M  V30 24 1 24 25
M  V30 25 1 24 26
M  V30 26 2 21 27
M  V30 27 1 15 28
M  V30 28 2 28 29
M  V30 29 1 8 3
M  V30 30 1 29 9
M  V30 31 1 29 12
M  V30 32 1 27 16
M  V30 33 1 1 30
M  V30 34 1 1 31
M  V30 35 1 1 32
M  V30 36 1 4 33
M  V30 37 1 5 34
M  V30 38 1 6 35
M  V30 39 1 7 36
M  V30 40 1 10 37
M  V30 41 1 11 38
M  V30 42 1 14 39
M  V30 43 1 17 40
M  V30 44 1 18 41
M  V30 45 1 20 42
M  V30 46 1 20 43
M  V30 47 1 25 44
M  V30 48 1 25 45
M  V30 49 1 25 46
M  V30 50 1 26 47
M  V30 51 1 26 48
M  V30 52 1 26 49
M  V30 53 1 27 50
M  V30 54 1 28 51
M  V30 END BOND
M  V30 END CTAB
M  END
>  <Dataset>  (265) 
ChEMBL_Kinases

>  <Ligand_Instance>  (265) 
nan

>  <PDB_ID>  (265) 
nan

>  <Standardized_SMILES>  (265) 
COc1ccccc1-c1c[nH]c2ncc(-c3ccc(N)c(C(=O)N(C)C)c3)cc12

>  <Name>  (265) 
nan

>  <Pocket>  (265) 
nan

>  <ATP_Site>  (265) 
nan

>  <Peripheral>  (265) 
nan

>  <Num_H_Atoms_ProtBoundConf>  (265) 
nan

>  <Num_Resolved_Atoms>  (265) 
nan

>  <Num_Not_Resolved_Atoms>  (265) 
nan

$$$$
CHEMBL5080798
     RDKit          3D

  0  0  0  0  0  0  0  0  0  0999 V3000
M  V30 BEGIN CTAB
M  V30 COUNTS 52 55 0 0 0
M  V30 BEGIN ATOM
M  V30 1 N 6.148292 -2.064731 4.053614 0
M  V30 2 C 5.867104 -1.385373 5.250773 0
M  V30 3 C 4.522584 -1.786221 5.812878 0
M  V30 4 N 3.460527 -1.484528 4.876063 0
M  V30 5 C 2.139130 -1.813378 5.283107 0
M  V30 6 O 2.010478 -2.336590 6.419768 0
M  V30 7 C 0.943829 -1.585630 4.478282 0
M  V30 8 C -0.255886 -1.969105 5.039257 0
M  V30 9 C -1.436161 -1.775926 4.315357 0
M  V30 10 C -1.412727 -1.212733 3.061585 0
M  V30 11 C -0.182947 -0.843239 2.539307 0
M  V30 12 C 1.021388 -1.016084 3.223661 0
M  V30 13 C 0.089514 -0.225827 1.225831 0
M  V30 14 O 1.163483 0.377197 1.096184 0
M  V30 15 C -0.843110 -0.294657 0.084303 0
M  V30 16 C -0.299984 0.387871 -0.983936 0
M  V30 17 C -0.988980 0.466747 -2.177839 0
M  V30 18 C -2.212536 -0.162023 -2.223592 0
M  V30 19 N -2.957425 -0.108635 -3.432006 0
M  V30 20 C -2.633475 0.496323 -4.669700 0
M  V30 21 C -3.348682 1.487531 -5.286139 0
M  V30 22 C -2.905092 1.983513 -6.504965 0
M  V30 23 C -1.752105 1.506023 -7.126343 0
M  V30 24 F -1.376714 2.032343 -8.311500 0
M  V30 25 C -1.046308 0.494085 -6.469359 0
M  V30 26 C -1.485334 -0.008581 -5.246092 0
M  V30 27 F -0.644261 -0.972388 -4.813773 0
M  V30 28 C -2.793773 -0.850929 -1.192339 0
M  V30 29 C -2.091683 -0.923302 0.002677 0
M  V30 30 C -2.809705 -1.691289 1.051645 0
M  V30 31 C -2.750650 -1.071757 2.415416 0
M  V30 32 H 5.440953 -2.702386 3.679434 0
M  V30 33 H 6.783707 -1.625394 3.384042 0
M  V30 34 H 5.846726 -0.295282 5.032752 0
M  V30 35 H 6.644543 -1.511641 6.030643 0
M  V30 36 H 4.483634 -2.824775 6.135842 0
M  V30 37 H 4.364474 -1.142823 6.726095 0
M  V30 38 H 3.596220 -1.052277 3.944405 0
M  V30 39 H -0.346471 -2.419732 6.024768 0
M  V30 40 H -2.393352 -2.074411 4.746221 0
M  V30 41 H 1.948734 -0.719484 2.789488 0
M  V30 42 H 0.673438 0.873785 -0.908858 0
M  V30 43 H -0.531572 1.008489 -2.986901 0
M  V30 44 H -3.896247 -0.532391 -3.576719 0
M  V30 45 H -4.239736 1.848681 -4.794613 0
M  V30 46 H -3.476478 2.779310 -7.003054 0
M  V30 47 H -0.168134 0.191217 -7.030255 0
M  V30 48 H -3.768358 -1.326478 -1.297032 0
M  V30 49 H -3.887225 -1.718427 0.764890 0
M  V30 50 H -2.357486 -2.702851 1.086628 0
M  V30 51 H -3.002390 0.000354 2.400336 0
M  V30 52 H -3.489427 -1.598734 3.043452 0
M  V30 END ATOM
M  V30 BEGIN BOND
M  V30 1 1 1 2
M  V30 2 1 2 3
M  V30 3 1 3 4
M  V30 4 1 4 5
M  V30 5 2 5 6
M  V30 6 1 5 7
M  V30 7 2 7 8
M  V30 8 1 8 9
M  V30 9 2 9 10
M  V30 10 1 10 11
M  V30 11 2 11 12
M  V30 12 1 11 13
M  V30 13 2 13 14
M  V30 14 1 13 15
M  V30 15 2 15 16
M  V30 16 1 16 17
M  V30 17 2 17 18
M  V30 18 1 18 19
M  V30 19 1 19 20
M  V30 20 2 20 21
M  V30 21 1 21 22
M  V30 22 2 22 23
M  V30 23 1 23 24
M  V30 24 1 23 25
M  V30 25 2 25 26
M  V30 26 1 26 27
M  V30 27 1 18 28
M  V30 28 2 28 29
M  V30 29 1 29 30
M  V30 30 1 30 31
M  V30 31 1 12 7
M  V30 32 1 29 15
M  V30 33 1 31 10
M  V30 34 1 26 20
M  V30 35 1 1 32
M  V30 36 1 1 33
M  V30 37 1 2 34
M  V30 38 1 2 35
M  V30 39 1 3 36
M  V30 40 1 3 37
M  V30 41 1 4 38
M  V30 42 1 8 39
M  V30 43 1 9 40
M  V30 44 1 12 41
M  V30 45 1 16 42
M  V30 46 1 17 43
M  V30 47 1 19 44
M  V30 48 1 21 45
M  V30 49 1 22 46
M  V30 50 1 25 47
M  V30 51 1 28 48
M  V30 52 1 30 49
M  V30 53 1 30 50
M  V30 54 1 31 51
M  V30 55 1 31 52
M  V30 END BOND
M  V30 END CTAB
M  END
>  <Dataset>  (266) 
ChEMBL_Kinases

>  <Ligand_Instance>  (266) 
nan

>  <PDB_ID>  (266) 
nan

>  <Standardized_SMILES>  (266) 
NCCNC(=O)c1ccc2c(c1)C(=O)c1ccc(Nc3ccc(F)cc3F)cc1CC2

>  <Name>  (266) 
nan

>  <Pocket>  (266) 
nan

>  <ATP_Site>  (266) 
nan

>  <Peripheral>  (266) 
nan

>  <Num_H_Atoms_ProtBoundConf>  (266) 
nan

>  <Num_Resolved_Atoms>  (266) 
nan

>  <Num_Not_Resolved_Atoms>  (266) 
nan

$$$$
CHEMBL5080346
     RDKit          3D

  0  0  0  0  0  0  0  0  0  0999 V3000
M  V30 BEGIN CTAB
M  V30 COUNTS 60 64 0 0 0
M  V30 BEGIN ATOM
M  V30 1 C -1.179259 -2.916645 2.923698 0
M  V30 2 C -0.179424 -1.852308 3.069107 0
M  V30 3 C 0.417284 -1.586044 4.284189 0
M  V30 4 N 1.328226 -0.608919 4.402724 0
M  V30 5 C 1.687595 0.139687 3.344734 0
M  V30 6 N 2.660229 1.170374 3.510236 0
M  V30 7 C 2.222299 2.473899 3.856575 0
M  V30 8 O 0.972271 2.558344 3.979410 0
M  V30 9 C 3.165573 3.572560 4.040669 0
M  V30 10 C 4.536791 3.483698 3.905876 0
M  V30 11 C 5.308574 4.610493 4.111023 0
M  V30 12 N 4.805367 5.813918 4.440057 0
M  V30 13 C 3.478364 5.940274 4.580139 0
M  V30 14 C 2.790325 7.208249 4.939892 0
M  V30 15 F 1.698966 6.883034 5.748162 0
M  V30 16 F 2.379068 7.859105 3.787116 0
M  V30 17 F 3.591578 8.051149 5.692727 0
M  V30 18 C 2.671319 4.816946 4.378753 0
M  V30 19 C 1.093275 -0.122942 2.126646 0
M  V30 20 C 0.141228 -1.124670 1.943168 0
M  V30 21 C -0.417886 -1.311683 0.604291 0
M  V30 22 C -0.784047 -0.101022 0.001679 0
M  V30 23 C -1.332409 -0.035807 -1.263638 0
M  V30 24 C -1.527509 -1.207742 -1.961919 0
M  V30 25 C -1.167943 -2.402507 -1.371428 0
M  V30 26 C -0.619228 -2.476502 -0.107195 0
M  V30 27 O -1.265998 -3.695505 -1.868487 0
M  V30 28 C -1.864211 -4.185834 -3.055364 0
M  V30 29 C -3.381508 -4.134787 -3.000793 0
M  V30 30 C -4.014275 -5.313387 -3.665904 0
M  V30 31 O -3.300364 -5.771866 -4.763850 0
M  V30 32 C -2.025634 -6.178954 -4.472781 0
M  V30 33 C -1.460297 -5.630275 -3.202456 0
M  V30 34 C -1.455552 -3.372945 -4.282131 0
M  V30 35 C -2.198065 -2.080850 -4.292517 0
M  V30 36 O -2.992174 -1.761087 -5.236552 0
M  V30 37 N -2.098400 -1.090823 -3.269171 0
M  V30 38 H -1.900049 -2.718959 2.100923 0
M  V30 39 H -1.745296 -3.006737 3.884110 0
M  V30 40 H -0.704683 -3.888907 2.718122 0
M  V30 41 H 0.134698 -2.185061 5.147442 0
M  V30 42 H 3.666003 0.945736 3.374117 0
M  V30 43 H 4.942529 2.515848 3.641114 0
M  V30 44 H 6.393701 4.499085 3.994599 0
M  V30 45 H 1.580843 4.920907 4.493901 0
M  V30 46 H 1.425644 0.514517 1.315260 0
M  V30 47 H -0.665339 0.880983 0.482302 0
M  V30 48 H -1.621453 0.874784 -1.748663 0
M  V30 49 H -0.315749 -3.347647 0.416950 0
M  V30 50 H -3.776086 -3.210311 -3.466131 0
M  V30 51 H -3.733521 -4.138691 -1.930451 0
M  V30 52 H -4.223411 -6.149762 -2.941377 0
M  V30 53 H -5.015618 -5.005950 -4.032838 0
M  V30 54 H -2.039688 -7.302612 -4.386413 0
M  V30 55 H -1.370689 -5.982873 -5.353494 0
M  V30 56 H -1.944016 -6.174265 -2.348245 0
M  V30 57 H -0.377744 -5.784952 -3.173139 0
M  V30 58 H -1.579084 -3.955521 -5.194745 0
M  V30 59 H -0.382025 -3.131363 -4.144004 0
M  V30 60 H -2.476440 -0.131837 -3.441152 0
M  V30 END ATOM
M  V30 BEGIN BOND
M  V30 1 1 1 2
M  V30 2 2 2 3
M  V30 3 1 3 4
M  V30 4 2 4 5
M  V30 5 1 5 6
M  V30 6 1 6 7
M  V30 7 2 7 8
M  V30 8 1 7 9
M  V30 9 2 9 10
M  V30 10 1 10 11
M  V30 11 2 11 12
M  V30 12 1 12 13
M  V30 13 1 13 14
M  V30 14 1 14 15
M  V30 15 1 14 16
M  V30 16 1 14 17
M  V30 17 2 13 18
M  V30 18 1 5 19
M  V30 19 2 19 20
M  V30 20 1 20 21
M  V30 21 2 21 22
M  V30 22 1 22 23
M  V30 23 2 23 24
M  V30 24 1 24 25
M  V30 25 2 25 26
M  V30 26 1 25 27
M  V30 27 1 27 28
M  V30 28 1 28 29
M  V30 29 1 29 30
M  V30 30 1 30 31
M  V30 31 1 31 32
M  V30 32 1 32 33
M  V30 33 1 28 34
M  V30 34 1 34 35
M  V30 35 2 35 36
M  V30 36 1 35 37
M  V30 37 1 20 2
M  V30 38 1 26 21
M  V30 39 1 33 28
M  V30 40 1 18 9
M  V30 41 1 37 24
M  V30 42 1 1 38
M  V30 43 1 1 39
M  V30 44 1 1 40
M  V30 45 1 3 41
M  V30 46 1 6 42
M  V30 47 1 10 43
M  V30 48 1 11 44
M  V30 49 1 18 45
M  V30 50 1 19 46
M  V30 51 1 22 47
M  V30 52 1 23 48
M  V30 53 1 26 49
M  V30 54 1 29 50
M  V30 55 1 29 51
M  V30 56 1 30 52
M  V30 57 1 30 53
M  V30 58 1 32 54
M  V30 59 1 32 55
M  V30 60 1 33 56
M  V30 61 1 33 57
M  V30 62 1 34 58
M  V30 63 1 34 59
M  V30 64 1 37 60
M  V30 END BOND
M  V30 END CTAB
M  END
>  <Dataset>  (267) 
ChEMBL_Kinases

>  <Ligand_Instance>  (267) 
nan

>  <PDB_ID>  (267) 
nan

>  <Standardized_SMILES>  (267) 
Cc1cnc(NC(=O)c2ccnc(C(F)(F)F)c2)cc1-c1ccc2c(c1)OC1(CCOCC1)CC(=O)N2

>  <Name>  (267) 
nan

>  <Pocket>  (267) 
nan

>  <ATP_Site>  (267) 
nan

>  <Peripheral>  (267) 
nan

>  <Num_H_Atoms_ProtBoundConf>  (267) 
nan

>  <Num_Resolved_Atoms>  (267) 
nan

>  <Num_Not_Resolved_Atoms>  (267) 
nan

$$$$
CHEMBL5080423
     RDKit          3D

  0  0  0  0  0  0  0  0  0  0999 V3000
M  V30 BEGIN CTAB
M  V30 COUNTS 61 66 0 0 0
M  V30 BEGIN ATOM
M  V30 1 O 2.176889 3.653768 1.188171 0
M  V30 2 C 1.333734 2.785063 1.528864 0
M  V30 3 N 0.844574 2.893672 2.850080 0
M  V30 4 C 1.368973 3.997566 3.671998 0
M  V30 5 C 2.491297 3.669873 4.590069 0
M  V30 6 C 2.607990 2.327808 4.965614 0
M  V30 7 C 3.612134 1.873434 5.819500 0
M  V30 8 C 4.535506 2.765423 6.323974 0
M  V30 9 C 4.418312 4.068237 5.956448 0
M  V30 10 C 3.431707 4.520411 5.116264 0
M  V30 11 C 1.184631 5.382545 3.249444 0
M  V30 12 C 0.262746 4.847431 4.286188 0
M  V30 13 C 0.929155 1.759056 0.575079 0
M  V30 14 C 1.514637 1.808629 -0.675294 0
M  V30 15 C 1.160993 0.859200 -1.605288 0
M  V30 16 C 0.248267 -0.145318 -1.355474 0
M  V30 17 C -0.307502 -0.138863 -0.070475 0
M  V30 18 C 0.016997 0.792848 0.893762 0
M  V30 19 C -1.298191 -1.091203 0.453462 0
M  V30 20 O -1.821618 -0.873089 1.574721 0
M  V30 21 C -1.759926 -2.310021 -0.209600 0
M  V30 22 C -2.892508 -2.864894 0.349874 0
M  V30 23 C -3.501027 -4.014711 -0.114242 0
M  V30 24 C -2.914196 -4.621971 -1.207458 0
M  V30 25 N -3.482023 -5.812728 -1.745670 0
M  V30 26 C -3.078344 -6.612169 -2.854631 0
M  V30 27 C -2.714136 -7.942870 -2.828320 0
M  V30 28 C -2.344064 -8.593184 -3.987671 0
M  V30 29 C -2.324413 -7.938988 -5.213279 0
M  V30 30 F -1.951199 -8.616702 -6.345248 0
M  V30 31 C -2.689365 -6.608415 -5.234804 0
M  V30 32 C -3.065413 -5.937128 -4.074429 0
M  V30 33 F -3.386285 -4.637134 -4.316041 0
M  V30 34 C -1.779367 -4.078562 -1.779263 0
M  V30 35 C -1.181191 -2.925129 -1.302285 0
M  V30 36 C 0.026251 -2.522261 -2.068174 0
M  V30 37 C 0.000518 -1.074406 -2.490356 0
M  V30 38 H 0.140219 2.191836 3.178295 0
M  V30 39 H 1.911646 1.576136 4.602062 0
M  V30 40 H 3.658676 0.825208 6.079122 0
M  V30 41 H 5.285311 2.343796 6.979191 0
M  V30 42 H 5.141853 4.766508 6.351890 0
M  V30 43 H 3.345214 5.546479 4.831266 0
M  V30 44 H 1.875473 6.158503 3.586474 0
M  V30 45 H 0.730371 5.638174 2.254767 0
M  V30 46 H -0.770881 4.676385 3.987104 0
M  V30 47 H 0.370903 5.120838 5.354879 0
M  V30 48 H 2.235253 2.521221 -1.020019 0
M  V30 49 H 1.577904 0.831219 -2.611600 0
M  V30 50 H -0.446201 0.744656 1.866643 0
M  V30 51 H -3.327553 -2.351567 1.217172 0
M  V30 52 H -4.391314 -4.397286 0.373569 0
M  V30 53 H -4.329922 -6.226912 -1.313538 0
M  V30 54 H -2.744759 -8.414925 -1.843982 0
M  V30 55 H -2.061135 -9.650519 -3.927567 0
M  V30 56 H -2.648928 -6.169031 -6.223533 0
M  V30 57 H -1.279038 -4.511667 -2.634939 0
M  V30 58 H 0.137703 -3.149350 -2.960755 0
M  V30 59 H 0.881015 -2.628325 -1.359620 0
M  V30 60 H 0.881232 -0.948050 -3.162033 0
M  V30 61 H -0.875404 -0.799161 -3.084921 0
M  V30 END ATOM
M  V30 BEGIN BOND
M  V30 1 2 1 2
M  V30 2 1 2 3
M  V30 3 1 3 4
M  V30 4 1 4 5
M  V30 5 2 5 6
M  V30 6 1 6 7
M  V30 7 2 7 8
M  V30 8 1 8 9
M  V30 9 2 9 10
M  V30 10 1 4 11
M  V30 11 1 11 12
M  V30 12 1 2 13
M  V30 13 2 13 14
M  V30 14 1 14 15
M  V30 15 2 15 16
M  V30 16 1 16 17
M  V30 17 2 17 18
M  V30 18 1 17 19
M  V30 19 2 19 20
M  V30 20 1 19 21
M  V30 21 2 21 22
M  V30 22 1 22 23
M  V30 23 2 23 24
M  V30 24 1 24 25
M  V30 25 1 25 26
M  V30 26 2 26 27
M  V30 27 1 27 28
M  V30 28 2 28 29
M  V30 29 1 29 30
M  V30 30 1 29 31
M  V30 31 2 31 32
M  V30 32 1 32 33
M  V30 33 1 24 34
M  V30 34 2 34 35
M  V30 35 1 35 36
M  V30 36 1 36 37
M  V30 37 1 12 4
M  V30 38 1 18 13
M  V30 39 1 35 21
M  V30 40 1 10 5
M  V30 41 1 37 16
M  V30 42 1 32 26
M  V30 43 1 3 38
M  V30 44 1 6 39
M  V30 45 1 7 40
M  V30 46 1 8 41
M  V30 47 1 9 42
M  V30 48 1 10 43
M  V30 49 1 11 44
M  V30 50 1 11 45
M  V30 51 1 12 46
M  V30 52 1 12 47
M  V30 53 1 14 48
M  V30 54 1 15 49
M  V30 55 1 18 50
M  V30 56 1 22 51
M  V30 57 1 23 52
M  V30 58 1 25 53
M  V30 59 1 27 54
M  V30 60 1 28 55
M  V30 61 1 31 56
M  V30 62 1 34 57
M  V30 63 1 36 58
M  V30 64 1 36 59
M  V30 65 1 37 60
M  V30 66 1 37 61
M  V30 END BOND
M  V30 END CTAB
M  END
>  <Dataset>  (268) 
ChEMBL_Kinases

>  <Ligand_Instance>  (268) 
nan

>  <PDB_ID>  (268) 
nan

>  <Standardized_SMILES>  (268) 
O=C(NC1(c2ccccc2)CC1)c1ccc2c(c1)C(=O)c1ccc(Nc3ccc(F)cc3F)cc1CC2

>  <Name>  (268) 
nan

>  <Pocket>  (268) 
nan

>  <ATP_Site>  (268) 
nan

>  <Peripheral>  (268) 
nan

>  <Num_H_Atoms_ProtBoundConf>  (268) 
nan

>  <Num_Resolved_Atoms>  (268) 
nan

>  <Num_Not_Resolved_Atoms>  (268) 
nan

$$$$
CHEMBL5080463
     RDKit          3D

  0  0  0  0  0  0  0  0  0  0999 V3000
M  V30 BEGIN CTAB
M  V30 COUNTS 61 65 0 0 0
M  V30 BEGIN ATOM
M  V30 1 C -0.086006 2.717179 -0.145635 0
M  V30 2 C 0.615507 1.721651 0.671082 0
M  V30 3 C 1.926024 1.896618 1.041210 0
M  V30 4 C 2.590066 0.964575 1.808141 0
M  V30 5 N 3.944917 1.144806 2.190771 0
M  V30 6 C 4.752133 0.312450 3.059250 0
M  V30 7 C 5.088784 1.144997 4.283309 0
M  V30 8 O 5.679416 2.354351 3.916677 0
M  V30 9 C 5.952710 2.395426 2.551134 0
M  V30 10 C 4.708142 2.273315 1.697551 0
M  V30 11 C 1.854246 -0.142786 2.172138 0
M  V30 12 C 0.532654 -0.346589 1.814138 0
M  V30 13 C -0.099524 0.606919 1.047195 0
M  V30 14 N -1.461836 0.453954 0.659593 0
M  V30 15 C -2.311863 -0.649722 0.950923 0
M  V30 16 N -2.401032 -1.578813 -0.004124 0
M  V30 17 C -3.149370 -2.703160 0.080400 0
M  V30 18 N -3.199896 -3.629596 -0.963300 0
M  V30 19 C -2.439901 -3.347834 -2.149649 0
M  V30 20 C -2.886543 -2.084707 -2.839852 0
M  V30 21 C -1.713432 -1.297976 -3.350589 0
M  V30 22 C -0.764203 -2.168747 -4.129536 0
M  V30 23 C -0.280496 -3.289507 -3.255164 0
M  V30 24 C -0.957856 -3.276529 -1.904511 0
M  V30 25 C -3.832091 -2.809631 1.273888 0
M  V30 26 C -4.675584 -3.791319 1.718463 0
M  V30 27 C -5.109934 -4.995201 1.097784 0
M  V30 28 N -5.486184 -5.993509 0.596324 0
M  V30 29 C -5.119089 -3.450614 2.993231 0
M  V30 30 N -4.560173 -2.276845 3.334286 0
M  V30 31 C -3.776342 -1.881114 2.293281 0
M  V30 32 N -2.998986 -0.800965 2.098251 0
M  V30 33 H -0.885244 3.242571 0.414222 0
M  V30 34 H 0.635051 3.514133 -0.433305 0
M  V30 35 H -0.487908 2.321183 -1.111618 0
M  V30 36 H 2.396459 2.806872 0.692679 0
M  V30 37 H 4.167369 -0.553842 3.398870 0
M  V30 38 H 5.681170 -0.034199 2.551474 0
M  V30 39 H 4.133376 1.393712 4.787167 0
M  V30 40 H 5.711197 0.563756 4.980523 0
M  V30 41 H 6.747048 1.677064 2.276403 0
M  V30 42 H 6.352486 3.412120 2.358536 0
M  V30 43 H 5.063526 1.970747 0.675182 0
M  V30 44 H 4.152929 3.205835 1.616882 0
M  V30 45 H 2.277603 -0.929380 2.769477 0
M  V30 46 H -0.027179 -1.226038 2.112172 0
M  V30 47 H -1.922847 1.202178 0.105632 0
M  V30 48 H -3.760847 -4.501530 -0.905729 0
M  V30 49 H -2.594573 -4.172580 -2.871184 0
M  V30 50 H -3.438324 -1.430901 -2.120711 0
M  V30 51 H -3.584295 -2.309472 -3.689299 0
M  V30 52 H -1.187872 -0.825576 -2.497910 0
M  V30 53 H -2.094726 -0.453564 -3.987633 0
M  V30 54 H -1.352781 -2.548357 -5.017247 0
M  V30 55 H 0.114436 -1.564003 -4.502074 0
M  V30 56 H -0.592147 -4.246648 -3.758190 0
M  V30 57 H 0.824673 -3.316498 -3.167501 0
M  V30 58 H -0.608348 -2.392200 -1.368833 0
M  V30 59 H -0.599977 -4.201604 -1.357413 0
M  V30 60 H -5.801352 -3.996510 3.655078 0
M  V30 61 H -4.680974 -1.738963 4.223124 0
M  V30 END ATOM
M  V30 BEGIN BOND
M  V30 1 1 1 2
M  V30 2 2 2 3
M  V30 3 1 3 4
M  V30 4 1 4 5
M  V30 5 1 5 6
M  V30 6 1 6 7
M  V30 7 1 7 8
M  V30 8 1 8 9
M  V30 9 1 9 10
M  V30 10 2 4 11
M  V30 11 1 11 12
M  V30 12 2 12 13
M  V30 13 1 13 14
M  V30 14 1 14 15
M  V30 15 2 15 16
M  V30 16 1 16 17
M  V30 17 1 17 18
M  V30 18 1 18 19
M  V30 19 1 19 20
M  V30 20 1 20 21
M  V30 21 1 21 22
M  V30 22 1 22 23
M  V30 23 1 23 24
M  V30 24 2 17 25
M  V30 25 1 25 26
M  V30 26 1 26 27
M  V30 27 3 27 28
M  V30 28 2 26 29
M  V30 29 1 29 30
M  V30 30 1 30 31
M  V30 31 2 31 32
M  V30 32 1 13 2
M  V30 33 1 32 15
M  V30 34 1 10 5
M  V30 35 1 24 19
M  V30 36 1 31 25
M  V30 37 1 1 33
M  V30 38 1 1 34
M  V30 39 1 1 35
M  V30 40 1 3 36
M  V30 41 1 6 37
M  V30 42 1 6 38
M  V30 43 1 7 39
M  V30 44 1 7 40
M  V30 45 1 9 41
M  V30 46 1 9 42
M  V30 47 1 10 43
M  V30 48 1 10 44
M  V30 49 1 11 45
M  V30 50 1 12 46
M  V30 51 1 14 47
M  V30 52 1 18 48
M  V30 53 1 19 49
M  V30 54 1 20 50
M  V30 55 1 20 51
M  V30 56 1 21 52
M  V30 57 1 21 53
M  V30 58 1 22 54
M  V30 59 1 22 55
M  V30 60 1 23 56
M  V30 61 1 23 57
M  V30 62 1 24 58
M  V30 63 1 24 59
M  V30 64 1 29 60
M  V30 65 1 30 61
M  V30 END BOND
M  V30 END CTAB
M  END
>  <Dataset>  (269) 
ChEMBL_Kinases

>  <Ligand_Instance>  (269) 
nan

>  <PDB_ID>  (269) 
nan

>  <Standardized_SMILES>  (269) 
Cc1cc(N2CCOCC2)ccc1Nc1nc(NC2CCCCC2)c2c(C#N)c[nH]c2n1

>  <Name>  (269) 
nan

>  <Pocket>  (269) 
nan

>  <ATP_Site>  (269) 
nan

>  <Peripheral>  (269) 
nan

>  <Num_H_Atoms_ProtBoundConf>  (269) 
nan

>  <Num_Resolved_Atoms>  (269) 
nan

>  <Num_Not_Resolved_Atoms>  (269) 
nan

$$$$
CHEMBL5080510
     RDKit          3D

  0  0  0  0  0  0  0  0  0  0999 V3000
M  V30 BEGIN CTAB
M  V30 COUNTS 58 61 0 0 0
M  V30 BEGIN ATOM
M  V30 1 C 3.571591 -4.467160 4.949992 0
M  V30 2 O 3.250749 -4.191723 3.608040 0
M  V30 3 C 3.174237 -2.899320 3.100359 0
M  V30 4 C 3.409019 -1.785895 3.881155 0
M  V30 5 C 3.320695 -0.522973 3.330162 0
M  V30 6 N 3.551306 0.561480 4.098597 0
M  V30 7 C 3.454150 1.789262 3.517299 0
M  V30 8 N 3.138509 1.905358 2.220837 0
M  V30 9 C 2.894520 0.878121 1.389445 0
M  V30 10 N 2.569057 1.107601 0.023456 0
M  V30 11 C 2.498010 2.456144 -0.461001 0
M  V30 12 C 1.456603 3.314257 0.202616 0
M  V30 13 C 0.092507 2.796766 0.050337 0
M  V30 14 C -0.458714 1.914354 0.980556 0
M  V30 15 C -1.753995 1.430536 0.824786 0
M  V30 16 C -2.515865 1.814433 -0.251494 0
M  V30 17 N -3.839206 1.242722 -0.296614 0
M  V30 18 C -3.933224 0.001131 -0.996639 0
M  V30 19 O -2.863906 -0.451132 -1.490619 0
M  V30 20 N -5.095476 -0.797626 -1.208390 0
M  V30 21 C -4.944320 -2.021030 -1.950950 0
M  V30 22 C -5.056992 -2.198007 -3.314440 0
M  V30 23 C -4.873244 -3.466485 -3.832008 0
M  V30 24 C -4.581072 -4.554172 -3.019034 0
M  V30 25 C -4.469785 -4.365424 -1.647756 0
M  V30 26 C -4.653090 -3.101428 -1.133951 0
M  V30 27 C -1.995509 2.687208 -1.188210 0
M  V30 28 C -0.709125 3.169268 -1.035813 0
M  V30 29 C 2.998966 -0.352921 2.000796 0
M  V30 30 C 2.767563 -1.475495 1.235088 0
M  V30 31 C 2.850967 -2.744462 1.767078 0
M  V30 32 O 2.617159 -3.872362 0.992431 0
M  V30 33 C 2.286694 -3.751963 -0.364711 0
M  V30 34 H 4.408080 -3.771534 5.244372 0
M  V30 35 H 2.737995 -4.296620 5.648598 0
M  V30 36 H 4.016093 -5.499874 5.032020 0
M  V30 37 H 3.661161 -1.894889 4.919251 0
M  V30 38 H 3.630928 2.699315 4.094323 0
M  V30 39 H 2.374990 0.346855 -0.661755 0
M  V30 40 H 2.284601 2.468987 -1.534024 0
M  V30 41 H 3.490109 2.987304 -0.358992 0
M  V30 42 H 1.454659 4.321756 -0.309676 0
M  V30 43 H 1.752771 3.548671 1.242400 0
M  V30 44 H 0.109862 1.588418 1.841855 0
M  V30 45 H -2.124988 0.750127 1.578302 0
M  V30 46 H -4.755775 1.576847 0.095744 0
M  V30 47 H -5.978047 -0.390404 -0.780988 0
M  V30 48 H -5.283506 -1.305945 -3.858803 0
M  V30 49 H -4.970965 -3.559818 -4.908660 0
M  V30 50 H -4.444784 -5.536049 -3.475133 0
M  V30 51 H -4.239362 -5.252633 -1.058352 0
M  V30 52 H -4.540760 -3.079145 -0.046023 0
M  V30 53 H -2.647551 2.943183 -2.002409 0
M  V30 54 H -0.344207 3.851255 -1.795710 0
M  V30 55 H 2.512695 -1.432156 0.196081 0
M  V30 56 H 1.951351 -4.718996 -0.772828 0
M  V30 57 H 1.417834 -3.042232 -0.430189 0
M  V30 58 H 3.112641 -3.389339 -0.993536 0
M  V30 END ATOM
M  V30 BEGIN BOND
M  V30 1 1 1 2
M  V30 2 1 2 3
M  V30 3 2 3 4
M  V30 4 1 4 5
M  V30 5 2 5 6
M  V30 6 1 6 7
M  V30 7 2 7 8
M  V30 8 1 8 9
M  V30 9 1 9 10
M  V30 10 1 10 11
M  V30 11 1 11 12
M  V30 12 1 12 13
M  V30 13 2 13 14
M  V30 14 1 14 15
M  V30 15 2 15 16
M  V30 16 1 16 17
M  V30 17 1 17 18
M  V30 18 2 18 19
M  V30 19 1 18 20
M  V30 20 1 20 21
M  V30 21 2 21 22
M  V30 22 1 22 23
M  V30 23 2 23 24
M  V30 24 1 24 25
M  V30 25 2 25 26
M  V30 26 1 16 27
M  V30 27 2 27 28
M  V30 28 2 9 29
M  V30 29 1 29 30
M  V30 30 2 30 31
M  V30 31 1 31 32
M  V30 32 1 32 33
M  V30 33 1 31 3
M  V30 34 1 29 5
M  V30 35 1 28 13
M  V30 36 1 26 21
M  V30 37 1 1 34
M  V30 38 1 1 35
M  V30 39 1 1 36
M  V30 40 1 4 37
M  V30 41 1 7 38
M  V30 42 1 10 39
M  V30 43 1 11 40
M  V30 44 1 11 41
M  V30 45 1 12 42
M  V30 46 1 12 43
M  V30 47 1 14 44
M  V30 48 1 15 45
M  V30 49 1 17 46
M  V30 50 1 20 47
M  V30 51 1 22 48
M  V30 52 1 23 49
M  V30 53 1 24 50
M  V30 54 1 25 51
M  V30 55 1 26 52
M  V30 56 1 27 53
M  V30 57 1 28 54
M  V30 58 1 30 55
M  V30 59 1 33 56
M  V30 60 1 33 57
M  V30 61 1 33 58
M  V30 END BOND
M  V30 END CTAB
M  END
>  <Dataset>  (270) 
ChEMBL_Kinases

>  <Ligand_Instance>  (270) 
nan

>  <PDB_ID>  (270) 
nan

>  <Standardized_SMILES>  (270) 
COc1cc2ncnc(NCCc3ccc(NC(=O)Nc4ccccc4)cc3)c2cc1OC

>  <Name>  (270) 
nan

>  <Pocket>  (270) 
nan

>  <ATP_Site>  (270) 
nan

>  <Peripheral>  (270) 
nan

>  <Num_H_Atoms_ProtBoundConf>  (270) 
nan

>  <Num_Resolved_Atoms>  (270) 
nan

>  <Num_Not_Resolved_Atoms>  (270) 
nan

$$$$
CHEMBL590178
     RDKit          3D

  0  0  0  0  0  0  0  0  0  0999 V3000
M  V30 BEGIN CTAB
M  V30 COUNTS 35 37 0 0 0
M  V30 BEGIN ATOM
M  V30 1 C -1.801969 -1.935050 1.440296 0
M  V30 2 C -1.008816 -2.991392 2.133019 0
M  V30 3 C 0.087317 -3.611185 1.362604 0
M  V30 4 C 1.211945 -2.771055 0.913461 0
M  V30 5 N 0.900530 -1.654200 0.065612 0
M  V30 6 C 0.776164 -1.716140 -1.274883 0
M  V30 7 N 0.902477 -2.914738 -2.039532 0
M  V30 8 C 0.510248 -0.491258 -1.853320 0
M  V30 9 C 0.325580 -0.235668 -3.255005 0
M  V30 10 N 0.186000 -0.019124 -4.386694 0
M  V30 11 C 0.466634 0.395421 -0.795990 0
M  V30 12 N 0.250305 1.710552 -0.797531 0
M  V30 13 C 0.263461 2.374822 0.372488 0
M  V30 14 C 0.038991 3.724040 0.345074 0
M  V30 15 C 0.050390 4.420898 1.547690 0
M  V30 16 C 0.289292 3.700193 2.699448 0
M  V30 17 C 0.513899 2.338087 2.708003 0
M  V30 18 C 0.503876 1.637776 1.513171 0
M  V30 19 N 0.723468 0.312392 1.532602 0
M  V30 20 C 0.705699 -0.332244 0.352490 0
M  V30 21 H -1.691718 -0.931388 1.892779 0
M  V30 22 H -2.914855 -2.170379 1.520865 0
M  V30 23 H -1.657365 -1.926886 0.322152 0
M  V30 24 H -1.713117 -3.823460 2.432564 0
M  V30 25 H -0.593730 -2.621087 3.099297 0
M  V30 26 H -0.379269 -4.157077 0.490970 0
M  V30 27 H 0.526429 -4.431747 2.001902 0
M  V30 28 H 1.975143 -3.382777 0.338705 0
M  V30 29 H 1.781116 -2.454441 1.825765 0
M  V30 30 H 1.772021 -3.512285 -1.982008 0
M  V30 31 H 0.188985 -3.299455 -2.695120 0
M  V30 32 H -0.144386 4.251645 -0.579133 0
M  V30 33 H -0.128686 5.484670 1.506026 0
M  V30 34 H 0.284030 4.306634 3.600932 0
M  V30 35 H 0.694072 1.854450 3.670592 0
M  V30 END ATOM
M  V30 BEGIN BOND
M  V30 1 1 1 2
M  V30 2 1 2 3
M  V30 3 1 3 4
M  V30 4 1 4 5
M  V30 5 1 5 6
M  V30 6 1 6 7
M  V30 7 2 6 8
M  V30 8 1 8 9
M  V30 9 3 9 10
M  V30 10 1 8 11
M  V30 11 2 11 12
M  V30 12 1 12 13
M  V30 13 2 13 14
M  V30 14 1 14 15
M  V30 15 2 15 16
M  V30 16 1 16 17
M  V30 17 2 17 18
M  V30 18 1 18 19
M  V30 19 2 19 20
M  V30 20 1 20 5
M  V30 21 1 20 11
M  V30 22 1 18 13
M  V30 23 1 1 21
M  V30 24 1 1 22
M  V30 25 1 1 23
M  V30 26 1 2 24
M  V30 27 1 2 25
M  V30 28 1 3 26
M  V30 29 1 3 27
M  V30 30 1 4 28
M  V30 31 1 4 29
M  V30 32 1 7 30
M  V30 33 1 7 31
M  V30 34 1 14 32
M  V30 35 1 15 33
M  V30 36 1 16 34
M  V30 37 1 17 35
M  V30 END BOND
M  V30 END CTAB
M  END
>  <Dataset>  (271) 
ChEMBL_Kinases

>  <Ligand_Instance>  (271) 
nan

>  <PDB_ID>  (271) 
nan

>  <Standardized_SMILES>  (271) 
CCCCn1c(N)c(C#N)c2nc3ccccc3nc21

>  <Name>  (271) 
nan

>  <Pocket>  (271) 
nan

>  <ATP_Site>  (271) 
nan

>  <Peripheral>  (271) 
nan

>  <Num_H_Atoms_ProtBoundConf>  (271) 
nan

>  <Num_Resolved_Atoms>  (271) 
nan

>  <Num_Not_Resolved_Atoms>  (271) 
nan

$$$$
CHEMBL5080544
     RDKit          3D

  0  0  0  0  0  0  0  0  0  0999 V3000
M  V30 BEGIN CTAB
M  V30 COUNTS 47 48 0 0 0
M  V30 BEGIN ATOM
M  V30 1 C 3.210786 -4.441046 1.251897 0
M  V30 2 C 1.937559 -3.704092 1.100927 0
M  V30 3 C 1.141671 -4.381780 -0.033455 0
M  V30 4 C 1.999370 -2.236500 0.850304 0
M  V30 5 C 2.639406 -1.388087 1.881770 0 CFG=2
M  V30 6 C 4.108474 -1.738153 2.153457 0
M  V30 7 N 1.884285 -1.608007 3.133304 0
M  V30 8 C 2.656798 0.095195 1.571960 0
M  V30 9 O 1.463499 0.639496 1.419487 0
M  V30 10 C 0.321211 0.707965 0.744124 0
M  V30 11 N -0.313226 0.176760 -0.311827 0
M  V30 12 C -1.532829 0.497296 -0.742488 0
M  V30 13 C -2.238659 1.462597 -0.062211 0
M  V30 14 C -3.559354 1.741793 -0.611134 0
M  V30 15 C -4.574361 2.137946 0.239334 0
M  V30 16 C -5.844110 2.417092 -0.220338 0
M  V30 17 N -6.109448 2.302870 -1.530697 0
M  V30 18 C -5.123472 1.917693 -2.359108 0
M  V30 19 Cl -5.472869 1.768073 -4.079929 0
M  V30 20 C -3.832101 1.624069 -1.960188 0
M  V30 21 C -1.700724 2.089724 1.043810 0
M  V30 22 C -0.405380 1.698462 1.440655 0
M  V30 23 C -0.059642 2.517576 2.647305 0
M  V30 24 F -0.986161 2.204466 3.634992 0
M  V30 25 F -0.130512 3.859207 2.425644 0
M  V30 26 H 3.150310 -5.438147 0.699709 0
M  V30 27 H 4.114481 -3.979323 0.864846 0
M  V30 28 H 3.381521 -4.730635 2.329438 0
M  V30 29 H 1.318668 -3.897494 2.032629 0
M  V30 30 H 1.405063 -5.442322 -0.145982 0
M  V30 31 H 1.341931 -3.898048 -1.004240 0
M  V30 32 H 0.056980 -4.324634 0.154375 0
M  V30 33 H 0.914684 -1.938213 0.685514 0
M  V30 34 H 2.467403 -2.092847 -0.170566 0
M  V30 35 H 4.471409 -0.856569 2.775232 0
M  V30 36 H 4.649992 -1.726242 1.209590 0
M  V30 37 H 4.237459 -2.611679 2.792738 0
M  V30 38 H 2.251490 -0.910297 3.833641 0
M  V30 39 H 2.201341 -2.554165 3.466109 0
M  V30 40 H 3.370476 0.214550 0.687441 0
M  V30 41 H 3.272223 0.563406 2.401068 0
M  V30 42 H -1.850397 -0.059619 -1.617970 0
M  V30 43 H -4.457997 2.258506 1.311092 0
M  V30 44 H -6.689175 2.730719 0.373032 0
M  V30 45 H -3.078606 1.321687 -2.649340 0
M  V30 46 H -2.378347 2.813958 1.455863 0
M  V30 47 H 0.958967 2.252521 3.009782 0
M  V30 END ATOM
M  V30 BEGIN BOND
M  V30 1 1 1 2
M  V30 2 1 2 3
M  V30 3 1 2 4
M  V30 4 1 4 5
M  V30 5 1 5 6
M  V30 6 1 5 7 CFG=1
M  V30 7 1 5 8
M  V30 8 1 8 9
M  V30 9 1 9 10
M  V30 10 2 10 11
M  V30 11 1 11 12
M  V30 12 2 12 13
M  V30 13 1 13 14
M  V30 14 2 14 15
M  V30 15 1 15 16
M  V30 16 2 16 17
M  V30 17 1 17 18
M  V30 18 1 18 19
M  V30 19 2 18 20
M  V30 20 1 13 21
M  V30 21 2 21 22
M  V30 22 1 22 23
M  V30 23 1 23 24
M  V30 24 1 23 25
M  V30 25 1 22 10
M  V30 26 1 20 14
M  V30 27 1 1 26
M  V30 28 1 1 27
M  V30 29 1 1 28
M  V30 30 1 2 29
M  V30 31 1 3 30
M  V30 32 1 3 31
M  V30 33 1 3 32
M  V30 34 1 4 33
M  V30 35 1 4 34
M  V30 36 1 6 35
M  V30 37 1 6 36
M  V30 38 1 6 37
M  V30 39 1 7 38
M  V30 40 1 7 39
M  V30 41 1 8 40
M  V30 42 1 8 41
M  V30 43 1 12 42
M  V30 44 1 15 43
M  V30 45 1 16 44
M  V30 46 1 20 45
M  V30 47 1 21 46
M  V30 48 1 23 47
M  V30 END BOND
M  V30 END CTAB
M  END
>  <Dataset>  (272) 
ChEMBL_Kinases

>  <Ligand_Instance>  (272) 
nan

>  <PDB_ID>  (272) 
nan

>  <Standardized_SMILES>  (272) 
CC(C)C[C@](C)(N)COc1ncc(-c2ccnc(Cl)c2)cc1C(F)F

>  <Name>  (272) 
nan

>  <Pocket>  (272) 
nan

>  <ATP_Site>  (272) 
nan

>  <Peripheral>  (272) 
nan

>  <Num_H_Atoms_ProtBoundConf>  (272) 
nan

>  <Num_Resolved_Atoms>  (272) 
nan

>  <Num_Not_Resolved_Atoms>  (272) 
nan

$$$$
CHEMBL5080553
     RDKit          3D

  0  0  0  0  0  0  0  0  0  0999 V3000
M  V30 BEGIN CTAB
M  V30 COUNTS 56 60 0 0 0
M  V30 BEGIN ATOM
M  V30 1 C 4.561697 -4.381940 3.018301 0
M  V30 2 O 4.006747 -3.445776 2.119290 0
M  V30 3 C 3.734583 -2.170700 2.570961 0
M  V30 4 C 3.933474 -1.641160 3.824157 0
M  V30 5 C 3.619757 -0.339439 4.162222 0
M  V30 6 C 3.074671 0.428047 3.127939 0
M  V30 7 C 2.849081 -0.046254 1.842673 0
M  V30 8 C 2.292880 0.996569 1.015514 0
M  V30 9 N 3.253738 1.575633 0.311250 0
M  V30 10 C 2.684666 2.562222 -0.427093 0
M  V30 11 S 2.992783 3.865514 -1.635392 0
M  V30 12 C 1.256893 4.379920 -1.727397 0
M  V30 13 C 0.627107 3.519248 -0.839797 0
M  V30 14 N 1.361790 2.609354 -0.192934 0
M  V30 15 C 1.114086 1.635928 0.704695 0
M  V30 16 C -0.139263 1.216863 1.283218 0
M  V30 17 C -0.563373 0.859580 2.525697 0
M  V30 18 C -1.845757 0.534637 2.894610 0
M  V30 19 N -2.758116 0.585748 1.886526 0
M  V30 20 C -2.407763 0.932270 0.628813 0
M  V30 21 N -3.577065 0.906261 -0.178085 0
M  V30 22 C -4.582458 -0.098455 -0.214029 0
M  V30 23 C -4.228172 -1.377228 -0.890459 0
M  V30 24 N -3.097616 -2.082769 -0.390244 0
M  V30 25 C -3.197507 -3.526294 -0.592604 0
M  V30 26 C -2.821356 -3.758624 -2.039896 0
M  V30 27 N -1.510438 -3.211853 -2.219755 0
M  V30 28 C -1.240091 -2.816047 -3.573052 0
M  V30 29 S -1.647271 -1.744466 -1.268494 0
M  V30 30 O -0.471814 -1.742219 -0.363973 0
M  V30 31 O -1.748890 -0.557098 -2.156929 0
M  V30 32 N -1.135556 1.238476 0.333740 0
M  V30 33 C 3.185987 -1.374458 1.559188 0
M  V30 34 H 4.077771 -4.249732 3.996932 0
M  V30 35 H 4.318496 -5.387562 2.575067 0
M  V30 36 H 5.660828 -4.284862 3.140180 0
M  V30 37 H 4.359675 -2.315924 4.540219 0
M  V30 38 H 3.802820 -0.003853 5.151979 0
M  V30 39 H 2.860338 1.443080 3.496408 0
M  V30 40 H 0.925529 5.177302 -2.361619 0
M  V30 41 H -0.436445 3.703903 -0.782267 0
M  V30 42 H 0.255282 0.860855 3.231058 0
M  V30 43 H -2.003740 0.278078 3.920411 0
M  V30 44 H -3.661735 1.758330 -0.809499 0
M  V30 45 H -5.495477 0.319548 -0.683947 0
M  V30 46 H -4.860262 -0.325323 0.840510 0
M  V30 47 H -4.214460 -1.289927 -2.003902 0
M  V30 48 H -5.112529 -2.061074 -0.703987 0
M  V30 49 H -2.488123 -4.072866 0.024734 0
M  V30 50 H -4.214437 -3.898615 -0.444746 0
M  V30 51 H -2.743953 -4.848658 -2.177678 0
M  V30 52 H -3.560425 -3.396867 -2.763503 0
M  V30 53 H -0.307924 -2.189885 -3.557615 0
M  V30 54 H -1.008929 -3.728367 -4.163911 0
M  V30 55 H -2.062918 -2.214568 -3.965741 0
M  V30 56 H 2.956686 -1.610369 0.525100 0
M  V30 END ATOM
M  V30 BEGIN BOND
M  V30 1 1 1 2
M  V30 2 1 2 3
M  V30 3 2 3 4
M  V30 4 1 4 5
M  V30 5 2 5 6
M  V30 6 1 6 7
M  V30 7 1 7 8
M  V30 8 1 8 9
M  V30 9 2 9 10
M  V30 10 1 10 11
M  V30 11 1 11 12
M  V30 12 2 12 13
M  V30 13 1 13 14
M  V30 14 1 14 15
M  V30 15 1 15 16
M  V30 16 2 16 17
M  V30 17 1 17 18
M  V30 18 2 18 19
M  V30 19 1 19 20
M  V30 20 1 20 21
M  V30 21 1 21 22
M  V30 22 1 22 23
M  V30 23 1 23 24
M  V30 24 1 24 25
M  V30 25 1 25 26
M  V30 26 1 26 27
M  V30 27 1 27 28
M  V30 28 1 27 29
M  V30 29 2 29 30
M  V30 30 2 29 31
M  V30 31 2 20 32
M  V30 32 2 7 33
M  V30 33 1 33 3
M  V30 34 2 15 8
M  V30 35 1 32 16
M  V30 36 1 14 10
M  V30 37 1 29 24
M  V30 38 1 1 34
M  V30 39 1 1 35
M  V30 40 1 1 36
M  V30 41 1 4 37
M  V30 42 1 5 38
M  V30 43 1 6 39
M  V30 44 1 12 40
M  V30 45 1 13 41
M  V30 46 1 17 42
M  V30 47 1 18 43
M  V30 48 1 21 44
M  V30 49 1 22 45
M  V30 50 1 22 46
M  V30 51 1 23 47
M  V30 52 1 23 48
M  V30 53 1 25 49
M  V30 54 1 25 50
M  V30 55 1 26 51
M  V30 56 1 26 52
M  V30 57 1 28 53
M  V30 58 1 28 54
M  V30 59 1 28 55
M  V30 60 1 33 56
M  V30 END BOND
M  V30 END CTAB
M  END
>  <Dataset>  (273) 
ChEMBL_Kinases

>  <Ligand_Instance>  (273) 
nan

>  <PDB_ID>  (273) 
nan

>  <Standardized_SMILES>  (273) 
COc1cccc(-c2nc3sccn3c2-c2ccnc(NCCN3CCN(C)S3(=O)=O)n2)c1

>  <Name>  (273) 
nan

>  <Pocket>  (273) 
nan

>  <ATP_Site>  (273) 
nan

>  <Peripheral>  (273) 
nan

>  <Num_H_Atoms_ProtBoundConf>  (273) 
nan

>  <Num_Resolved_Atoms>  (273) 
nan

>  <Num_Not_Resolved_Atoms>  (273) 
nan

$$$$
CHEMBL5080604
     RDKit          3D

  0  0  0  0  0  0  0  0  0  0999 V3000
M  V30 BEGIN CTAB
M  V30 COUNTS 38 40 0 0 0
M  V30 BEGIN ATOM
M  V30 1 C -2.260366 -2.664964 0.641534 0
M  V30 2 C -1.322093 -2.088189 -0.429244 0 CFG=2
M  V30 3 C -0.834302 -3.326634 -1.179899 0
M  V30 4 C 0.304597 -3.827578 -0.363077 0
M  V30 5 C 0.855935 -2.580637 0.277687 0
M  V30 6 N -0.135253 -1.525219 0.173844 0
M  V30 7 C 0.051686 -0.191521 0.609401 0
M  V30 8 C 1.164320 0.317171 1.246335 0
M  V30 9 C 2.409436 -0.294640 1.641382 0
M  V30 10 N 3.314335 -1.365421 1.705844 0
M  V30 11 O 3.415594 0.069113 2.263723 0
M  V30 12 C 0.988596 1.646857 1.514927 0
M  V30 13 C 1.634279 2.715299 2.086186 0
M  V30 14 N 2.923544 2.554231 2.629175 0
M  V30 15 N 1.104766 3.953693 2.169743 0
M  V30 16 C -0.125521 4.217708 1.682128 0
M  V30 17 N -0.748131 3.178480 1.129674 0
M  V30 18 C -0.254519 1.952100 1.032345 0
M  V30 19 N -0.813123 0.827639 0.485375 0
M  V30 20 C -2.135858 0.838973 -0.111408 0
M  V30 21 H -1.714678 -3.531881 1.062383 0
M  V30 22 H -3.187565 -2.948644 0.108456 0
M  V30 23 H -2.419661 -1.957706 1.460522 0
M  V30 24 H -1.820441 -1.478496 -1.171559 0
M  V30 25 H -1.626685 -4.120506 -1.190118 0
M  V30 26 H -0.517995 -3.120648 -2.201762 0
M  V30 27 H 1.079162 -4.368685 -0.947323 0
M  V30 28 H 0.024947 -4.522758 0.458498 0
M  V30 29 H 1.022100 -2.715815 1.363586 0
M  V30 30 H 1.741271 -2.304900 -0.315459 0
M  V30 31 H 3.699875 -2.053469 0.983563 0
M  V30 32 H 3.712453 -2.061153 1.005637 0
M  V30 33 H 3.527603 2.747831 1.794005 0
M  V30 34 H 2.699078 2.315585 3.619421 0
M  V30 35 H -0.678560 5.144691 1.673940 0
M  V30 36 H -2.123132 0.844826 -1.218475 0
M  V30 37 H -2.823731 0.085926 0.253026 0
M  V30 38 H -2.657243 1.818206 0.138162 0
M  V30 END ATOM
M  V30 BEGIN BOND
M  V30 1 1 1 2
M  V30 2 1 2 3
M  V30 3 1 3 4
M  V30 4 1 4 5
M  V30 5 1 5 6
M  V30 6 1 6 7
M  V30 7 2 7 8
M  V30 8 1 8 9
M  V30 9 1 9 10
M  V30 10 2 9 11
M  V30 11 1 8 12
M  V30 12 2 12 13
M  V30 13 1 13 14
M  V30 14 1 13 15
M  V30 15 2 15 16
M  V30 16 1 16 17
M  V30 17 2 17 18
M  V30 18 1 18 19
M  V30 19 1 19 20
M  V30 20 1 6 2
M  V30 21 1 19 7
M  V30 22 1 18 12
M  V30 23 1 1 21
M  V30 24 1 1 22
M  V30 25 1 1 23
M  V30 26 1 2 24 CFG=3
M  V30 27 1 3 25
M  V30 28 1 3 26
M  V30 29 1 4 27
M  V30 30 1 4 28
M  V30 31 1 5 29
M  V30 32 1 5 30
M  V30 33 1 10 31
M  V30 34 1 10 32
M  V30 35 1 14 33
M  V30 36 1 14 34
M  V30 37 1 16 35
M  V30 38 1 20 36
M  V30 39 1 20 37
M  V30 40 1 20 38
M  V30 END BOND
M  V30 END CTAB
M  END
>  <Dataset>  (274) 
ChEMBL_Kinases

>  <Ligand_Instance>  (274) 
nan

>  <PDB_ID>  (274) 
nan

>  <Standardized_SMILES>  (274) 
C[C@@H]1CCCN1c1c(C(N)=O)c2c(N)ncnc2n1C

>  <Name>  (274) 
nan

>  <Pocket>  (274) 
nan

>  <ATP_Site>  (274) 
nan

>  <Peripheral>  (274) 
nan

>  <Num_H_Atoms_ProtBoundConf>  (274) 
nan

>  <Num_Resolved_Atoms>  (274) 
nan

>  <Num_Not_Resolved_Atoms>  (274) 
nan

$$$$
CHEMBL5080686
     RDKit          3D

  0  0  0  0  0  0  0  0  0  0999 V3000
M  V30 BEGIN CTAB
M  V30 COUNTS 55 58 0 0 0
M  V30 BEGIN ATOM
M  V30 1 C 2.863234 -3.788875 4.116782 0
M  V30 2 N 3.834928 -2.887488 3.497278 0
M  V30 3 N 5.118015 -3.098629 3.308354 0
M  V30 4 C 5.700896 -2.039542 2.703979 0
M  V30 5 C 4.711862 -1.072708 2.488597 0
M  V30 6 C 3.576116 -1.677771 3.011378 0
M  V30 7 N 2.300369 -1.048462 3.010986 0
M  V30 8 C 1.938694 0.236110 2.514133 0
M  V30 9 N 2.040394 1.217167 3.404305 0
M  V30 10 C 1.706387 2.473078 2.984720 0
M  V30 11 C 1.281967 2.696964 1.684287 0
M  V30 12 C 1.189211 1.652833 0.788879 0
M  V30 13 N 0.756540 1.855529 -0.550186 0
M  V30 14 C 0.365293 3.122325 -1.146557 0
M  V30 15 C -0.924939 2.657199 -1.837739 0
M  V30 16 C -0.422477 1.374236 -2.475037 0 CFG=2
M  V30 17 C -1.542425 0.377232 -2.596969 0
M  V30 18 O -1.932457 -0.099250 -3.699602 0
M  V30 19 N -2.149010 -0.004012 -1.360694 0
M  V30 20 C -3.232262 -0.967898 -1.473172 0 CFG=2
M  V30 21 C -4.490975 -0.363310 -0.860027 0
M  V30 22 O -5.548786 -1.279950 -0.959342 0
M  V30 23 C -2.894504 -2.231917 -0.748132 0
M  V30 24 C -3.109516 -3.489495 -1.285076 0
M  V30 25 C -2.792336 -4.649508 -0.603589 0
M  V30 26 C -2.241088 -4.540262 0.658727 0
M  V30 27 C -2.018521 -3.302293 1.212195 0
M  V30 28 Cl -1.312768 -3.322820 2.822388 0
M  V30 29 C -2.336167 -2.154016 0.529238 0
M  V30 30 C 0.634537 0.811588 -1.552673 0
M  V30 31 N 1.523501 0.427578 1.226546 0
M  V30 32 H 1.829473 -3.493284 3.814425 0
M  V30 33 H 3.061894 -4.816041 3.790082 0
M  V30 34 H 2.911632 -3.683335 5.223507 0
M  V30 35 H 6.751524 -1.990217 2.449586 0
M  V30 36 H 4.850187 -0.106509 2.024231 0
M  V30 37 H 1.453677 -1.518182 3.409265 0
M  V30 38 H 1.789156 3.285460 3.716918 0
M  V30 39 H 1.036448 3.696817 1.418421 0
M  V30 40 H 0.168334 3.901198 -0.413679 0
M  V30 41 H 1.071147 3.405430 -1.958141 0
M  V30 42 H -1.616460 2.429038 -0.992710 0
M  V30 43 H -1.305686 3.371173 -2.565139 0
M  V30 44 H 0.014961 1.626031 -3.451394 0
M  V30 45 H -1.921374 0.311490 -0.410586 0
M  V30 46 H -3.438569 -1.277046 -2.513183 0
M  V30 47 H -4.801329 0.500387 -1.475155 0
M  V30 48 H -4.324700 -0.087896 0.184794 0
M  V30 49 H -5.328787 -2.097484 -0.430204 0
M  V30 50 H -3.543888 -3.492647 -2.276816 0
M  V30 51 H -3.018981 -5.560942 -1.154607 0
M  V30 52 H -2.030745 -5.521403 1.102662 0
M  V30 53 H -2.136274 -1.221838 1.019767 0
M  V30 54 H 0.313378 -0.145171 -1.088673 0
M  V30 55 H 1.566351 0.660401 -2.130104 0
M  V30 END ATOM
M  V30 BEGIN BOND
M  V30 1 1 1 2
M  V30 2 1 2 3
M  V30 3 2 3 4
M  V30 4 1 4 5
M  V30 5 2 5 6
M  V30 6 1 6 7
M  V30 7 1 7 8
M  V30 8 2 8 9
M  V30 9 1 9 10
M  V30 10 2 10 11
M  V30 11 1 11 12
M  V30 12 1 12 13
M  V30 13 1 13 14
M  V30 14 1 14 15
M  V30 15 1 15 16
M  V30 16 1 16 17
M  V30 17 2 17 18
M  V30 18 1 17 19
M  V30 19 1 19 20
M  V30 20 1 20 21
M  V30 21 1 21 22
M  V30 22 1 20 23
M  V30 23 2 23 24
M  V30 24 1 24 25
M  V30 25 2 25 26
M  V30 26 1 26 27
M  V30 27 1 27 28
M  V30 28 2 27 29
M  V30 29 1 16 30
M  V30 30 2 12 31
M  V30 31 1 6 2
M  V30 32 1 31 8
M  V30 33 1 30 13
M  V30 34 1 29 23
M  V30 35 1 1 32
M  V30 36 1 1 33
M  V30 37 1 1 34
M  V30 38 1 4 35
M  V30 39 1 5 36
M  V30 40 1 7 37
M  V30 41 1 10 38
M  V30 42 1 11 39
M  V30 43 1 14 40
M  V30 44 1 14 41
M  V30 45 1 15 42
M  V30 46 1 15 43
M  V30 47 1 16 44 CFG=3
M  V30 48 1 19 45
M  V30 49 1 20 46 CFG=3
M  V30 50 1 21 47
M  V30 51 1 21 48
M  V30 52 1 22 49
M  V30 53 1 24 50
M  V30 54 1 25 51
M  V30 55 1 26 52
M  V30 56 1 29 53
M  V30 57 1 30 54
M  V30 58 1 30 55
M  V30 END BOND
M  V30 END CTAB
M  END
>  <Dataset>  (275) 
ChEMBL_Kinases

>  <Ligand_Instance>  (275) 
nan

>  <PDB_ID>  (275) 
nan

>  <Standardized_SMILES>  (275) 
Cn1nccc1Nc1nccc(N2CC[C@H](C(=O)N[C@H](CO)c3cccc(Cl)c3)C2)n1

>  <Name>  (275) 
nan

>  <Pocket>  (275) 
nan

>  <ATP_Site>  (275) 
nan

>  <Peripheral>  (275) 
nan

>  <Num_H_Atoms_ProtBoundConf>  (275) 
nan

>  <Num_Resolved_Atoms>  (275) 
nan

>  <Num_Not_Resolved_Atoms>  (275) 
nan

$$$$
CHEMBL5080743
     RDKit          3D

  0  0  0  0  0  0  0  0  0  0999 V3000
M  V30 BEGIN CTAB
M  V30 COUNTS 62 66 0 0 0
M  V30 BEGIN ATOM
M  V30 1 O 4.466418 1.663263 4.826643 0
M  V30 2 C 3.615085 1.221056 3.985775 0
M  V30 3 C 3.493992 -0.224956 4.160518 0
M  V30 4 C 2.356107 -0.884678 3.459455 0
M  V30 5 C 2.754934 -2.362670 3.321181 0
M  V30 6 C 2.475833 -3.138004 4.590059 0
M  V30 7 O 1.088460 -3.059159 4.776458 0
M  V30 8 C 0.860733 -1.787782 5.289807 0
M  V30 9 C 1.070861 -0.758935 4.240950 0
M  V30 10 O 2.123771 -0.457376 2.141877 0
M  V30 11 C 1.852299 0.716821 1.499120 0
M  V30 12 C 1.115291 0.668194 0.332775 0
M  V30 13 C 0.789949 1.823529 -0.392791 0
M  V30 14 C -0.004358 1.533269 -1.573224 0
M  V30 15 C -1.181839 0.824448 -1.301979 0
M  V30 16 C -2.095513 0.460766 -2.262812 0
M  V30 17 N -3.285010 -0.258302 -1.963028 0
M  V30 18 C -3.057290 -1.676733 -2.040798 0
M  V30 19 O -1.855172 -1.937038 -2.356322 0
M  V30 20 C -4.110334 -2.650234 -1.780583 0
M  V30 21 C -5.409411 -2.368713 -1.432640 0
M  V30 22 C -6.309271 -3.393122 -1.215481 0
M  V30 23 N -5.942076 -4.686903 -1.337213 0
M  V30 24 C -4.677989 -4.983662 -1.676244 0
M  V30 25 C -4.258618 -6.403762 -1.814551 0
M  V30 26 F -4.726277 -6.912483 -3.016690 0
M  V30 27 F -2.865467 -6.474969 -1.830276 0
M  V30 28 F -4.789869 -7.134771 -0.756715 0
M  V30 29 C -3.741881 -3.977563 -1.903521 0
M  V30 30 C -1.861913 0.801848 -3.577272 0
M  V30 31 C -0.705744 1.497835 -3.848502 0
M  V30 32 C 0.201547 1.856619 -2.880587 0
M  V30 33 C 1.449462 2.591201 -3.192551 0
M  V30 34 O 2.523258 1.698152 -3.136536 0
M  V30 35 C 1.250591 3.009377 0.130326 0
M  V30 36 C 1.986581 3.079833 1.290444 0
M  V30 37 C 2.304474 1.938227 2.001308 0
M  V30 38 N 3.071759 2.261683 3.167583 0
M  V30 39 H 4.446093 -0.770703 3.980212 0
M  V30 40 H 3.302630 -0.384975 5.263076 0
M  V30 41 H 2.266735 -2.838320 2.468978 0
M  V30 42 H 3.872501 -2.399373 3.172062 0
M  V30 43 H 2.719634 -4.190863 4.362953 0
M  V30 44 H 3.012488 -2.736449 5.454617 0
M  V30 45 H 1.463474 -1.540005 6.179401 0
M  V30 46 H -0.213200 -1.761350 5.572363 0
M  V30 47 H 1.011408 0.270727 4.640467 0
M  V30 48 H 0.236352 -0.849805 3.517325 0
M  V30 49 H 0.824534 -0.336034 0.049180 0
M  V30 50 H -1.459797 0.507054 -0.295988 0
M  V30 51 H -4.240428 0.094839 -1.710345 0
M  V30 52 H -5.656622 -1.325976 -1.346877 0
M  V30 53 H -7.317737 -3.105498 -0.944098 0
M  V30 54 H -2.745981 -4.290432 -2.171873 0
M  V30 55 H -2.511778 0.566302 -4.402507 0
M  V30 56 H -0.476900 1.789082 -4.865134 0
M  V30 57 H 1.588394 3.508935 -2.638181 0
M  V30 58 H 1.379636 2.876101 -4.287831 0
M  V30 59 H 2.213107 0.790075 -2.838380 0
M  V30 60 H 0.978811 3.878834 -0.432000 0
M  V30 61 H 2.304919 4.050820 1.623361 0
M  V30 62 H 3.227170 3.260471 3.408964 0
M  V30 END ATOM
M  V30 BEGIN BOND
M  V30 1 2 1 2
M  V30 2 1 2 3
M  V30 3 1 3 4
M  V30 4 1 4 5
M  V30 5 1 5 6
M  V30 6 1 6 7
M  V30 7 1 7 8
M  V30 8 1 8 9
M  V30 9 1 4 10
M  V30 10 1 10 11
M  V30 11 2 11 12
M  V30 12 1 12 13
M  V30 13 1 13 14
M  V30 14 2 14 15
M  V30 15 1 15 16
M  V30 16 1 16 17
M  V30 17 1 17 18
M  V30 18 2 18 19
M  V30 19 1 18 20
M  V30 20 2 20 21
M  V30 21 1 21 22
M  V30 22 2 22 23
M  V30 23 1 23 24
M  V30 24 1 24 25
M  V30 25 1 25 26
M  V30 26 1 25 27
M  V30 27 1 25 28
M  V30 28 2 24 29
M  V30 29 2 16 30
M  V30 30 1 30 31
M  V30 31 2 31 32
M  V30 32 1 32 33
M  V30 33 1 33 34
M  V30 34 2 13 35
M  V30 35 1 35 36
M  V30 36 2 36 37
M  V30 37 1 37 38
M  V30 38 1 38 2
M  V30 39 1 9 4
M  V30 40 1 37 11
M  V30 41 1 32 14
M  V30 42 1 29 20
M  V30 43 1 3 39
M  V30 44 1 3 40
M  V30 45 1 5 41
M  V30 46 1 5 42
M  V30 47 1 6 43
M  V30 48 1 6 44
M  V30 49 1 8 45
M  V30 50 1 8 46
M  V30 51 1 9 47
M  V30 52 1 9 48
M  V30 53 1 12 49
M  V30 54 1 15 50
M  V30 55 1 17 51
M  V30 56 1 21 52
M  V30 57 1 22 53
M  V30 58 1 29 54
M  V30 59 1 30 55
M  V30 60 1 31 56
M  V30 61 1 33 57
M  V30 62 1 33 58
M  V30 63 1 34 59
M  V30 64 1 35 60
M  V30 65 1 36 61
M  V30 66 1 38 62
M  V30 END BOND
M  V30 END CTAB
M  END
>  <Dataset>  (276) 
ChEMBL_Kinases

>  <Ligand_Instance>  (276) 
nan

>  <PDB_ID>  (276) 
nan

>  <Standardized_SMILES>  (276) 
O=C1CC2(CCOCC2)Oc2cc(-c3cc(NC(=O)c4ccnc(C(F)(F)F)c4)ccc3CO)ccc2N1

>  <Name>  (276) 
nan

>  <Pocket>  (276) 
nan

>  <ATP_Site>  (276) 
nan

>  <Peripheral>  (276) 
nan

>  <Num_H_Atoms_ProtBoundConf>  (276) 
nan

>  <Num_Resolved_Atoms>  (276) 
nan

>  <Num_Not_Resolved_Atoms>  (276) 
nan

$$$$
CHEMBL5080781
     RDKit          3D

  0  0  0  0  0  0  0  0  0  0999 V3000
M  V30 BEGIN CTAB
M  V30 COUNTS 66 70 0 0 0
M  V30 BEGIN ATOM
M  V30 1 C 5.339667 -3.430964 3.950658 0
M  V30 2 C 4.787795 -2.387551 3.071253 0
M  V30 3 N 5.522418 -1.505374 2.370398 0
M  V30 4 C 4.935977 -0.579517 1.582658 0
M  V30 5 C 5.710047 0.315186 0.870756 0
M  V30 6 C 5.139566 1.271234 0.055921 0
M  V30 7 C 3.765269 1.323586 -0.040811 0
M  V30 8 C 2.909067 2.217085 -0.824196 0
M  V30 9 N 1.821300 2.795011 -0.278850 0
M  V30 10 C 0.965735 3.607992 -0.872295 0
M  V30 11 N -0.092237 4.061478 -0.022577 0
M  V30 12 C -1.234389 3.197429 0.101505 0
M  V30 13 C -2.313530 3.543598 0.893582 0
M  V30 14 C -3.407432 2.714734 1.023283 0
M  V30 15 C -3.447270 1.507739 0.355938 0
M  V30 16 C -4.477373 0.477770 0.338838 0
M  V30 17 O -5.653060 0.522138 -0.106690 0
M  V30 18 N -4.222549 -0.826227 0.886290 0
M  V30 19 C -5.327531 -1.793555 0.811958 0
M  V30 20 C -4.868575 -2.912220 -0.112461 0
M  V30 21 N -3.473559 -2.910895 -0.253918 0
M  V30 22 C -2.905418 -2.968580 -1.534468 0
M  V30 23 C -3.284256 -4.219644 -2.307253 0
M  V30 24 C -1.413241 -2.832317 -1.578819 0
M  V30 25 C -2.655427 -2.728434 0.878729 0
M  V30 26 C -3.032821 -1.399125 1.530587 0
M  V30 27 C -2.358003 1.173728 -0.435177 0
M  V30 28 N -1.309862 2.013523 -0.533139 0
M  V30 29 N 1.195299 3.900780 -2.169569 0
M  V30 30 C 2.262274 3.365079 -2.791854 0
M  V30 31 C 3.148654 2.516833 -2.160427 0
M  V30 32 F 4.227071 1.971165 -2.776145 0
M  V30 33 C 2.980017 0.415242 0.682182 0
M  V30 34 C 3.560092 -0.537535 1.494910 0
M  V30 35 N 2.830944 -1.432623 2.206870 0
M  V30 36 C 3.407676 -2.358011 2.993880 0
M  V30 37 C 2.421244 -3.217163 3.665282 0
M  V30 38 H 4.788818 -4.396970 3.908876 0
M  V30 39 H 6.363580 -3.695385 3.549031 0
M  V30 40 H 5.529978 -3.079916 4.984405 0
M  V30 41 H 6.788033 0.323007 0.905816 0
M  V30 42 H 5.620294 2.017654 -0.543717 0
M  V30 43 H -0.110145 4.957090 0.511600 0
M  V30 44 H -2.328961 4.470184 1.430367 0
M  V30 45 H -4.292669 2.896318 1.614127 0
M  V30 46 H -5.421830 -2.238081 1.822865 0
M  V30 47 H -6.257759 -1.318374 0.462573 0
M  V30 48 H -5.340856 -2.730193 -1.101704 0
M  V30 49 H -5.188348 -3.906950 0.288146 0
M  V30 50 H -3.311378 -2.106129 -2.137858 0
M  V30 51 H -3.039418 -5.117660 -1.679513 0
M  V30 52 H -2.728534 -4.250318 -3.251023 0
M  V30 53 H -4.359337 -4.282067 -2.536469 0
M  V30 54 H -1.142822 -2.800808 -2.670209 0
M  V30 55 H -1.087036 -1.841496 -1.178938 0
M  V30 56 H -0.862600 -3.648565 -1.109926 0
M  V30 57 H -2.740150 -3.565328 1.633472 0
M  V30 58 H -1.599696 -2.732248 0.578117 0
M  V30 59 H -3.392810 -1.629285 2.576948 0
M  V30 60 H -2.207032 -0.700712 1.627302 0
M  V30 61 H -2.161101 0.296562 -1.044842 0
M  V30 62 H 2.415253 3.621601 -3.831079 0
M  V30 63 H 1.898079 0.361697 0.684138 0
M  V30 64 H 1.676907 -2.605869 4.252854 0
M  V30 65 H 2.830708 -4.003624 4.295693 0
M  V30 66 H 1.764035 -3.740031 2.909356 0
M  V30 END ATOM
M  V30 BEGIN BOND
M  V30 1 1 1 2
M  V30 2 2 2 3
M  V30 3 1 3 4
M  V30 4 2 4 5
M  V30 5 1 5 6
M  V30 6 2 6 7
M  V30 7 1 7 8
M  V30 8 2 8 9
M  V30 9 1 9 10
M  V30 10 1 10 11
M  V30 11 1 11 12
M  V30 12 2 12 13
M  V30 13 1 13 14
M  V30 14 2 14 15
M  V30 15 1 15 16
M  V30 16 2 16 17
M  V30 17 1 16 18
M  V30 18 1 18 19
M  V30 19 1 19 20
M  V30 20 1 20 21
M  V30 21 1 21 22
M  V30 22 1 22 23
M  V30 23 1 22 24
M  V30 24 1 21 25
M  V30 25 1 25 26
M  V30 26 1 15 27
M  V30 27 2 27 28
M  V30 28 2 10 29
M  V30 29 1 29 30
M  V30 30 2 30 31
M  V30 31 1 31 32
M  V30 32 1 7 33
M  V30 33 2 33 34
M  V30 34 1 34 35
M  V30 35 2 35 36
M  V30 36 1 36 37
M  V30 37 1 36 2
M  V30 38 1 34 4
M  V30 39 1 31 8
M  V30 40 1 28 12
M  V30 41 1 26 18
M  V30 42 1 1 38
M  V30 43 1 1 39
M  V30 44 1 1 40
M  V30 45 1 5 41
M  V30 46 1 6 42
M  V30 47 1 11 43
M  V30 48 1 13 44
M  V30 49 1 14 45
M  V30 50 1 19 46
M  V30 51 1 19 47
M  V30 52 1 20 48
M  V30 53 1 20 49
M  V30 54 1 22 50
M  V30 55 1 23 51
M  V30 56 1 23 52
M  V30 57 1 23 53
M  V30 58 1 24 54
M  V30 59 1 24 55
M  V30 60 1 24 56
M  V30 61 1 25 57
M  V30 62 1 25 58
M  V30 63 1 26 59
M  V30 64 1 26 60
M  V30 65 1 27 61
M  V30 66 1 30 62
M  V30 67 1 33 63
M  V30 68 1 37 64
M  V30 69 1 37 65
M  V30 70 1 37 66
M  V30 END BOND
M  V30 END CTAB
M  END
>  <Dataset>  (277) 
ChEMBL_Kinases

>  <Ligand_Instance>  (277) 
nan

>  <PDB_ID>  (277) 
nan

>  <Standardized_SMILES>  (277) 
Cc1nc2ccc(-c3nc(Nc4ccc(C(=O)N5CCN(C(C)C)CC5)cn4)ncc3F)cc2nc1C

>  <Name>  (277) 
nan

>  <Pocket>  (277) 
nan

>  <ATP_Site>  (277) 
nan

>  <Peripheral>  (277) 
nan

>  <Num_H_Atoms_ProtBoundConf>  (277) 
nan

>  <Num_Resolved_Atoms>  (277) 
nan

>  <Num_Not_Resolved_Atoms>  (277) 
nan

$$$$
CHEMBL5080097
     RDKit          3D

  0  0  0  0  0  0  0  0  0  0999 V3000
M  V30 BEGIN CTAB
M  V30 COUNTS 71 75 0 0 0
M  V30 BEGIN ATOM
M  V30 1 C 0.410862 -1.842250 4.631588 0
M  V30 2 C -0.353572 -0.603466 4.334565 0
M  V30 3 C -0.786383 0.178221 5.384270 0
M  V30 4 C -1.490949 1.320809 5.104203 0
M  V30 5 C -1.981779 2.202219 6.204922 0
M  V30 6 C -1.764797 1.687300 3.808430 0
M  V30 7 C -1.351094 0.933609 2.703027 0
M  V30 8 N -1.647290 1.339458 1.400770 0
M  V30 9 C -1.312603 0.700418 0.178592 0
M  V30 10 N -1.686006 1.261597 -0.984870 0
M  V30 11 C -1.425128 0.749155 -2.195148 0
M  V30 12 C -0.725860 -0.434928 -2.249787 0
M  V30 13 C -0.314992 -1.059842 -1.093255 0
M  V30 14 C 0.422348 -2.308522 -0.990571 0
M  V30 15 C -0.260057 -3.351195 -0.398605 0
M  V30 16 C -1.593317 -3.515760 0.169397 0
M  V30 17 C -1.968314 -3.830203 1.435329 0
M  V30 18 C -3.314852 -3.926004 1.715676 0
M  V30 19 C -4.293026 -3.718634 0.775788 0
M  V30 20 C -5.740645 -3.826757 1.094161 0
M  V30 21 F -6.118546 -2.633472 1.677134 0
M  V30 22 F -5.891958 -4.888889 1.971535 0
M  V30 23 F -6.456264 -4.025329 -0.074198 0
M  V30 24 C -3.920515 -3.397289 -0.519015 0
M  V30 25 C -2.557263 -3.296793 -0.816869 0
M  V30 26 N 0.587858 -4.421712 -0.391854 0
M  V30 27 C 1.720088 -3.983315 -0.968422 0
M  V30 28 N 1.648732 -2.676213 -1.350826 0
M  V30 29 C 2.639831 -1.847452 -1.992192 0
M  V30 30 C 2.413294 -1.569052 -3.420309 0
M  V30 31 C 2.265060 -0.172940 -3.852537 0
M  V30 32 N 2.293569 0.804158 -2.797676 0
M  V30 33 C 2.075079 2.131248 -3.208462 0
M  V30 34 C 2.139687 3.060545 -2.016932 0
M  V30 35 N 1.151151 2.720847 -1.033888 0
M  V30 36 C 3.421228 0.530397 -1.972652 0
M  V30 37 C 2.960633 -0.666001 -1.127362 0
M  V30 38 N -0.648513 -0.429255 0.038313 0
M  V30 39 C -0.649824 -0.198818 3.057361 0
M  V30 40 H 1.232140 -1.670531 5.354439 0
M  V30 41 H 0.899345 -2.165572 3.682494 0
M  V30 42 H -0.314343 -2.606049 4.939461 0
M  V30 43 H -0.617375 -0.032444 6.428493 0
M  V30 44 H -2.961960 2.664815 5.993995 0
M  V30 45 H -1.189620 2.994867 6.310328 0
M  V30 46 H -2.030988 1.649545 7.163542 0
M  V30 47 H -2.330033 2.606054 3.636689 0
M  V30 48 H -2.196581 2.248073 1.322550 0
M  V30 49 H -1.740308 1.227834 -3.112679 0
M  V30 50 H -0.478610 -0.914457 -3.183918 0
M  V30 51 H -1.153525 -3.975545 2.104863 0
M  V30 52 H -3.582745 -4.180932 2.745303 0
M  V30 53 H -4.702964 -3.236161 -1.249427 0
M  V30 54 H -2.391444 -3.037549 -1.870308 0
M  V30 55 H 2.609744 -4.609553 -1.116817 0
M  V30 56 H 3.590023 -2.469488 -1.944079 0
M  V30 57 H 3.191059 -2.037579 -4.100715 0
M  V30 58 H 1.484605 -2.138277 -3.723685 0
M  V30 59 H 1.327046 0.014033 -4.451099 0
M  V30 60 H 3.081609 0.143492 -4.566192 0
M  V30 61 H 2.694382 2.485541 -4.041182 0
M  V30 62 H 1.002926 2.197918 -3.563191 0
M  V30 63 H 1.829899 4.074059 -2.416493 0
M  V30 64 H 3.160123 3.211474 -1.625067 0
M  V30 65 H 1.495266 2.743044 -0.040435 0
M  V30 66 H 0.281316 3.288159 -1.082458 0
M  V30 67 H 4.269732 0.111847 -2.588921 0
M  V30 68 H 3.745462 1.306686 -1.288889 0
M  V30 69 H 2.059596 -0.322799 -0.585490 0
M  V30 70 H 3.760887 -0.844011 -0.393294 0
M  V30 71 H -0.283262 -0.851814 2.302148 0
M  V30 END ATOM
M  V30 BEGIN BOND
M  V30 1 1 1 2
M  V30 2 2 2 3
M  V30 3 1 3 4
M  V30 4 1 4 5
M  V30 5 2 4 6
M  V30 6 1 6 7
M  V30 7 1 7 8
M  V30 8 1 8 9
M  V30 9 2 9 10
M  V30 10 1 10 11
M  V30 11 2 11 12
M  V30 12 1 12 13
M  V30 13 1 13 14
M  V30 14 2 14 15
M  V30 15 1 15 16
M  V30 16 2 16 17
M  V30 17 1 17 18
M  V30 18 2 18 19
M  V30 19 1 19 20
M  V30 20 1 20 21
M  V30 21 1 20 22
M  V30 22 1 20 23
M  V30 23 1 19 24
M  V30 24 2 24 25
M  V30 25 1 15 26
M  V30 26 2 26 27
M  V30 27 1 27 28
M  V30 28 1 28 29
M  V30 29 1 29 30
M  V30 30 1 30 31
M  V30 31 1 31 32
M  V30 32 1 32 33
M  V30 33 1 33 34
M  V30 34 1 34 35
M  V30 35 1 32 36
M  V30 36 1 36 37
M  V30 37 2 13 38
M  V30 38 2 7 39
M  V30 39 1 39 2
M  V30 40 1 38 9
M  V30 41 1 28 14
M  V30 42 1 37 29
M  V30 43 1 25 16
M  V30 44 1 1 40
M  V30 45 1 1 41
M  V30 46 1 1 42
M  V30 47 1 3 43
M  V30 48 1 5 44
M  V30 49 1 5 45
M  V30 50 1 5 46
M  V30 51 1 6 47
M  V30 52 1 8 48
M  V30 53 1 11 49
M  V30 54 1 12 50
M  V30 55 1 17 51
M  V30 56 1 18 52
M  V30 57 1 24 53
M  V30 58 1 25 54
M  V30 59 1 27 55
M  V30 60 1 29 56
M  V30 61 1 30 57
M  V30 62 1 30 58
M  V30 63 1 31 59
M  V30 64 1 31 60
M  V30 65 1 33 61
M  V30 66 1 33 62
M  V30 67 1 34 63
M  V30 68 1 34 64
M  V30 69 1 35 65
M  V30 70 1 35 66
M  V30 71 1 36 67
M  V30 72 1 36 68
M  V30 73 1 37 69
M  V30 74 1 37 70
M  V30 75 1 39 71
M  V30 END BOND
M  V30 END CTAB
M  END
>  <Dataset>  (278) 
ChEMBL_Kinases

>  <Ligand_Instance>  (278) 
nan

>  <PDB_ID>  (278) 
nan

>  <Standardized_SMILES>  (278) 
Cc1cc(C)cc(Nc2nccc(-c3c(-c4ccc(C(F)(F)F)cc4)ncn3C3CCN(CCN)CC3)n2)c1

>  <Name>  (278) 
nan

>  <Pocket>  (278) 
nan

>  <ATP_Site>  (278) 
nan

>  <Peripheral>  (278) 
nan

>  <Num_H_Atoms_ProtBoundConf>  (278) 
nan

>  <Num_Resolved_Atoms>  (278) 
nan

>  <Num_Not_Resolved_Atoms>  (278) 
nan

$$$$
CHEMBL3770802
     RDKit          3D

  0  0  0  0  0  0  0  0  0  0999 V3000
M  V30 BEGIN CTAB
M  V30 COUNTS 53 56 0 0 0
M  V30 BEGIN ATOM
M  V30 1 C -0.638427 -7.648088 3.737597 0
M  V30 2 C 0.831978 -7.788451 3.500343 0
M  V30 3 O 1.576294 -6.617336 3.790641 0
M  V30 4 C 1.353855 -5.409832 3.145450 0
M  V30 5 C 2.098987 -4.290629 3.455270 0
M  V30 6 C 1.891061 -3.065152 2.817516 0
M  V30 7 C 0.892413 -2.991753 1.838181 0
M  V30 8 C 0.626393 -1.804093 1.158334 0
M  V30 9 C -0.370409 -1.751467 0.188022 0
M  V30 10 C -0.479330 -0.413285 -0.386052 0
M  V30 11 N -0.520047 0.752101 0.288936 0
M  V30 12 N -0.618590 1.758163 -0.597266 0
M  V30 13 C -0.673532 3.065291 -0.004464 0
M  V30 14 C 0.650989 3.445859 0.616347 0
M  V30 15 C 0.391585 4.522994 1.620032 0
M  V30 16 C -0.732983 5.389689 1.183220 0
M  V30 17 C -0.914543 5.511895 -0.309489 0
M  V30 18 C -1.014667 4.161239 -0.982032 0
M  V30 19 C -0.644919 1.294233 -1.855816 0
M  V30 20 N -0.745442 2.143275 -2.990424 0
M  V30 21 C -0.556617 -0.071689 -1.714353 0
M  V30 22 C -0.549667 -0.902541 -2.874363 0
M  V30 23 N -0.468739 -2.273687 -3.206225 0
M  V30 24 O -0.630788 -0.467703 -4.048382 0
M  V30 25 C -1.097572 -2.884980 -0.099063 0
M  V30 26 C -0.815757 -4.049588 0.587467 0
M  V30 27 C 0.166562 -4.138534 1.556592 0
M  V30 28 N 0.384381 -5.319900 2.187866 0
M  V30 29 H -0.873155 -7.006620 4.615769 0
M  V30 30 H -1.208221 -7.318284 2.835087 0
M  V30 31 H -1.027551 -8.686615 3.929345 0
M  V30 32 H 0.975584 -7.992044 2.410091 0
M  V30 33 H 1.232701 -8.638769 4.058247 0
M  V30 34 H 2.856921 -4.371183 4.207612 0
M  V30 35 H 2.477119 -2.174590 3.057890 0
M  V30 36 H 1.266985 -0.971008 1.471156 0
M  V30 37 H -1.421694 3.123618 0.834639 0
M  V30 38 H 1.271616 3.860130 -0.206297 0
M  V30 39 H 1.213496 2.589713 1.026916 0
M  V30 40 H 1.344151 5.060369 1.810390 0
M  V30 41 H 0.156792 4.009462 2.598351 0
M  V30 42 H -0.514217 6.428727 1.549422 0
M  V30 43 H -1.698529 5.100689 1.688194 0
M  V30 44 H -1.873568 6.043044 -0.467130 0
M  V30 45 H -0.095178 6.074103 -0.748700 0
M  V30 46 H -2.061367 3.988383 -1.298691 0
M  V30 47 H -0.337806 4.175683 -1.857354 0
M  V30 48 H 0.153962 2.439031 -3.436504 0
M  V30 49 H -1.645307 2.485507 -3.400442 0
M  V30 50 H 0.488792 -2.723142 -3.318808 0
M  V30 51 H -1.232460 -2.988578 -3.376150 0
M  V30 52 H -1.836793 -2.749880 -0.845983 0
M  V30 53 H -1.418677 -4.927760 0.326669 0
M  V30 END ATOM
M  V30 BEGIN BOND
M  V30 1 1 1 2
M  V30 2 1 2 3
M  V30 3 1 3 4
M  V30 4 2 4 5
M  V30 5 1 5 6
M  V30 6 2 6 7
M  V30 7 1 7 8
M  V30 8 2 8 9
M  V30 9 1 9 10
M  V30 10 2 10 11
M  V30 11 1 11 12
M  V30 12 1 12 13
M  V30 13 1 13 14
M  V30 14 1 14 15
M  V30 15 1 15 16
M  V30 16 1 16 17
M  V30 17 1 17 18
M  V30 18 1 12 19
M  V30 19 1 19 20
M  V30 20 2 19 21
M  V30 21 1 21 22
M  V30 22 1 22 23
M  V30 23 2 22 24
M  V30 24 1 9 25
M  V30 25 2 25 26
M  V30 26 1 26 27
M  V30 27 2 27 28
M  V30 28 1 28 4
M  V30 29 1 27 7
M  V30 30 1 21 10
M  V30 31 1 18 13
M  V30 32 1 1 29
M  V30 33 1 1 30
M  V30 34 1 1 31
M  V30 35 1 2 32
M  V30 36 1 2 33
M  V30 37 1 5 34
M  V30 38 1 6 35
M  V30 39 1 8 36
M  V30 40 1 13 37
M  V30 41 1 14 38
M  V30 42 1 14 39
M  V30 43 1 15 40
M  V30 44 1 15 41
M  V30 45 1 16 42
M  V30 46 1 16 43
M  V30 47 1 17 44
M  V30 48 1 17 45
M  V30 49 1 18 46
M  V30 50 1 18 47
M  V30 51 1 20 48
M  V30 52 1 20 49
M  V30 53 1 23 50
M  V30 54 1 23 51
M  V30 55 1 25 52
M  V30 56 1 26 53
M  V30 END BOND
M  V30 END CTAB
M  END
>  <Dataset>  (279) 
ChEMBL_Kinases

>  <Ligand_Instance>  (279) 
nan

>  <PDB_ID>  (279) 
nan

>  <Standardized_SMILES>  (279) 
CCOc1ccc2cc(-c3nn(C4CCCCC4)c(N)c3C(N)=O)ccc2n1

>  <Name>  (279) 
nan

>  <Pocket>  (279) 
nan

>  <ATP_Site>  (279) 
nan

>  <Peripheral>  (279) 
nan

>  <Num_H_Atoms_ProtBoundConf>  (279) 
nan

>  <Num_Resolved_Atoms>  (279) 
nan

>  <Num_Not_Resolved_Atoms>  (279) 
nan

$$$$
CHEMBL3770588
     RDKit          3D

  0  0  0  0  0  0  0  0  0  0999 V3000
M  V30 BEGIN CTAB
M  V30 COUNTS 67 71 0 0 0
M  V30 BEGIN ATOM
M  V30 1 C 5.126521 -2.597351 4.054032 0
M  V30 2 C 6.067899 -1.440833 3.907536 0
M  V30 3 N 5.973736 -0.753247 2.643543 0
M  V30 4 C 4.694009 -0.222323 2.243977 0
M  V30 5 N 4.240029 0.930013 2.789790 0
M  V30 6 C 3.051125 1.450065 2.424057 0
M  V30 7 C 2.279851 0.805904 1.479916 0
M  V30 8 C 1.077226 1.383441 1.126511 0
M  V30 9 C 0.300441 0.735873 0.154803 0
M  V30 10 C -0.991847 1.199289 -0.351678 0
M  V30 11 C -2.088666 0.641102 0.301094 0
M  V30 12 C -3.395506 0.959674 -0.071521 0
M  V30 13 C -3.637888 1.836682 -1.096725 0
M  V30 14 C -4.953020 2.216182 -1.560592 0
M  V30 15 C -6.093821 1.699387 -1.000730 0
M  V30 16 C -7.394204 2.026593 -1.416370 0
M  V30 17 C -7.535917 2.922863 -2.452628 0
M  V30 18 C -6.368465 3.427132 -2.997451 0
M  V30 19 C -6.544896 4.398933 -4.110015 0
M  V30 20 N -5.147489 3.086206 -2.567784 0
M  V30 21 C -2.545602 2.381796 -1.732907 0
M  V30 22 C -1.247128 2.081479 -1.382138 0
M  V30 23 Cl 0.182957 2.740814 -2.145439 0
M  V30 24 C 0.809066 -0.434996 -0.370961 0
M  V30 25 O 0.137406 -1.032596 -1.240612 0
M  V30 26 N 1.977800 -1.015095 -0.039911 0
M  V30 27 C 2.553607 -2.210932 -0.558297 0
M  V30 28 C 2.169732 -3.489623 0.109899 0 CFG=1
M  V30 29 C 2.478396 -3.593066 1.561381 0
M  V30 30 C 1.697569 -4.797277 2.113142 0
M  V30 31 C 0.217956 -4.542786 2.160824 0 CFG=2
M  V30 32 N -0.536831 -5.784277 1.934113 0
M  V30 33 C -0.135084 -3.596512 1.016938 0
M  V30 34 C 0.778942 -3.970482 -0.140739 0
M  V30 35 C 2.723248 -0.370713 0.909466 0
M  V30 36 N 3.913300 -0.800507 1.342361 0
M  V30 37 H 4.149746 -2.412028 3.556174 0
M  V30 38 H 5.559105 -3.571990 3.779141 0
M  V30 39 H 4.860406 -2.670534 5.153767 0
M  V30 40 H 7.116453 -1.860285 3.970004 0
M  V30 41 H 5.926265 -0.726217 4.768537 0
M  V30 42 H 6.711401 -0.551534 1.903740 0
M  V30 43 H 2.708084 2.387402 2.886418 0
M  V30 44 H 0.664344 2.294559 1.526156 0
M  V30 45 H -1.980892 -0.068205 1.130316 0
M  V30 46 H -4.206090 0.512500 0.449319 0
M  V30 47 H -6.073399 0.988635 -0.180899 0
M  V30 48 H -8.265121 1.589126 -0.940538 0
M  V30 49 H -8.531421 3.190579 -2.793464 0
M  V30 50 H -5.618767 4.958073 -4.283912 0
M  V30 51 H -6.861452 3.834352 -5.010997 0
M  V30 52 H -7.379235 5.075060 -3.822438 0
M  V30 53 H -2.662093 3.081507 -2.547785 0
M  V30 54 H 2.301654 -2.363476 -1.652173 0
M  V30 55 H 3.663006 -2.153620 -0.553296 0
M  V30 56 H 2.840327 -4.269974 -0.384356 0
M  V30 57 H 2.107982 -2.740942 2.170788 0
M  V30 58 H 3.532317 -3.837019 1.705406 0
M  V30 59 H 2.055879 -4.885276 3.171424 0
M  V30 60 H 1.903510 -5.723636 1.578693 0
M  V30 61 H -0.141111 -4.103511 3.109580 0
M  V30 62 H -1.392245 -5.825084 2.530807 0
M  V30 63 H -0.828404 -5.857860 0.936498 0
M  V30 64 H -1.198916 -3.631825 0.744632 0
M  V30 65 H 0.077363 -2.585940 1.410965 0
M  V30 66 H 0.360939 -3.739380 -1.130382 0
M  V30 67 H 0.776674 -5.104484 -0.114235 0
M  V30 END ATOM
M  V30 BEGIN BOND
M  V30 1 1 1 2
M  V30 2 1 2 3
M  V30 3 1 3 4
M  V30 4 2 4 5
M  V30 5 1 5 6
M  V30 6 2 6 7
M  V30 7 1 7 8
M  V30 8 2 8 9
M  V30 9 1 9 10
M  V30 10 2 10 11
M  V30 11 1 11 12
M  V30 12 2 12 13
M  V30 13 1 13 14
M  V30 14 2 14 15
M  V30 15 1 15 16
M  V30 16 2 16 17
M  V30 17 1 17 18
M  V30 18 1 18 19
M  V30 19 2 18 20
M  V30 20 1 13 21
M  V30 21 2 21 22
M  V30 22 1 22 23
M  V30 23 1 9 24
M  V30 24 2 24 25
M  V30 25 1 24 26
M  V30 26 1 26 27
M  V30 27 1 27 28
M  V30 28 1 28 29
M  V30 29 1 29 30
M  V30 30 1 30 31
M  V30 31 1 31 32
M  V30 32 1 31 33
M  V30 33 1 33 34
M  V30 34 1 26 35
M  V30 35 2 35 36
M  V30 36 1 36 4
M  V30 37 1 35 7
M  V30 38 1 22 10
M  V30 39 1 34 28
M  V30 40 1 20 14
M  V30 41 1 1 37
M  V30 42 1 1 38
M  V30 43 1 1 39
M  V30 44 1 2 40
M  V30 45 1 2 41
M  V30 46 1 3 42
M  V30 47 1 6 43
M  V30 48 1 8 44
M  V30 49 1 11 45
M  V30 50 1 12 46
M  V30 51 1 15 47
M  V30 52 1 16 48
M  V30 53 1 17 49
M  V30 54 1 19 50
M  V30 55 1 19 51
M  V30 56 1 19 52
M  V30 57 1 21 53
M  V30 58 1 27 54
M  V30 59 1 27 55
M  V30 60 1 28 56 CFG=3
M  V30 61 1 29 57
M  V30 62 1 29 58
M  V30 63 1 30 59
M  V30 64 1 30 60
M  V30 65 1 31 61 CFG=1
M  V30 66 1 32 62
M  V30 67 1 32 63
M  V30 68 1 33 64
M  V30 69 1 33 65
M  V30 70 1 34 66
M  V30 71 1 34 67
M  V30 END BOND
M  V30 END CTAB
M  END
>  <Dataset>  (280) 
ChEMBL_Kinases

>  <Ligand_Instance>  (280) 
nan

>  <PDB_ID>  (280) 
nan

>  <Standardized_SMILES>  (280) 
CCNc1ncc2cc(-c3ccc(-c4cccc(C)n4)cc3Cl)c(=O)n(C[C@H]3CC[C@H](N)CC3)c2n1

>  <Name>  (280) 
nan

>  <Pocket>  (280) 
nan

>  <ATP_Site>  (280) 
nan

>  <Peripheral>  (280) 
nan

>  <Num_H_Atoms_ProtBoundConf>  (280) 
nan

>  <Num_Resolved_Atoms>  (280) 
nan

>  <Num_Not_Resolved_Atoms>  (280) 
nan

$$$$
CHEMBL5084823
     RDKit          3D

  0  0  0  0  0  0  0  0  0  0999 V3000
M  V30 BEGIN CTAB
M  V30 COUNTS 49 50 0 0 0
M  V30 BEGIN ATOM
M  V30 1 C 3.864278 -3.560168 3.829872 0
M  V30 2 C 2.607509 -2.778048 3.617046 0
M  V30 3 C 1.453417 -3.685061 3.228170 0
M  V30 4 C 2.664754 -1.554616 2.825832 0
M  V30 5 C 3.108765 -1.556617 1.416130 0 CFG=2
M  V30 6 C 4.541454 -2.077779 1.249718 0
M  V30 7 N 3.199959 -0.156308 1.062442 0
M  V30 8 C 2.217338 -2.247874 0.452351 0
M  V30 9 O 0.919513 -1.874510 0.322544 0
M  V30 10 C 0.167676 -0.844124 -0.039550 0
M  V30 11 C 0.337188 0.436471 -0.506795 0
M  V30 12 C -0.625530 1.361957 -0.829050 0
M  V30 13 C -1.918831 0.922366 -0.651982 0
M  V30 14 C -2.985142 1.863018 -0.977128 0
M  V30 15 C -2.906539 3.233864 -0.840431 0
M  V30 16 C -3.974739 4.027598 -1.177603 0
M  V30 17 N -5.119027 3.485466 -1.647702 0
M  V30 18 C -5.242830 2.165080 -1.797367 0
M  V30 19 C -6.530912 1.612753 -2.322565 0
M  V30 20 F -6.812352 2.192076 -3.544399 0
M  V30 21 F -7.543013 1.949690 -1.445235 0
M  V30 22 C -4.176479 1.330866 -1.464069 0
M  V30 23 C -2.244633 -0.333590 -0.192486 0
M  V30 24 C -1.186020 -1.204236 0.108939 0
M  V30 25 C -1.663905 -2.493139 0.581643 0
M  V30 26 N -2.026293 -3.521678 0.966654 0
M  V30 27 H 4.168196 -4.227113 3.027739 0
M  V30 28 H 4.646301 -2.883515 4.226650 0
M  V30 29 H 3.661724 -4.253608 4.703976 0
M  V30 30 H 2.322682 -2.454389 4.673112 0
M  V30 31 H 1.778343 -4.569497 2.641578 0
M  V30 32 H 0.953322 -4.145064 4.134536 0
M  V30 33 H 0.647730 -3.093720 2.756710 0
M  V30 34 H 3.274183 -0.761648 3.358152 0
M  V30 35 H 1.636360 -1.099739 2.830235 0
M  V30 36 H 4.978751 -1.540988 0.382779 0
M  V30 37 H 4.537665 -3.141879 0.937333 0
M  V30 38 H 5.129507 -1.837231 2.129704 0
M  V30 39 H 2.534320 0.448915 1.590199 0
M  V30 40 H 4.151238 0.219252 1.002851 0
M  V30 41 H 2.679862 -2.074823 -0.587263 0
M  V30 42 H 2.221566 -3.367406 0.630362 0
M  V30 43 H 1.364910 0.714415 -0.640850 0
M  V30 44 H -0.314387 2.326580 -1.182517 0
M  V30 45 H -1.952571 3.592692 -0.455554 0
M  V30 46 H -3.867877 5.107219 -1.053715 0
M  V30 47 H -6.421554 0.521670 -2.373262 0
M  V30 48 H -4.370407 0.286819 -1.618437 0
M  V30 49 H -3.292570 -0.567851 -0.093697 0
M  V30 END ATOM
M  V30 BEGIN BOND
M  V30 1 1 1 2
M  V30 2 1 2 3
M  V30 3 1 2 4
M  V30 4 1 4 5
M  V30 5 1 5 6
M  V30 6 1 5 7 CFG=3
M  V30 7 1 5 8
M  V30 8 1 8 9
M  V30 9 1 9 10
M  V30 10 2 10 11
M  V30 11 1 11 12
M  V30 12 2 12 13
M  V30 13 1 13 14
M  V30 14 2 14 15
M  V30 15 1 15 16
M  V30 16 2 16 17
M  V30 17 1 17 18
M  V30 18 1 18 19
M  V30 19 1 19 20
M  V30 20 1 19 21
M  V30 21 2 18 22
M  V30 22 1 13 23
M  V30 23 2 23 24
M  V30 24 1 24 25
M  V30 25 3 25 26
M  V30 26 1 24 10
M  V30 27 1 22 14
M  V30 28 1 1 27
M  V30 29 1 1 28
M  V30 30 1 1 29
M  V30 31 1 2 30
M  V30 32 1 3 31
M  V30 33 1 3 32
M  V30 34 1 3 33
M  V30 35 1 4 34
M  V30 36 1 4 35
M  V30 37 1 6 36
M  V30 38 1 6 37
M  V30 39 1 6 38
M  V30 40 1 7 39
M  V30 41 1 7 40
M  V30 42 1 8 41
M  V30 43 1 8 42
M  V30 44 1 11 43
M  V30 45 1 12 44
M  V30 46 1 15 45
M  V30 47 1 16 46
M  V30 48 1 19 47
M  V30 49 1 22 48
M  V30 50 1 23 49
M  V30 END BOND
M  V30 END CTAB
M  END
>  <Dataset>  (281) 
ChEMBL_Kinases

>  <Ligand_Instance>  (281) 
nan

>  <PDB_ID>  (281) 
nan

>  <Standardized_SMILES>  (281) 
CC(C)C[C@](C)(N)COc1ccc(-c2ccnc(C(F)F)c2)cc1C#N

>  <Name>  (281) 
nan

>  <Pocket>  (281) 
nan

>  <ATP_Site>  (281) 
nan

>  <Peripheral>  (281) 
nan

>  <Num_H_Atoms_ProtBoundConf>  (281) 
nan

>  <Num_Resolved_Atoms>  (281) 
nan

>  <Num_Not_Resolved_Atoms>  (281) 
nan

$$$$
CHEMBL3770369
     RDKit          3D

  0  0  0  0  0  0  0  0  0  0999 V3000
M  V30 BEGIN CTAB
M  V30 COUNTS 59 62 0 0 0
M  V30 BEGIN ATOM
M  V30 1 C 4.869761 -2.780511 3.278490 0
M  V30 2 C 6.020550 -2.967392 2.339147 0
M  V30 3 N 5.626732 -3.265193 0.973205 0
M  V30 4 C 4.753536 -2.155169 0.786899 0
M  V30 5 N 4.996751 -0.870761 0.486719 0
M  V30 6 C 4.007322 0.024842 0.360951 0
M  V30 7 C 2.693023 -0.361739 0.540897 0
M  V30 8 C 1.730826 0.611481 0.403101 0
M  V30 9 C 0.410294 0.264618 0.580469 0
M  V30 10 C -0.831598 1.022334 0.509642 0
M  V30 11 C -1.265007 1.521957 1.718162 0
M  V30 12 C -2.473075 2.236715 1.748135 0
M  V30 13 C -3.163764 2.404231 0.581626 0
M  V30 14 C -4.429348 3.136141 0.551144 0
M  V30 15 C -5.002585 3.694792 1.691628 0
M  V30 16 N -6.177854 4.374792 1.672428 0
M  V30 17 C -6.848771 4.537879 0.521446 0
M  V30 18 C -6.305135 3.991051 -0.643812 0
M  V30 19 C -7.066194 4.186118 -1.905140 0
M  V30 20 N -5.149457 3.334459 -0.564793 0
M  V30 21 C -2.765716 1.919153 -0.669799 0
M  V30 22 C -1.553440 1.212781 -0.647177 0
M  V30 23 Cl -0.893558 0.532515 -2.115115 0
M  V30 24 C 0.184777 -1.087972 0.891415 0
M  V30 25 O -0.984644 -1.555225 1.080264 0
M  V30 26 N 1.147144 -2.047803 1.027167 0
M  V30 27 C 0.801445 -3.413252 1.359641 0
M  V30 28 C 0.516947 -4.279274 0.166009 0
M  V30 29 C 1.656307 -4.430631 -0.790868 0
M  V30 30 C 1.259374 -5.314115 -1.974219 0
M  V30 31 N 0.857275 -6.631703 -1.592603 0
M  V30 32 C 2.433424 -1.678873 0.848652 0
M  V30 33 N 3.460810 -2.558640 0.968269 0
M  V30 34 H 4.127951 -3.604837 3.177035 0
M  V30 35 H 4.387704 -1.785656 3.133093 0
M  V30 36 H 5.259697 -2.820870 4.311662 0
M  V30 37 H 6.643592 -3.788395 2.760534 0
M  V30 38 H 6.669600 -2.080237 2.326886 0
M  V30 39 H 5.854383 -4.029386 0.267327 0
M  V30 40 H 4.263481 1.046134 0.118635 0
M  V30 41 H 1.860551 1.655435 0.164671 0
M  V30 42 H -0.732337 1.399433 2.650647 0
M  V30 43 H -2.795008 2.618732 2.702619 0
M  V30 44 H -4.534651 3.609681 2.643178 0
M  V30 45 H -7.780126 5.081442 0.532112 0
M  V30 46 H -8.137424 4.081830 -1.716553 0
M  V30 47 H -6.635508 3.482233 -2.640512 0
M  V30 48 H -6.834105 5.207608 -2.299417 0
M  V30 49 H -3.328334 2.062503 -1.576606 0
M  V30 50 H 1.598514 -3.867954 1.983545 0
M  V30 51 H -0.127455 -3.354363 1.978973 0
M  V30 52 H 0.245533 -5.294998 0.571788 0
M  V30 53 H -0.428498 -3.956688 -0.355510 0
M  V30 54 H 2.548925 -4.852931 -0.282896 0
M  V30 55 H 1.902879 -3.430919 -1.189209 0
M  V30 56 H 0.486260 -4.823842 -2.577875 0
M  V30 57 H 2.174715 -5.377583 -2.611546 0
M  V30 58 H -0.107068 -6.658772 -1.187767 0
M  V30 59 H 1.569446 -7.140139 -1.057244 0
M  V30 END ATOM
M  V30 BEGIN BOND
M  V30 1 1 1 2
M  V30 2 1 2 3
M  V30 3 1 3 4
M  V30 4 2 4 5
M  V30 5 1 5 6
M  V30 6 2 6 7
M  V30 7 1 7 8
M  V30 8 2 8 9
M  V30 9 1 9 10
M  V30 10 2 10 11
M  V30 11 1 11 12
M  V30 12 2 12 13
M  V30 13 1 13 14
M  V30 14 2 14 15
M  V30 15 1 15 16
M  V30 16 2 16 17
M  V30 17 1 17 18
M  V30 18 1 18 19
M  V30 19 2 18 20
M  V30 20 1 13 21
M  V30 21 2 21 22
M  V30 22 1 22 23
M  V30 23 1 9 24
M  V30 24 2 24 25
M  V30 25 1 24 26
M  V30 26 1 26 27
M  V30 27 1 27 28
M  V30 28 1 28 29
M  V30 29 1 29 30
M  V30 30 1 30 31
M  V30 31 1 26 32
M  V30 32 2 32 33
M  V30 33 1 33 4
M  V30 34 1 32 7
M  V30 35 1 22 10
M  V30 36 1 20 14
M  V30 37 1 1 34
M  V30 38 1 1 35
M  V30 39 1 1 36
M  V30 40 1 2 37
M  V30 41 1 2 38
M  V30 42 1 3 39
M  V30 43 1 6 40
M  V30 44 1 8 41
M  V30 45 1 11 42
M  V30 46 1 12 43
M  V30 47 1 15 44
M  V30 48 1 17 45
M  V30 49 1 19 46
M  V30 50 1 19 47
M  V30 51 1 19 48
M  V30 52 1 21 49
M  V30 53 1 27 50
M  V30 54 1 27 51
M  V30 55 1 28 52
M  V30 56 1 28 53
M  V30 57 1 29 54
M  V30 58 1 29 55
M  V30 59 1 30 56
M  V30 60 1 30 57
M  V30 61 1 31 58
M  V30 62 1 31 59
M  V30 END BOND
M  V30 END CTAB
M  END
>  <Dataset>  (282) 
ChEMBL_Kinases

>  <Ligand_Instance>  (282) 
nan

>  <PDB_ID>  (282) 
nan

>  <Standardized_SMILES>  (282) 
CCNc1ncc2cc(-c3ccc(-c4cncc(C)n4)cc3Cl)c(=O)n(CCCCN)c2n1

>  <Name>  (282) 
nan

>  <Pocket>  (282) 
nan

>  <ATP_Site>  (282) 
nan

>  <Peripheral>  (282) 
nan

>  <Num_H_Atoms_ProtBoundConf>  (282) 
nan

>  <Num_Resolved_Atoms>  (282) 
nan

>  <Num_Not_Resolved_Atoms>  (282) 
nan

$$$$
CHEMBL3770363
     RDKit          3D

  0  0  0  0  0  0  0  0  0  0999 V3000
M  V30 BEGIN CTAB
M  V30 COUNTS 64 69 0 0 0
M  V30 BEGIN ATOM
M  V30 1 C 4.870779 -6.116654 1.213685 0
M  V30 2 N 4.797813 -5.061996 0.220535 0
M  V30 3 C 4.276730 -3.750596 0.471863 0
M  V30 4 N 5.010129 -2.700643 0.900328 0
M  V30 5 C 4.395611 -1.511633 1.100074 0
M  V30 6 C 3.041725 -1.407944 0.860624 0
M  V30 7 C 2.470761 -0.171616 1.081724 0
M  V30 8 C 1.115732 -0.088592 0.836964 0
M  V30 9 C 0.411735 1.174384 1.039076 0
M  V30 10 C 0.260713 2.131599 0.046676 0
M  V30 11 C -0.418910 3.301649 0.317700 0
M  V30 12 C -0.962122 3.557378 1.560182 0
M  V30 13 C -1.692620 4.765884 1.926271 0
M  V30 14 C -1.917929 5.795595 1.048362 0
M  V30 15 C -2.608485 6.935867 1.398134 0
M  V30 16 C -3.111864 7.092029 2.671362 0
M  V30 17 C -2.862497 6.023220 3.536176 0
M  V30 18 C -3.377861 6.129816 4.920307 0
M  V30 19 N -2.191390 4.936336 3.164120 0
M  V30 20 C -0.788289 2.578171 2.517334 0
M  V30 21 C -0.117816 1.391998 2.298091 0
M  V30 22 Cl 0.020483 0.237266 3.626494 0
M  V30 23 C 0.402926 -1.183156 0.400958 0
M  V30 24 O -0.816920 -1.060363 0.197671 0
M  V30 25 N 0.929382 -2.376627 0.181657 0
M  V30 26 C 0.343132 -3.602152 -0.296178 0
M  V30 27 C 0.438978 -3.876707 -1.747868 0
M  V30 28 C -0.265128 -5.236401 -1.963789 0
M  V30 29 O -1.532927 -5.031791 -1.368338 0
M  V30 30 C -2.218772 -4.111347 -2.127293 0
M  V30 31 C -3.242353 -3.261031 -1.407481 0
M  V30 32 N -4.337506 -4.074327 -1.861232 0
M  V30 33 C -3.429224 -4.784085 -2.747699 0
M  V30 34 O -1.500466 -3.480961 -3.105611 0
M  V30 35 C -0.277016 -2.936690 -2.672136 0
M  V30 36 C 2.273022 -2.465782 0.423066 0
M  V30 37 N 2.958764 -3.602172 0.251599 0
M  V30 38 H 4.186623 -6.949253 1.036029 0
M  V30 39 H 5.902216 -6.530722 1.204052 0
M  V30 40 H 4.676691 -5.705494 2.241566 0
M  V30 41 H 5.160373 -5.310450 -0.738231 0
M  V30 42 H 4.968525 -0.675583 1.439028 0
M  V30 43 H 2.952413 0.713342 1.415556 0
M  V30 44 H 0.683657 1.939463 -0.931281 0
M  V30 45 H -0.538675 4.041817 -0.440606 0
M  V30 46 H -1.553758 5.743870 0.034685 0
M  V30 47 H -2.770999 7.732921 0.682925 0
M  V30 48 H -3.662022 7.955659 3.017812 0
M  V30 49 H -4.217763 6.854691 5.012303 0
M  V30 50 H -3.750013 5.160227 5.285987 0
M  V30 51 H -2.598605 6.477788 5.632792 0
M  V30 52 H -1.204441 2.746412 3.510901 0
M  V30 53 H -0.747319 -3.651431 -0.010544 0
M  V30 54 H 0.788026 -4.452071 0.305348 0
M  V30 55 H 1.485639 -4.080484 -2.087805 0
M  V30 56 H 0.282319 -6.050114 -1.469695 0
M  V30 57 H -0.449614 -5.415244 -3.036522 0
M  V30 58 H -3.278060 -2.251370 -1.855274 0
M  V30 59 H -3.109432 -3.225643 -0.301598 0
M  V30 60 H -5.086249 -3.593751 -2.416870 0
M  V30 61 H -3.519764 -5.866627 -2.559534 0
M  V30 62 H -3.587013 -4.584514 -3.818224 0
M  V30 63 H 0.301200 -2.844646 -3.658047 0
M  V30 64 H -0.451809 -1.922096 -2.274446 0
M  V30 END ATOM
M  V30 BEGIN BOND
M  V30 1 1 1 2
M  V30 2 1 2 3
M  V30 3 2 3 4
M  V30 4 1 4 5
M  V30 5 2 5 6
M  V30 6 1 6 7
M  V30 7 2 7 8
M  V30 8 1 8 9
M  V30 9 2 9 10
M  V30 10 1 10 11
M  V30 11 2 11 12
M  V30 12 1 12 13
M  V30 13 2 13 14
M  V30 14 1 14 15
M  V30 15 2 15 16
M  V30 16 1 16 17
M  V30 17 1 17 18
M  V30 18 2 17 19
M  V30 19 1 12 20
M  V30 20 2 20 21
M  V30 21 1 21 22
M  V30 22 1 8 23
M  V30 23 2 23 24
M  V30 24 1 23 25
M  V30 25 1 25 26
M  V30 26 1 26 27
M  V30 27 1 27 28
M  V30 28 1 28 29
M  V30 29 1 29 30
M  V30 30 1 30 31
M  V30 31 1 31 32
M  V30 32 1 32 33
M  V30 33 1 30 34
M  V30 34 1 34 35
M  V30 35 1 25 36
M  V30 36 2 36 37
M  V30 37 1 37 3
M  V30 38 1 36 6
M  V30 39 1 21 9
M  V30 40 1 35 27
M  V30 41 1 19 13
M  V30 42 1 33 30
M  V30 43 1 1 38
M  V30 44 1 1 39
M  V30 45 1 1 40
M  V30 46 1 2 41
M  V30 47 1 5 42
M  V30 48 1 7 43
M  V30 49 1 10 44
M  V30 50 1 11 45
M  V30 51 1 14 46
M  V30 52 1 15 47
M  V30 53 1 16 48
M  V30 54 1 18 49
M  V30 55 1 18 50
M  V30 56 1 18 51
M  V30 57 1 20 52
M  V30 58 1 26 53
M  V30 59 1 26 54
M  V30 60 1 27 55
M  V30 61 1 28 56
M  V30 62 1 28 57
M  V30 63 1 31 58
M  V30 64 1 31 59
M  V30 65 1 32 60
M  V30 66 1 33 61
M  V30 67 1 33 62
M  V30 68 1 35 63
M  V30 69 1 35 64
M  V30 END BOND
M  V30 END CTAB
M  END
>  <Dataset>  (283) 
ChEMBL_Kinases

>  <Ligand_Instance>  (283) 
nan

>  <PDB_ID>  (283) 
nan

>  <Standardized_SMILES>  (283) 
CNc1ncc2cc(-c3ccc(-c4cccc(C)n4)cc3Cl)c(=O)n(CC3COC4(CNC4)OC3)c2n1

>  <Name>  (283) 
nan

>  <Pocket>  (283) 
nan

>  <ATP_Site>  (283) 
nan

>  <Peripheral>  (283) 
nan

>  <Num_H_Atoms_ProtBoundConf>  (283) 
nan

>  <Num_Resolved_Atoms>  (283) 
nan

>  <Num_Not_Resolved_Atoms>  (283) 
nan

$$$$
CHEMBL3770295
     RDKit          3D

  0  0  0  0  0  0  0  0  0  0999 V3000
M  V30 BEGIN CTAB
M  V30 COUNTS 62 66 0 0 0
M  V30 BEGIN ATOM
M  V30 1 C 5.344581 -3.737806 1.928110 0
M  V30 2 C 5.089975 -4.264159 0.537486 0
M  V30 3 N 5.339348 -3.230921 -0.453174 0
M  V30 4 C 4.422788 -2.204975 -0.098866 0
M  V30 5 N 4.786539 -1.226518 0.778392 0
M  V30 6 C 3.926726 -0.247628 1.122929 0
M  V30 7 C 2.657034 -0.280812 0.545416 0
M  V30 8 C 1.801102 0.737820 0.920956 0
M  V30 9 C 0.546834 0.710655 0.354732 0
M  V30 10 C -0.545666 1.654867 0.572625 0
M  V30 11 C -0.681850 2.776878 -0.226597 0
M  V30 12 C -1.705225 3.686427 -0.043238 0
M  V30 13 C -2.639266 3.505838 0.955759 0
M  V30 14 C -3.755037 4.404706 1.231520 0
M  V30 15 C -3.986834 5.550302 0.500591 0
M  V30 16 N -5.023652 6.386209 0.756937 0
M  V30 17 C -5.880673 6.115662 1.759329 0
M  V30 18 C -5.661674 4.973812 2.498814 0
M  V30 19 C -6.587052 4.654953 3.602976 0
M  V30 20 N -4.630466 4.152858 2.235286 0
M  V30 21 C -2.493834 2.383851 1.746559 0
M  V30 22 C -1.476736 1.467070 1.574885 0
M  V30 23 Cl -1.339888 0.052930 2.614075 0
M  V30 24 C 0.190168 -0.299289 -0.542577 0
M  V30 25 O -0.936427 -0.404500 -1.110531 0
M  V30 26 N 1.046430 -1.284002 -0.893105 0
M  V30 27 C 0.735450 -2.338921 -1.804429 0
M  V30 28 C 0.149963 -3.571795 -1.217272 0 CFG=1
M  V30 29 O -0.069648 -4.459290 -2.295564 0
M  V30 30 C -0.935517 -5.453011 -1.904268 0
M  V30 31 C -0.318780 -6.201542 -0.745673 0 CFG=2
M  V30 32 N -1.364775 -7.058705 -0.219713 0
M  V30 33 C 0.124191 -5.206532 0.294954 0
M  V30 34 O 0.945187 -4.243910 -0.323850 0
M  V30 35 C 2.280928 -1.272073 -0.346643 0
M  V30 36 N 3.188521 -2.216877 -0.645326 0
M  V30 37 H 4.382239 -3.326865 2.347959 0
M  V30 38 H 5.663801 -4.507628 2.635623 0
M  V30 39 H 6.063263 -2.900042 1.934546 0
M  V30 40 H 4.057556 -4.675637 0.443327 0
M  V30 41 H 5.763240 -5.139144 0.367025 0
M  V30 42 H 5.945117 -3.033548 -1.283837 0
M  V30 43 H 4.214936 0.520538 1.812800 0
M  V30 44 H 1.981575 1.539915 1.588764 0
M  V30 45 H 0.045583 2.926204 -1.011930 0
M  V30 46 H -1.793160 4.544051 -0.668765 0
M  V30 47 H -3.335137 5.823620 -0.317101 0
M  V30 48 H -6.685900 6.812858 1.919006 0
M  V30 49 H -7.128488 5.589586 3.923575 0
M  V30 50 H -7.414448 3.993554 3.224610 0
M  V30 51 H -6.094231 4.227133 4.498716 0
M  V30 52 H -3.184805 2.176376 2.546495 0
M  V30 53 H 1.637987 -2.606518 -2.380836 0
M  V30 54 H -0.012668 -1.946895 -2.543548 0
M  V30 55 H -0.865136 -3.413913 -0.785602 0
M  V30 56 H -1.906993 -4.988818 -1.596538 0
M  V30 57 H -1.120430 -6.120783 -2.771459 0
M  V30 58 H 0.545128 -6.773350 -1.128153 0
M  V30 59 H -1.860591 -7.528807 -0.996083 0
M  V30 60 H -1.048640 -7.728727 0.494859 0
M  V30 61 H 0.598792 -5.659144 1.164807 0
M  V30 62 H -0.792533 -4.637825 0.603940 0
M  V30 END ATOM
M  V30 BEGIN BOND
M  V30 1 1 1 2
M  V30 2 1 2 3
M  V30 3 1 3 4
M  V30 4 2 4 5
M  V30 5 1 5 6
M  V30 6 2 6 7
M  V30 7 1 7 8
M  V30 8 2 8 9
M  V30 9 1 9 10
M  V30 10 2 10 11
M  V30 11 1 11 12
M  V30 12 2 12 13
M  V30 13 1 13 14
M  V30 14 2 14 15
M  V30 15 1 15 16
M  V30 16 2 16 17
M  V30 17 1 17 18
M  V30 18 1 18 19
M  V30 19 2 18 20
M  V30 20 1 13 21
M  V30 21 2 21 22
M  V30 22 1 22 23
M  V30 23 1 9 24
M  V30 24 2 24 25
M  V30 25 1 24 26
M  V30 26 1 26 27
M  V30 27 1 27 28
M  V30 28 1 28 29
M  V30 29 1 29 30
M  V30 30 1 30 31
M  V30 31 1 31 32
M  V30 32 1 31 33
M  V30 33 1 33 34
M  V30 34 1 26 35
M  V30 35 2 35 36
M  V30 36 1 36 4
M  V30 37 1 35 7
M  V30 38 1 22 10
M  V30 39 1 34 28
M  V30 40 1 20 14
M  V30 41 1 1 37
M  V30 42 1 1 38
M  V30 43 1 1 39
M  V30 44 1 2 40
M  V30 45 1 2 41
M  V30 46 1 3 42
M  V30 47 1 6 43
M  V30 48 1 8 44
M  V30 49 1 11 45
M  V30 50 1 12 46
M  V30 51 1 15 47
M  V30 52 1 17 48
M  V30 53 1 19 49
M  V30 54 1 19 50
M  V30 55 1 19 51
M  V30 56 1 21 52
M  V30 57 1 27 53
M  V30 58 1 27 54
M  V30 59 1 28 55 CFG=1
M  V30 60 1 30 56
M  V30 61 1 30 57
M  V30 62 1 31 58 CFG=3
M  V30 63 1 32 59
M  V30 64 1 32 60
M  V30 65 1 33 61
M  V30 66 1 33 62
M  V30 END BOND
M  V30 END CTAB
M  END
>  <Dataset>  (284) 
ChEMBL_Kinases

>  <Ligand_Instance>  (284) 
nan

>  <PDB_ID>  (284) 
nan

>  <Standardized_SMILES>  (284) 
CCNc1ncc2cc(-c3ccc(-c4cncc(C)n4)cc3Cl)c(=O)n(C[C@H]3OC[C@H](N)CO3)c2n1

>  <Name>  (284) 
nan

>  <Pocket>  (284) 
nan

>  <ATP_Site>  (284) 
nan

>  <Peripheral>  (284) 
nan

>  <Num_H_Atoms_ProtBoundConf>  (284) 
nan

>  <Num_Resolved_Atoms>  (284) 
nan

>  <Num_Not_Resolved_Atoms>  (284) 
nan

$$$$
CHEMBL5084842
     RDKit          3D

  0  0  0  0  0  0  0  0  0  0999 V3000
M  V30 BEGIN CTAB
M  V30 COUNTS 56 59 0 0 0
M  V30 BEGIN ATOM
M  V30 1 C 6.908696 3.452431 3.923511 0
M  V30 2 O 5.801826 2.559949 3.957611 0
M  V30 3 C 5.268680 2.159101 5.194587 0
M  V30 4 O 5.794602 2.609168 6.267949 0
M  V30 5 C 4.123329 1.239528 5.396353 0 CFG=2
M  V30 6 C 4.579157 0.013977 6.200349 0
M  V30 7 N 3.599224 0.785841 4.145991 0
M  V30 8 C 2.260652 0.919671 3.676791 0
M  V30 9 O 1.511214 1.508367 4.496383 0
M  V30 10 C 1.835476 0.413525 2.371927 0
M  V30 11 C 2.663646 -0.234195 1.471071 0
M  V30 12 C 2.191946 -0.686539 0.254957 0
M  V30 13 C 0.867513 -0.510338 -0.114480 0
M  V30 14 C 0.060449 0.146759 0.817887 0
M  V30 15 C 0.494848 0.622980 2.063494 0
M  V30 16 C -1.378509 0.437492 0.626155 0
M  V30 17 O -1.836221 1.403970 1.303522 0
M  V30 18 C -2.287853 -0.302867 -0.275537 0
M  V30 19 C -3.572493 0.168986 -0.138689 0
M  V30 20 C -4.592783 -0.379114 -0.886961 0
M  V30 21 C -4.303594 -1.399531 -1.766793 0
M  V30 22 N -5.333885 -1.984190 -2.552140 0
M  V30 23 C -5.252570 -3.044906 -3.491705 0
M  V30 24 C -5.611936 -2.827498 -4.816923 0
M  V30 25 C -5.558267 -3.810156 -5.780248 0
M  V30 26 C -5.130036 -5.051086 -5.400994 0
M  V30 27 F -5.016647 -6.139870 -6.230233 0
M  V30 28 C -4.758648 -5.334947 -4.103651 0
M  V30 29 C -4.820886 -4.332414 -3.153802 0
M  V30 30 F -4.459569 -4.583733 -1.856452 0
M  V30 31 C -2.997134 -1.858997 -1.887085 0
M  V30 32 C -1.927730 -1.336078 -1.150608 0
M  V30 33 C -0.647416 -1.976637 -1.445177 0
M  V30 34 C 0.533492 -1.046466 -1.429851 0
M  V30 35 H 6.838481 4.242319 4.722158 0
M  V30 36 H 6.966707 3.985428 2.968504 0
M  V30 37 H 7.866323 2.904057 4.073760 0
M  V30 38 H 3.390943 1.743014 6.039426 0
M  V30 39 H 3.741578 -0.325667 6.870320 0
M  V30 40 H 4.729415 -0.838276 5.488062 0
M  V30 41 H 5.509329 0.200459 6.755734 0
M  V30 42 H 4.322942 0.314848 3.558965 0
M  V30 43 H 3.688357 -0.375320 1.746877 0
M  V30 44 H 2.879093 -1.187612 -0.416144 0
M  V30 45 H -0.242903 1.115187 2.687696 0
M  V30 46 H -3.785413 0.960078 0.546335 0
M  V30 47 H -5.611694 -0.065971 -0.835155 0
M  V30 48 H -6.309747 -1.626579 -2.471165 0
M  V30 49 H -5.954187 -1.831891 -5.115458 0
M  V30 50 H -5.829287 -3.674251 -6.812982 0
M  V30 51 H -4.412267 -6.295295 -3.743774 0
M  V30 52 H -2.711183 -2.655118 -2.560376 0
M  V30 53 H -0.704939 -2.505167 -2.403104 0
M  V30 54 H -0.449104 -2.752791 -0.677718 0
M  V30 55 H 0.284097 -0.205176 -2.120683 0
M  V30 56 H 1.408391 -1.534322 -1.865640 0
M  V30 END ATOM
M  V30 BEGIN BOND
M  V30 1 1 1 2
M  V30 2 1 2 3
M  V30 3 2 3 4
M  V30 4 1 3 5
M  V30 5 1 5 6
M  V30 6 1 5 7
M  V30 7 1 7 8
M  V30 8 2 8 9
M  V30 9 1 8 10
M  V30 10 2 10 11
M  V30 11 1 11 12
M  V30 12 2 12 13
M  V30 13 1 13 14
M  V30 14 2 14 15
M  V30 15 1 14 16
M  V30 16 2 16 17
M  V30 17 1 16 18
M  V30 18 2 18 19
M  V30 19 1 19 20
M  V30 20 2 20 21
M  V30 21 1 21 22
M  V30 22 1 22 23
M  V30 23 2 23 24
M  V30 24 1 24 25
M  V30 25 2 25 26
M  V30 26 1 26 27
M  V30 27 1 26 28
M  V30 28 2 28 29
M  V30 29 1 29 30
M  V30 30 1 21 31
M  V30 31 2 31 32
M  V30 32 1 32 33
M  V30 33 1 33 34
M  V30 34 1 15 10
M  V30 35 1 32 18
M  V30 36 1 34 13
M  V30 37 1 29 23
M  V30 38 1 1 35
M  V30 39 1 1 36
M  V30 40 1 1 37
M  V30 41 1 5 38 CFG=1
M  V30 42 1 6 39
M  V30 43 1 6 40
M  V30 44 1 6 41
M  V30 45 1 7 42
M  V30 46 1 11 43
M  V30 47 1 12 44
M  V30 48 1 15 45
M  V30 49 1 19 46
M  V30 50 1 20 47
M  V30 51 1 22 48
M  V30 52 1 24 49
M  V30 53 1 25 50
M  V30 54 1 28 51
M  V30 55 1 31 52
M  V30 56 1 33 53
M  V30 57 1 33 54
M  V30 58 1 34 55
M  V30 59 1 34 56
M  V30 END BOND
M  V30 END CTAB
M  END
>  <Dataset>  (285) 
ChEMBL_Kinases

>  <Ligand_Instance>  (285) 
nan

>  <PDB_ID>  (285) 
nan

>  <Standardized_SMILES>  (285) 
COC(=O)[C@H](C)NC(=O)c1ccc2c(c1)C(=O)c1ccc(Nc3ccc(F)cc3F)cc1CC2

>  <Name>  (285) 
nan

>  <Pocket>  (285) 
nan

>  <ATP_Site>  (285) 
nan

>  <Peripheral>  (285) 
nan

>  <Num_H_Atoms_ProtBoundConf>  (285) 
nan

>  <Num_Resolved_Atoms>  (285) 
nan

>  <Num_Not_Resolved_Atoms>  (285) 
nan

$$$$
CHEMBL3769981
     RDKit          3D

  0  0  0  0  0  0  0  0  0  0999 V3000
M  V30 BEGIN CTAB
M  V30 COUNTS 62 66 0 0 0
M  V30 BEGIN ATOM
M  V30 1 C 5.066800 -2.677620 3.654354 0
M  V30 2 C 6.095916 -1.648482 3.259728 0
M  V30 3 N 5.926343 -1.232379 1.860448 0
M  V30 4 C 4.667299 -0.644198 1.536341 0
M  V30 5 N 4.557454 0.696373 1.665339 0
M  V30 6 C 3.385833 1.323977 1.373494 0
M  V30 7 C 2.330776 0.547692 0.947047 0
M  V30 8 C 1.155850 1.209644 0.658363 0
M  V30 9 C 0.107110 0.419610 0.232015 0
M  V30 10 C -1.210925 0.979865 -0.114156 0
M  V30 11 C -2.187430 1.105460 0.854972 0
M  V30 12 C -3.410144 1.636454 0.486550 0
M  V30 13 C -3.680924 2.039651 -0.803892 0
M  V30 14 C -4.953539 2.605517 -1.243862 0
M  V30 15 C -6.017568 2.789087 -0.387117 0
M  V30 16 N -7.207809 3.318062 -0.798210 0
M  V30 17 C -7.334554 3.671761 -2.100359 0
M  V30 18 C -6.285788 3.499168 -2.980144 0
M  V30 19 C -6.433754 3.889824 -4.406854 0
M  V30 20 N -5.134199 2.973902 -2.525384 0
M  V30 21 C -2.663428 1.887746 -1.724692 0
M  V30 22 C -1.419923 1.365192 -1.423998 0
M  V30 23 Cl -0.168082 1.197062 -2.636177 0
M  V30 24 C 0.227801 -0.948281 0.102915 0
M  V30 25 O -0.724579 -1.671167 -0.286560 0
M  V30 26 N 1.370360 -1.595279 0.383666 0
M  V30 27 C 1.653977 -3.009090 0.313512 0
M  V30 28 C 1.421426 -3.759616 1.592630 0
M  V30 29 C 1.754281 -5.211771 1.383354 0
M  V30 30 C 0.606356 -6.152323 1.516118 0
M  V30 31 N -0.587890 -5.601834 0.870920 0
M  V30 32 C -0.921661 -4.362194 1.482640 0
M  V30 33 O -2.084157 -3.825932 1.473598 0
M  V30 34 C 0.077842 -3.542134 2.215375 0
M  V30 35 C 2.412444 -0.821026 0.805768 0
M  V30 36 N 3.606928 -1.356931 1.115977 0
M  V30 37 H 4.532116 -3.060367 2.766546 0
M  V30 38 H 5.506247 -3.564475 4.156798 0
M  V30 39 H 4.302541 -2.243181 4.318219 0
M  V30 40 H 7.089345 -2.075107 3.446851 0
M  V30 41 H 5.952673 -0.722421 3.851540 0
M  V30 42 H 6.433586 -1.209987 0.947735 0
M  V30 43 H 3.281380 2.388182 1.470440 0
M  V30 44 H 0.958669 2.263821 0.725148 0
M  V30 45 H -2.034192 0.807547 1.880251 0
M  V30 46 H -4.175467 1.738190 1.232038 0
M  V30 47 H -5.954318 2.523237 0.640609 0
M  V30 48 H -8.279836 4.095592 -2.442750 0
M  V30 49 H -5.632961 3.370358 -4.971522 0
M  V30 50 H -7.420825 3.539073 -4.765748 0
M  V30 51 H -6.316366 4.982603 -4.579166 0
M  V30 52 H -2.795442 2.180563 -2.761149 0
M  V30 53 H 2.733096 -3.170734 0.047569 0
M  V30 54 H 1.088764 -3.492387 -0.533621 0
M  V30 55 H 2.171296 -3.402309 2.367511 0
M  V30 56 H 2.171054 -5.365937 0.345457 0
M  V30 57 H 2.572087 -5.585592 2.045925 0
M  V30 58 H 0.396233 -6.454534 2.562811 0
M  V30 59 H 0.855206 -7.089821 0.972422 0
M  V30 60 H -1.212100 -5.890666 0.113109 0
M  V30 61 H 0.133139 -4.005478 3.235199 0
M  V30 62 H -0.155548 -2.474202 2.257765 0
M  V30 END ATOM
M  V30 BEGIN BOND
M  V30 1 1 1 2
M  V30 2 1 2 3
M  V30 3 1 3 4
M  V30 4 2 4 5
M  V30 5 1 5 6
M  V30 6 2 6 7
M  V30 7 1 7 8
M  V30 8 2 8 9
M  V30 9 1 9 10
M  V30 10 2 10 11
M  V30 11 1 11 12
M  V30 12 2 12 13
M  V30 13 1 13 14
M  V30 14 2 14 15
M  V30 15 1 15 16
M  V30 16 2 16 17
M  V30 17 1 17 18
M  V30 18 1 18 19
M  V30 19 2 18 20
M  V30 20 1 13 21
M  V30 21 2 21 22
M  V30 22 1 22 23
M  V30 23 1 9 24
M  V30 24 2 24 25
M  V30 25 1 24 26
M  V30 26 1 26 27
M  V30 27 1 27 28
M  V30 28 1 28 29
M  V30 29 1 29 30
M  V30 30 1 30 31
M  V30 31 1 31 32
M  V30 32 2 32 33
M  V30 33 1 32 34
M  V30 34 1 26 35
M  V30 35 2 35 36
M  V30 36 1 36 4
M  V30 37 1 35 7
M  V30 38 1 22 10
M  V30 39 1 34 28
M  V30 40 1 20 14
M  V30 41 1 1 37
M  V30 42 1 1 38
M  V30 43 1 1 39
M  V30 44 1 2 40
M  V30 45 1 2 41
M  V30 46 1 3 42
M  V30 47 1 6 43
M  V30 48 1 8 44
M  V30 49 1 11 45
M  V30 50 1 12 46
M  V30 51 1 15 47
M  V30 52 1 17 48
M  V30 53 1 19 49
M  V30 54 1 19 50
M  V30 55 1 19 51
M  V30 56 1 21 52
M  V30 57 1 27 53
M  V30 58 1 27 54
M  V30 59 1 28 55
M  V30 60 1 29 56
M  V30 61 1 29 57
M  V30 62 1 30 58
M  V30 63 1 30 59
M  V30 64 1 31 60
M  V30 65 1 34 61
M  V30 66 1 34 62
M  V30 END BOND
M  V30 END CTAB
M  END
>  <Dataset>  (286) 
ChEMBL_Kinases

>  <Ligand_Instance>  (286) 
nan

>  <PDB_ID>  (286) 
nan

>  <Standardized_SMILES>  (286) 
CCNc1ncc2cc(-c3ccc(-c4cncc(C)n4)cc3Cl)c(=O)n(CC3CCNC(=O)C3)c2n1

>  <Name>  (286) 
nan

>  <Pocket>  (286) 
nan

>  <ATP_Site>  (286) 
nan

>  <Peripheral>  (286) 
nan

>  <Num_H_Atoms_ProtBoundConf>  (286) 
nan

>  <Num_Resolved_Atoms>  (286) 
nan

>  <Num_Not_Resolved_Atoms>  (286) 
nan

$$$$
CHEMBL3769748
     RDKit          3D

  0  0  0  0  0  0  0  0  0  0999 V3000
M  V30 BEGIN CTAB
M  V30 COUNTS 63 67 0 0 0
M  V30 BEGIN ATOM
M  V30 1 C 5.252795 -4.049558 1.845837 0
M  V30 2 C 6.346918 -3.025725 1.536151 0
M  V30 3 N 5.902988 -2.270811 0.383386 0
M  V30 4 C 4.684472 -1.597524 0.620864 0
M  V30 5 N 4.829743 -0.341974 1.121317 0
M  V30 6 C 3.727579 0.387432 1.383704 0
M  V30 7 C 2.451678 -0.104940 1.158328 0
M  V30 8 C 1.389502 0.713978 1.457058 0
M  V30 9 C 0.145633 0.165401 1.210371 0
M  V30 10 C -1.089367 0.933337 1.484701 0
M  V30 11 C -1.568658 1.705748 0.442119 0
M  V30 12 C -2.731729 2.454954 0.637507 0
M  V30 13 C -3.365794 2.401994 1.861593 0
M  V30 14 C -4.576782 3.201632 2.017463 0
M  V30 15 C -5.340432 3.273848 3.162102 0
M  V30 16 N -6.448380 4.030274 3.244456 0
M  V30 17 C -6.858912 4.764880 2.174541 0
M  V30 18 C -6.112396 4.704336 1.031242 0
M  V30 19 C -6.447994 5.460354 -0.219783 0
M  V30 20 N -5.008788 3.938324 0.979614 0
M  V30 21 C -2.855413 1.619034 2.875988 0
M  V30 22 C -1.707555 0.865262 2.717983 0
M  V30 23 Cl -1.038661 -0.135180 3.985214 0
M  V30 24 C 0.058883 -1.115334 0.701528 0
M  V30 25 O -1.094910 -1.572666 0.494712 0
M  V30 26 N 1.109947 -1.904935 0.413767 0
M  V30 27 C 1.060761 -3.223201 -0.120590 0
M  V30 28 C 1.118307 -3.318102 -1.621842 0
M  V30 29 C 0.002417 -2.607689 -2.335430 0
M  V30 30 C -1.285779 -3.369228 -2.321698 0
M  V30 31 N -1.012542 -4.632646 -3.027605 0
M  V30 32 C -0.175740 -5.402838 -2.127941 0
M  V30 33 C 1.195135 -4.778385 -2.025655 0
M  V30 34 C 2.332931 -1.392634 0.645789 0
M  V30 35 N 3.450623 -2.089868 0.396501 0
M  V30 36 H 4.789901 -4.412378 0.906676 0
M  V30 37 H 5.660353 -4.945158 2.364635 0
M  V30 38 H 4.417430 -3.560538 2.414096 0
M  V30 39 H 7.260290 -3.583546 1.246951 0
M  V30 40 H 6.569854 -2.399322 2.402872 0
M  V30 41 H 6.222422 -2.069670 -0.597301 0
M  V30 42 H 3.858471 1.391528 1.784243 0
M  V30 43 H 1.459286 1.696850 1.847647 0
M  V30 44 H -1.060545 1.743077 -0.526440 0
M  V30 45 H -3.069290 3.043645 -0.205019 0
M  V30 46 H -5.028010 2.699820 4.012549 0
M  V30 47 H -7.721820 5.404530 2.116305 0
M  V30 48 H -5.518873 5.693757 -0.772961 0
M  V30 49 H -6.930641 6.412579 0.026157 0
M  V30 50 H -7.106450 4.896596 -0.899512 0
M  V30 51 H -3.344104 1.571985 3.834537 0
M  V30 52 H 1.931830 -3.824704 0.262517 0
M  V30 53 H 0.168827 -3.769711 0.292427 0
M  V30 54 H 2.072414 -2.853692 -1.942881 0
M  V30 55 H 0.303688 -2.565523 -3.426158 0
M  V30 56 H -0.098325 -1.576798 -2.026863 0
M  V30 57 H -1.635195 -3.660008 -1.317250 0
M  V30 58 H -2.041202 -2.754896 -2.832200 0
M  V30 59 H -1.883911 -5.146519 -3.271811 0
M  V30 60 H -0.039710 -6.432553 -2.464275 0
M  V30 61 H -0.691382 -5.360887 -1.128516 0
M  V30 62 H 1.697013 -4.921536 -3.004379 0
M  V30 63 H 1.761737 -5.337046 -1.259043 0
M  V30 END ATOM
M  V30 BEGIN BOND
M  V30 1 1 1 2
M  V30 2 1 2 3
M  V30 3 1 3 4
M  V30 4 2 4 5
M  V30 5 1 5 6
M  V30 6 2 6 7
M  V30 7 1 7 8
M  V30 8 2 8 9
M  V30 9 1 9 10
M  V30 10 2 10 11
M  V30 11 1 11 12
M  V30 12 2 12 13
M  V30 13 1 13 14
M  V30 14 2 14 15
M  V30 15 1 15 16
M  V30 16 2 16 17
M  V30 17 1 17 18
M  V30 18 1 18 19
M  V30 19 2 18 20
M  V30 20 1 13 21
M  V30 21 2 21 22
M  V30 22 1 22 23
M  V30 23 1 9 24
M  V30 24 2 24 25
M  V30 25 1 24 26
M  V30 26 1 26 27
M  V30 27 1 27 28
M  V30 28 1 28 29
M  V30 29 1 29 30
M  V30 30 1 30 31
M  V30 31 1 31 32
M  V30 32 1 32 33
M  V30 33 1 26 34
M  V30 34 2 34 35
M  V30 35 1 35 4
M  V30 36 1 34 7
M  V30 37 1 22 10
M  V30 38 1 33 28
M  V30 39 1 20 14
M  V30 40 1 1 36
M  V30 41 1 1 37
M  V30 42 1 1 38
M  V30 43 1 2 39
M  V30 44 1 2 40
M  V30 45 1 3 41
M  V30 46 1 6 42
M  V30 47 1 8 43
M  V30 48 1 11 44
M  V30 49 1 12 45
M  V30 50 1 15 46
M  V30 51 1 17 47
M  V30 52 1 19 48
M  V30 53 1 19 49
M  V30 54 1 19 50
M  V30 55 1 21 51
M  V30 56 1 27 52
M  V30 57 1 27 53
M  V30 58 1 28 54
M  V30 59 1 29 55
M  V30 60 1 29 56
M  V30 61 1 30 57
M  V30 62 1 30 58
M  V30 63 1 31 59
M  V30 64 1 32 60
M  V30 65 1 32 61
M  V30 66 1 33 62
M  V30 67 1 33 63
M  V30 END BOND
M  V30 END CTAB
M  END
>  <Dataset>  (287) 
ChEMBL_Kinases

>  <Ligand_Instance>  (287) 
nan

>  <PDB_ID>  (287) 
nan

>  <Standardized_SMILES>  (287) 
CCNc1ncc2cc(-c3ccc(-c4cncc(C)n4)cc3Cl)c(=O)n(CC3CCNCC3)c2n1

>  <Name>  (287) 
nan

>  <Pocket>  (287) 
nan

>  <ATP_Site>  (287) 
nan

>  <Peripheral>  (287) 
nan

>  <Num_H_Atoms_ProtBoundConf>  (287) 
nan

>  <Num_Resolved_Atoms>  (287) 
nan

>  <Num_Not_Resolved_Atoms>  (287) 
nan

$$$$
CHEMBL376959
     RDKit          3D

  0  0  0  0  0  0  0  0  0  0999 V3000
M  V30 BEGIN CTAB
M  V30 COUNTS 69 75 0 0 0
M  V30 BEGIN ATOM
M  V30 1 O 6.732020 -3.321482 3.224645 0
M  V30 2 N 6.102826 -2.243964 3.444359 0
M  V30 3 C 4.768827 -2.301441 3.899517 0
M  V30 4 C 4.383498 -2.844281 5.107052 0
M  V30 5 O 5.130306 -3.430649 6.116456 0
M  V30 6 N 3.037733 -2.721839 5.198698 0
M  V30 7 C 2.586501 -2.120665 4.084275 0
M  V30 8 C 1.315524 -1.774045 3.698486 0
M  V30 9 C 1.159243 -1.158680 2.480453 0
M  V30 10 C 2.181890 -0.858558 1.608257 0
M  V30 11 N 1.999131 -0.210967 0.355221 0
M  V30 12 C 0.781227 0.283582 -0.241753 0 CFG=2
M  V30 13 C 0.989549 0.551845 -1.731849 0
M  V30 14 O -0.164289 1.030463 -2.327868 0
M  V30 15 C -1.392092 0.472056 -2.490359 0
M  V30 16 C -2.157178 1.450508 -3.156025 0
M  V30 17 N -3.468041 1.263371 -3.504358 0
M  V30 18 C -4.086512 0.098513 -3.211369 0
M  V30 19 C -3.380499 -0.887669 -2.562157 0
M  V30 20 C -3.898039 -2.200786 -2.173670 0
M  V30 21 C -3.081801 -3.333074 -2.120809 0
M  V30 22 C -3.693717 -4.516218 -1.738359 0
M  V30 23 C -5.031576 -4.609570 -1.420187 0
M  V30 24 N -5.737318 -5.690514 -1.038033 0
M  V30 25 C -7.006925 -5.281653 -0.839383 0
M  V30 26 O -8.062687 -6.117956 -0.429880 0
M  V30 27 C -7.073190 -3.925576 -1.106254 0
M  V30 28 N -8.212822 -3.087520 -1.025487 0
M  V30 29 O -9.137661 -3.248549 -0.207515 0
M  V30 30 C -5.838499 -3.473870 -1.475826 0
M  V30 31 C -5.225006 -2.290251 -1.858682 0
M  V30 32 C -2.067934 -0.693976 -2.216101 0
M  V30 33 C 0.294575 1.565328 0.415762 0
M  V30 34 C 1.247667 2.689488 0.310453 0
M  V30 35 C 1.063971 3.611138 -0.737472 0
M  V30 36 N 2.018901 4.536437 -0.719131 0
M  V30 37 C 2.862088 4.299833 0.298457 0
M  V30 38 C 3.999311 4.869852 0.837111 0
M  V30 39 C 4.639258 4.333856 1.961828 0
M  V30 40 C 4.097271 3.189095 2.542639 0
M  V30 41 C 2.970517 2.620912 2.011621 0
M  V30 42 C 2.379680 3.168524 0.920769 0
M  V30 43 C 3.418781 -1.221048 2.034521 0
M  V30 44 C 3.638169 -1.840416 3.244311 0
M  V30 45 H 4.850962 -4.313669 6.559450 0
M  V30 46 H 2.434764 -3.038855 5.999691 0
M  V30 47 H 0.471268 -1.990315 4.354641 0
M  V30 48 H 0.137240 -0.918149 2.229545 0
M  V30 49 H 2.868277 -0.066806 -0.224509 0
M  V30 50 H 0.006343 -0.474620 -0.134243 0
M  V30 51 H 1.269064 -0.389862 -2.260456 0
M  V30 52 H 1.831154 1.244663 -1.871035 0
M  V30 53 H -1.914168 2.463807 -3.507215 0
M  V30 54 H -5.104581 -0.143766 -3.440928 0
M  V30 55 H -2.035757 -3.239050 -2.373755 0
M  V30 56 H -3.037655 -5.397270 -1.701644 0
M  V30 57 H -5.365513 -6.660561 -0.919618 0
M  V30 58 H -7.852164 -6.980769 0.055531 0
M  V30 59 H -5.901599 -1.445341 -1.883108 0
M  V30 60 H -1.402771 -1.380215 -1.720419 0
M  V30 61 H 0.091493 1.311333 1.499638 0
M  V30 62 H -0.707538 1.836094 0.027855 0
M  V30 63 H 0.284964 3.658338 -1.514352 0
M  V30 64 H 2.162752 5.352959 -1.360378 0
M  V30 65 H 4.363739 5.766494 0.324919 0
M  V30 66 H 5.536532 4.848650 2.323905 0
M  V30 67 H 4.631849 2.817343 3.410346 0
M  V30 68 H 2.599435 1.753066 2.512161 0
M  V30 69 H 4.308072 -1.048861 1.455938 0
M  V30 END ATOM
M  V30 BEGIN BOND
M  V30 1 2 1 2
M  V30 2 1 2 3
M  V30 3 2 3 4
M  V30 4 1 4 5
M  V30 5 1 4 6
M  V30 6 1 6 7
M  V30 7 2 7 8
M  V30 8 1 8 9
M  V30 9 2 9 10
M  V30 10 1 10 11
M  V30 11 1 11 12
M  V30 12 1 12 13
M  V30 13 1 13 14
M  V30 14 1 14 15
M  V30 15 2 15 16
M  V30 16 1 16 17
M  V30 17 2 17 18
M  V30 18 1 18 19
M  V30 19 1 19 20
M  V30 20 2 20 21
M  V30 21 1 21 22
M  V30 22 2 22 23
M  V30 23 1 23 24
M  V30 24 1 24 25
M  V30 25 1 25 26
M  V30 26 2 25 27
M  V30 27 1 27 28
M  V30 28 2 28 29
M  V30 29 1 27 30
M  V30 30 2 30 31
M  V30 31 2 19 32
M  V30 32 1 12 33
M  V30 33 1 33 34
M  V30 34 2 34 35
M  V30 35 1 35 36
M  V30 36 1 36 37
M  V30 37 2 37 38
M  V30 38 1 38 39
M  V30 39 2 39 40
M  V30 40 1 40 41
M  V30 41 2 41 42
M  V30 42 1 10 43
M  V30 43 2 43 44
M  V30 44 1 44 3
M  V30 45 1 44 7
M  V30 46 1 32 15
M  V30 47 1 42 34
M  V30 48 1 31 20
M  V30 49 1 42 37
M  V30 50 1 30 23
M  V30 51 1 5 45
M  V30 52 1 6 46
M  V30 53 1 8 47
M  V30 54 1 9 48
M  V30 55 1 11 49
M  V30 56 1 12 50 CFG=3
M  V30 57 1 13 51
M  V30 58 1 13 52
M  V30 59 1 16 53
M  V30 60 1 18 54
M  V30 61 1 21 55
M  V30 62 1 22 56
M  V30 63 1 24 57
M  V30 64 1 26 58
M  V30 65 1 31 59
M  V30 66 1 32 60
M  V30 67 1 33 61
M  V30 68 1 33 62
M  V30 69 1 35 63
M  V30 70 1 36 64
M  V30 71 1 38 65
M  V30 72 1 39 66
M  V30 73 1 40 67
M  V30 74 1 41 68
M  V30 75 1 43 69
M  V30 END BOND
M  V30 END CTAB
M  END
>  <Dataset>  (288) 
ChEMBL_Kinases

>  <Ligand_Instance>  (288) 
nan

>  <PDB_ID>  (288) 
nan

>  <Standardized_SMILES>  (288) 
O=Nc1c(O)[nH]c2ccc(N[C@H](COc3cncc(-c4ccc5[nH]c(O)c(N=O)c5c4)c3)Cc3c[nH]c4ccccc34)cc12

>  <Name>  (288) 
nan

>  <Pocket>  (288) 
nan

>  <ATP_Site>  (288) 
nan

>  <Peripheral>  (288) 
nan

>  <Num_H_Atoms_ProtBoundConf>  (288) 
nan

>  <Num_Resolved_Atoms>  (288) 
nan

>  <Num_Not_Resolved_Atoms>  (288) 
nan

$$$$
CHEMBL377875
     RDKit          3D

  0  0  0  0  0  0  0  0  0  0999 V3000
M  V30 BEGIN CTAB
M  V30 COUNTS 42 45 0 0 0
M  V30 BEGIN ATOM
M  V30 1 C 1.283361 -4.748957 1.525514 0
M  V30 2 C 1.880310 -3.420793 1.211015 0
M  V30 3 C 2.646493 -2.759538 2.149256 0
M  V30 4 C 3.230836 -1.528535 1.927091 0
M  V30 5 C 3.035727 -0.918896 0.684326 0
M  V30 6 C 2.271622 -1.568466 -0.263546 0
M  V30 7 C 1.968314 -1.078355 -1.607599 0
M  V30 8 N 2.237036 -1.538425 -2.846614 0
M  V30 9 C 1.707953 -0.672488 -3.759486 0
M  V30 10 O 1.133052 0.288000 -3.103751 0
M  V30 11 C 1.264521 0.085768 -1.793367 0
M  V30 12 C 0.725841 0.990828 -0.767950 0
M  V30 13 C 1.199476 2.308434 -0.785947 0
M  V30 14 C 0.743557 3.236339 0.150721 0
M  V30 15 C -0.193700 2.827405 1.106878 0
M  V30 16 N -0.799312 3.504665 2.118696 0
M  V30 17 N -1.602878 2.642705 2.724679 0
M  V30 18 C -1.511890 1.439422 2.111701 0
M  V30 19 C -2.280052 0.224693 2.528042 0
M  V30 20 C -3.163710 -0.320282 1.451649 0
M  V30 21 C -1.319040 -0.814649 3.066235 0
M  V30 22 N -0.633253 1.534929 1.094795 0
M  V30 23 C -0.197438 0.633765 0.193349 0
M  V30 24 C 1.698594 -2.803396 -0.010017 0
M  V30 25 H 0.827849 -4.782450 2.532848 0
M  V30 26 H 0.463824 -4.974991 0.796588 0
M  V30 27 H 2.043692 -5.554786 1.440510 0
M  V30 28 H 2.804666 -3.227354 3.122508 0
M  V30 29 H 3.834312 -0.988617 2.642199 0
M  V30 30 H 3.433229 0.038919 0.377318 0
M  V30 31 H 1.880624 -0.970804 -4.785800 0
M  V30 32 H 1.933191 2.711965 -1.500170 0
M  V30 33 H 1.100285 4.272049 0.155542 0
M  V30 34 H -2.914692 0.520694 3.388543 0
M  V30 35 H -3.343702 0.384872 0.609461 0
M  V30 36 H -4.162020 -0.578860 1.852121 0
M  V30 37 H -2.710347 -1.269746 1.065604 0
M  V30 38 H -1.756173 -1.396745 3.900638 0
M  V30 39 H -0.473769 -0.230794 3.534874 0
M  V30 40 H -0.961089 -1.526766 2.311196 0
M  V30 41 H -0.551404 -0.398452 0.187787 0
M  V30 42 H 1.090999 -3.364854 -0.705723 0
M  V30 END ATOM
M  V30 BEGIN BOND
M  V30 1 1 1 2
M  V30 2 2 2 3
M  V30 3 1 3 4
M  V30 4 2 4 5
M  V30 5 1 5 6
M  V30 6 1 6 7
M  V30 7 1 7 8
M  V30 8 2 8 9
M  V30 9 1 9 10
M  V30 10 1 10 11
M  V30 11 1 11 12
M  V30 12 1 12 13
M  V30 13 2 13 14
M  V30 14 1 14 15
M  V30 15 2 15 16
M  V30 16 1 16 17
M  V30 17 2 17 18
M  V30 18 1 18 19
M  V30 19 1 19 20
M  V30 20 1 19 21
M  V30 21 1 18 22
M  V30 22 1 22 23
M  V30 23 2 6 24
M  V30 24 1 24 2
M  V30 25 2 11 7
M  V30 26 2 23 12
M  V30 27 1 22 15
M  V30 28 1 1 25
M  V30 29 1 1 26
M  V30 30 1 1 27
M  V30 31 1 3 28
M  V30 32 1 4 29
M  V30 33 1 5 30
M  V30 34 1 9 31
M  V30 35 1 13 32
M  V30 36 1 14 33
M  V30 37 1 19 34
M  V30 38 1 20 35
M  V30 39 1 20 36
M  V30 40 1 20 37
M  V30 41 1 21 38
M  V30 42 1 21 39
M  V30 43 1 21 40
M  V30 44 1 23 41
M  V30 45 1 24 42
M  V30 END BOND
M  V30 END CTAB
M  END
>  <Dataset>  (289) 
ChEMBL_Kinases

>  <Ligand_Instance>  (289) 
nan

>  <PDB_ID>  (289) 
nan

>  <Standardized_SMILES>  (289) 
Cc1cccc(-c2ncoc2-c2ccc3nnc(C(C)C)n3c2)c1

>  <Name>  (289) 
nan

>  <Pocket>  (289) 
nan

>  <ATP_Site>  (289) 
nan

>  <Peripheral>  (289) 
nan

>  <Num_H_Atoms_ProtBoundConf>  (289) 
nan

>  <Num_Resolved_Atoms>  (289) 
nan

>  <Num_Not_Resolved_Atoms>  (289) 
nan

$$$$
CHEMBL3769478
     RDKit          3D

  0  0  0  0  0  0  0  0  0  0999 V3000
M  V30 BEGIN CTAB
M  V30 COUNTS 63 67 0 0 0
M  V30 BEGIN ATOM
M  V30 1 C 3.677125 -5.637678 5.097375 0
M  V30 2 N 3.452492 -5.613905 3.677082 0
M  V30 3 C 3.297189 -4.393785 2.961757 0
M  V30 4 N 4.329872 -3.723790 2.416375 0
M  V30 5 C 4.148083 -2.571277 1.745472 0
M  V30 6 C 2.885320 -2.019998 1.585033 0
M  V30 7 C 2.681629 -0.837920 0.899271 0
M  V30 8 C 1.385270 -0.371259 0.794497 0
M  V30 9 C 1.068919 0.873355 0.086364 0
M  V30 10 C 0.774682 0.863006 -1.283293 0
M  V30 11 C 0.480648 2.076371 -1.907035 0
M  V30 12 C 0.477197 3.263236 -1.200480 0
M  V30 13 C 0.158743 4.486419 -1.931340 0
M  V30 14 C 0.117625 5.739542 -1.359028 0
M  V30 15 C -0.197943 6.845538 -2.147868 0
M  V30 16 C -0.476491 6.750488 -3.496305 0
M  V30 17 C -0.416869 5.456890 -4.007525 0
M  V30 18 C -0.712360 5.312068 -5.464717 0
M  V30 19 N -0.110722 4.379326 -3.245026 0
M  V30 20 C 0.772525 3.231202 0.148428 0
M  V30 21 C 1.071930 2.055906 0.820230 0
M  V30 22 Cl 1.443020 2.045896 2.533603 0
M  V30 23 C 0.346393 -1.086875 1.368264 0
M  V30 24 O -0.840578 -0.628994 1.253860 0
M  V30 25 N 0.582700 -2.223608 2.022202 0
M  V30 26 C -0.562353 -2.933506 2.607015 0
M  V30 27 C -1.156809 -3.917718 1.641754 0 CFG=1
M  V30 28 O -2.228181 -4.595289 2.161421 0
M  V30 29 C -3.463847 -4.042597 1.955219 0
M  V30 30 C -3.664954 -3.470317 0.580037 0 CFG=2
M  V30 31 N -4.918579 -3.861428 -0.029924 0
M  V30 32 C -5.985295 -3.384899 0.830073 0
M  V30 33 C -2.474578 -3.893111 -0.255790 0
M  V30 34 O -1.356668 -3.370991 0.382200 0
M  V30 35 C 1.838763 -2.721353 2.151240 0
M  V30 36 N 2.048115 -3.874325 2.818657 0
M  V30 37 H 3.291441 -6.572204 5.578562 0
M  V30 38 H 3.223269 -4.776392 5.620986 0
M  V30 39 H 4.771105 -5.613146 5.270881 0
M  V30 40 H 3.389944 -6.466436 3.091310 0
M  V30 41 H 4.978051 -2.012141 1.294676 0
M  V30 42 H 3.499190 -0.305516 0.466307 0
M  V30 43 H 0.780227 -0.072051 -1.826856 0
M  V30 44 H 0.265169 1.979863 -2.964213 0
M  V30 45 H 0.326943 5.848140 -0.323108 0
M  V30 46 H -0.229696 7.829337 -1.696112 0
M  V30 47 H -0.721402 7.607410 -4.109389 0
M  V30 48 H -1.561016 5.948529 -5.781472 0
M  V30 49 H -0.967023 4.231375 -5.623225 0
M  V30 50 H 0.221991 5.484747 -6.035136 0
M  V30 51 H 0.772907 4.153731 0.711833 0
M  V30 52 H -0.257991 -3.468228 3.518295 0
M  V30 53 H -1.284157 -2.151723 2.935223 0
M  V30 54 H -0.355813 -4.698482 1.484542 0
M  V30 55 H -3.705952 -3.319839 2.760749 0
M  V30 56 H -4.201237 -4.891684 2.036454 0
M  V30 57 H -3.663551 -2.360814 0.617592 0
M  V30 58 H -4.989313 -3.277048 -0.908231 0
M  V30 59 H -6.016267 -3.990509 1.770198 0
M  V30 60 H -6.981527 -3.470854 0.349969 0
M  V30 61 H -5.863204 -2.340115 1.145990 0
M  V30 62 H -2.349769 -4.983571 -0.302836 0
M  V30 63 H -2.499793 -3.449566 -1.271792 0
M  V30 END ATOM
M  V30 BEGIN BOND
M  V30 1 1 1 2
M  V30 2 1 2 3
M  V30 3 2 3 4
M  V30 4 1 4 5
M  V30 5 2 5 6
M  V30 6 1 6 7
M  V30 7 2 7 8
M  V30 8 1 8 9
M  V30 9 2 9 10
M  V30 10 1 10 11
M  V30 11 2 11 12
M  V30 12 1 12 13
M  V30 13 2 13 14
M  V30 14 1 14 15
M  V30 15 2 15 16
M  V30 16 1 16 17
M  V30 17 1 17 18
M  V30 18 2 17 19
M  V30 19 1 12 20
M  V30 20 2 20 21
M  V30 21 1 21 22
M  V30 22 1 8 23
M  V30 23 2 23 24
M  V30 24 1 23 25
M  V30 25 1 25 26
M  V30 26 1 26 27
M  V30 27 1 27 28
M  V30 28 1 28 29
M  V30 29 1 29 30
M  V30 30 1 30 31
M  V30 31 1 31 32
M  V30 32 1 30 33
M  V30 33 1 33 34
M  V30 34 1 25 35
M  V30 35 2 35 36
M  V30 36 1 36 3
M  V30 37 1 35 6
M  V30 38 1 21 9
M  V30 39 1 34 27
M  V30 40 1 19 13
M  V30 41 1 1 37
M  V30 42 1 1 38
M  V30 43 1 1 39
M  V30 44 1 2 40
M  V30 45 1 5 41
M  V30 46 1 7 42
M  V30 47 1 10 43
M  V30 48 1 11 44
M  V30 49 1 14 45
M  V30 50 1 15 46
M  V30 51 1 16 47
M  V30 52 1 18 48
M  V30 53 1 18 49
M  V30 54 1 18 50
M  V30 55 1 20 51
M  V30 56 1 26 52
M  V30 57 1 26 53
M  V30 58 1 27 54 CFG=3
M  V30 59 1 29 55
M  V30 60 1 29 56
M  V30 61 1 30 57 CFG=1
M  V30 62 1 31 58
M  V30 63 1 32 59
M  V30 64 1 32 60
M  V30 65 1 32 61
M  V30 66 1 33 62
M  V30 67 1 33 63
M  V30 END BOND
M  V30 END CTAB
M  END
>  <Dataset>  (290) 
ChEMBL_Kinases

>  <Ligand_Instance>  (290) 
nan

>  <PDB_ID>  (290) 
nan

>  <Standardized_SMILES>  (290) 
CNc1ncc2cc(-c3ccc(-c4cccc(C)n4)cc3Cl)c(=O)n(C[C@H]3OC[C@H](NC)CO3)c2n1

>  <Name>  (290) 
nan

>  <Pocket>  (290) 
nan

>  <ATP_Site>  (290) 
nan

>  <Peripheral>  (290) 
nan

>  <Num_H_Atoms_ProtBoundConf>  (290) 
nan

>  <Num_Resolved_Atoms>  (290) 
nan

>  <Num_Not_Resolved_Atoms>  (290) 
nan

$$$$
CHEMBL3769456
     RDKit          3D

  0  0  0  0  0  0  0  0  0  0999 V3000
M  V30 BEGIN CTAB
M  V30 COUNTS 63 67 0 0 0
M  V30 BEGIN ATOM
M  V30 1 C 4.529938 -4.567727 3.275490 0
M  V30 2 N 4.586000 -4.130232 1.904419 0
M  V30 3 C 3.795765 -3.037253 1.471359 0
M  V30 4 N 4.402038 -1.819562 1.586622 0
M  V30 5 C 3.731134 -0.707490 1.199728 0
M  V30 6 C 2.444895 -0.786996 0.691182 0
M  V30 7 C 1.748621 0.354167 0.290985 0
M  V30 8 C 0.465491 0.168202 -0.205090 0
M  V30 9 C -0.181159 1.417211 -0.596210 0
M  V30 10 C -0.068229 1.918293 -1.868832 0
M  V30 11 C -0.694523 3.116615 -2.226213 0
M  V30 12 C -1.444145 3.839214 -1.327070 0
M  V30 13 C -2.065836 5.079402 -1.776427 0
M  V30 14 C -2.834808 5.875454 -0.954563 0
M  V30 15 N -3.380962 7.021243 -1.453174 0
M  V30 16 C -3.156041 7.349175 -2.739400 0
M  V30 17 C -2.392102 6.571820 -3.581006 0
M  V30 18 C -2.136000 6.923350 -5.005599 0
M  V30 19 N -1.863762 5.436054 -3.047566 0
M  V30 20 C -1.543429 3.316982 -0.055934 0
M  V30 21 C -0.931885 2.135537 0.314137 0
M  V30 22 Cl -1.129523 1.561113 1.977884 0
M  V30 23 C -0.100756 -1.088285 -0.300221 0
M  V30 24 O -1.272908 -1.158277 -0.763959 0
M  V30 25 N 0.575838 -2.197175 0.088651 0
M  V30 26 C -0.046962 -3.476289 -0.027630 0
M  V30 27 C -0.832339 -3.946946 1.138760 0 CFG=1
M  V30 28 C -1.445322 -5.320516 0.893814 0
M  V30 29 C -1.333746 -6.190678 2.127427 0
M  V30 30 C -1.880776 -5.480804 3.351774 0 CFG=2
M  V30 31 N -3.226765 -4.999608 3.127845 0
M  V30 32 C -1.011954 -4.269506 3.599260 0
M  V30 33 C -0.094989 -3.979217 2.429174 0
M  V30 34 C 1.841692 -2.045798 0.581492 0
M  V30 35 N 2.547116 -3.113724 0.977604 0
M  V30 36 H 5.035585 -3.830602 3.949509 0
M  V30 37 H 3.486857 -4.656191 3.576827 0
M  V30 38 H 4.977140 -5.577290 3.380715 0
M  V30 39 H 5.176718 -4.547048 1.139028 0
M  V30 40 H 4.162017 0.285966 1.268238 0
M  V30 41 H 2.248146 1.290000 0.393035 0
M  V30 42 H 0.517840 1.374890 -2.612085 0
M  V30 43 H -0.550114 3.438894 -3.259709 0
M  V30 44 H -3.003513 5.598536 0.068264 0
M  V30 45 H -3.573401 8.261006 -3.187750 0
M  V30 46 H -2.296220 8.017859 -5.141927 0
M  V30 47 H -2.890662 6.426569 -5.643437 0
M  V30 48 H -1.089529 6.657172 -5.240332 0
M  V30 49 H -2.126361 3.863930 0.671170 0
M  V30 50 H -0.662801 -3.451009 -0.949667 0
M  V30 51 H 0.727588 -4.266740 -0.237520 0
M  V30 52 H -1.719557 -3.267871 1.259799 0
M  V30 53 H -2.488137 -5.256465 0.526026 0
M  V30 54 H -0.806916 -5.783360 0.115091 0
M  V30 55 H -0.290036 -6.479688 2.240491 0
M  V30 56 H -1.906263 -7.112336 1.902715 0
M  V30 57 H -1.848754 -6.110378 4.245764 0
M  V30 58 H -3.945890 -5.764353 3.100893 0
M  V30 59 H -3.449455 -4.300236 3.884052 0
M  V30 60 H -1.627133 -3.385863 3.867924 0
M  V30 61 H -0.350307 -4.450338 4.483120 0
M  V30 62 H 0.320793 -2.954424 2.664072 0
M  V30 63 H 0.717290 -4.720948 2.457275 0
M  V30 END ATOM
M  V30 BEGIN BOND
M  V30 1 1 1 2
M  V30 2 1 2 3
M  V30 3 2 3 4
M  V30 4 1 4 5
M  V30 5 2 5 6
M  V30 6 1 6 7
M  V30 7 2 7 8
M  V30 8 1 8 9
M  V30 9 2 9 10
M  V30 10 1 10 11
M  V30 11 2 11 12
M  V30 12 1 12 13
M  V30 13 2 13 14
M  V30 14 1 14 15
M  V30 15 2 15 16
M  V30 16 1 16 17
M  V30 17 1 17 18
M  V30 18 2 17 19
M  V30 19 1 12 20
M  V30 20 2 20 21
M  V30 21 1 21 22
M  V30 22 1 8 23
M  V30 23 2 23 24
M  V30 24 1 23 25
M  V30 25 1 25 26
M  V30 26 1 26 27
M  V30 27 1 27 28
M  V30 28 1 28 29
M  V30 29 1 29 30
M  V30 30 1 30 31
M  V30 31 1 30 32
M  V30 32 1 32 33
M  V30 33 1 25 34
M  V30 34 2 34 35
M  V30 35 1 35 3
M  V30 36 1 34 6
M  V30 37 1 21 9
M  V30 38 1 33 27
M  V30 39 1 19 13
M  V30 40 1 1 36
M  V30 41 1 1 37
M  V30 42 1 1 38
M  V30 43 1 2 39
M  V30 44 1 5 40
M  V30 45 1 7 41
M  V30 46 1 10 42
M  V30 47 1 11 43
M  V30 48 1 14 44
M  V30 49 1 16 45
M  V30 50 1 18 46
M  V30 51 1 18 47
M  V30 52 1 18 48
M  V30 53 1 20 49
M  V30 54 1 26 50
M  V30 55 1 26 51
M  V30 56 1 27 52 CFG=1
M  V30 57 1 28 53
M  V30 58 1 28 54
M  V30 59 1 29 55
M  V30 60 1 29 56
M  V30 61 1 30 57 CFG=1
M  V30 62 1 31 58
M  V30 63 1 31 59
M  V30 64 1 32 60
M  V30 65 1 32 61
M  V30 66 1 33 62
M  V30 67 1 33 63
M  V30 END BOND
M  V30 END CTAB
M  END
>  <Dataset>  (291) 
ChEMBL_Kinases

>  <Ligand_Instance>  (291) 
nan

>  <PDB_ID>  (291) 
nan

>  <Standardized_SMILES>  (291) 
CNc1ncc2cc(-c3ccc(-c4cncc(C)n4)cc3Cl)c(=O)n(C[C@H]3CC[C@H](N)CC3)c2n1

>  <Name>  (291) 
nan

>  <Pocket>  (291) 
nan

>  <ATP_Site>  (291) 
nan

>  <Peripheral>  (291) 
nan

>  <Num_H_Atoms_ProtBoundConf>  (291) 
nan

>  <Num_Resolved_Atoms>  (291) 
nan

>  <Num_Not_Resolved_Atoms>  (291) 
nan

$$$$
CHEMBL376855
     RDKit          3D

  0  0  0  0  0  0  0  0  0  0999 V3000
M  V30 BEGIN CTAB
M  V30 COUNTS 38 41 0 0 0
M  V30 BEGIN ATOM
M  V30 1 O -2.245976 -3.495517 1.731555 0
M  V30 2 C -1.239246 -3.091398 1.118213 0
M  V30 3 C -0.423193 -4.081697 0.387909 0
M  V30 4 C -0.868999 -5.362558 0.650359 0
M  V30 5 C -0.195033 -6.418763 0.029373 0
M  V30 6 C 0.886041 -6.157860 -0.820233 0
M  V30 7 C 1.290891 -4.858652 -1.048382 0
M  V30 8 C 0.647012 -3.778170 -0.449768 0
M  V30 9 C 1.274508 -2.515573 -0.859696 0
M  V30 10 O 1.159637 -1.455194 0.049799 0
M  V30 11 C 0.079660 -0.894563 0.731652 0
M  V30 12 C 0.173769 0.475313 0.891893 0
M  V30 13 C -0.878012 1.063565 1.562523 0
M  V30 14 N -0.869519 2.460418 1.775260 0
M  V30 15 C 0.117295 3.415135 1.407819 0
M  V30 16 C -0.081424 4.487256 0.574809 0
M  V30 17 C 0.982454 5.335819 0.310215 0
M  V30 18 C 2.242137 5.158083 0.844833 0
M  V30 19 F 3.267119 6.025720 0.553980 0
M  V30 20 C 2.414937 4.059142 1.688722 0
M  V30 21 C 1.370538 3.203171 1.964947 0
M  V30 22 F 1.755130 2.207674 2.804565 0
M  V30 23 C -1.970689 0.384815 2.059465 0
M  V30 24 C -2.031780 -0.986497 1.880788 0
M  V30 25 C -0.990085 -1.631457 1.206972 0
M  V30 26 H -1.706661 -5.544852 1.310157 0
M  V30 27 H -0.492443 -7.445202 0.191567 0
M  V30 28 H 1.447259 -6.916670 -1.328283 0
M  V30 29 H 2.130489 -4.643841 -1.707308 0
M  V30 30 H 2.370257 -2.705686 -1.000693 0
M  V30 31 H 0.930558 -2.206996 -1.887777 0
M  V30 32 H 1.028323 1.007566 0.502719 0
M  V30 33 H -1.620481 2.999030 2.251535 0
M  V30 34 H -1.073440 4.621642 0.157793 0
M  V30 35 H 0.791001 6.173834 -0.352578 0
M  V30 36 H 3.432774 3.980741 2.073938 0
M  V30 37 H -2.775523 0.893852 2.581743 0
M  V30 38 H -2.854566 -1.582763 2.241792 0
M  V30 END ATOM
M  V30 BEGIN BOND
M  V30 1 2 1 2
M  V30 2 1 2 3
M  V30 3 2 3 4
M  V30 4 1 4 5
M  V30 5 2 5 6
M  V30 6 1 6 7
M  V30 7 2 7 8
M  V30 8 1 8 9
M  V30 9 1 9 10
M  V30 10 1 10 11
M  V30 11 2 11 12
M  V30 12 1 12 13
M  V30 13 1 13 14
M  V30 14 1 14 15
M  V30 15 2 15 16
M  V30 16 1 16 17
M  V30 17 2 17 18
M  V30 18 1 18 19
M  V30 19 1 18 20
M  V30 20 2 20 21
M  V30 21 1 21 22
M  V30 22 2 13 23
M  V30 23 1 23 24
M  V30 24 2 24 25
M  V30 25 1 25 2
M  V30 26 1 8 3
M  V30 27 1 25 11
M  V30 28 1 21 15
M  V30 29 1 4 26
M  V30 30 1 5 27
M  V30 31 1 6 28
M  V30 32 1 7 29
M  V30 33 1 9 30
M  V30 34 1 9 31
M  V30 35 1 12 32
M  V30 36 1 14 33
M  V30 37 1 16 34
M  V30 38 1 17 35
M  V30 39 1 20 36
M  V30 40 1 23 37
M  V30 41 1 24 38
M  V30 END BOND
M  V30 END CTAB
M  END
>  <Dataset>  (292) 
ChEMBL_Kinases

>  <Ligand_Instance>  (292) 
nan

>  <PDB_ID>  (292) 
nan

>  <Standardized_SMILES>  (292) 
O=C1c2ccccc2COc2cc(Nc3ccc(F)cc3F)ccc21

>  <Name>  (292) 
nan

>  <Pocket>  (292) 
nan

>  <ATP_Site>  (292) 
nan

>  <Peripheral>  (292) 
nan

>  <Num_H_Atoms_ProtBoundConf>  (292) 
nan

>  <Num_Resolved_Atoms>  (292) 
nan

>  <Num_Not_Resolved_Atoms>  (292) 
nan

$$$$
CHEMBL376792
     RDKit          3D

  0  0  0  0  0  0  0  0  0  0999 V3000
M  V30 BEGIN CTAB
M  V30 COUNTS 49 52 0 0 0
M  V30 BEGIN ATOM
M  V30 1 C 0.974269 -3.526371 3.099665 0
M  V30 2 C 2.400308 -3.427512 2.661006 0
M  V30 3 N 3.419062 -4.185161 3.102459 0
M  V30 4 N 4.546357 -3.835492 2.508431 0
M  V30 5 C 4.317626 -2.826676 1.645193 0
M  V30 6 C 5.069363 -2.061611 0.764630 0
M  V30 7 C 4.501449 -1.057075 -0.011848 0
M  V30 8 C 3.151623 -0.786405 0.071155 0
M  V30 9 C 2.486991 0.251037 -0.711622 0
M  V30 10 C 2.850207 0.650793 -1.978771 0
M  V30 11 N 2.158805 1.632005 -2.620526 0
M  V30 12 C 1.092678 2.221574 -1.991940 0
M  V30 13 C 0.678200 1.851865 -0.697971 0
M  V30 14 O -0.380084 2.624322 -0.400471 0
M  V30 15 C -1.212663 2.736217 0.681503 0
M  V30 16 C -1.975762 1.483691 0.970166 0 CFG=1
M  V30 17 N -2.851692 1.631564 2.117335 0
M  V30 18 C -2.740706 0.979146 -0.229946 0
M  V30 19 C -3.460938 -0.256654 0.148707 0
M  V30 20 C -4.620162 -0.342499 0.879395 0
M  V30 21 F -5.183187 0.796563 1.295869 0
M  V30 22 C -5.203000 -1.557238 1.179192 0
M  V30 23 C -4.665887 -2.750112 0.769367 0
M  V30 24 F -5.200136 -3.952106 1.039509 0
M  V30 25 C -3.503690 -2.733813 0.032494 0
M  V30 26 C -2.945189 -1.494412 -0.250324 0
M  V30 27 Br -1.322740 -1.496304 -1.280725 0
M  V30 28 C 1.410233 0.863551 -0.106385 0
M  V30 29 C 2.411915 -1.566460 0.962436 0
M  V30 30 C 2.960236 -2.564898 1.738209 0
M  V30 31 H 0.462691 -4.422461 2.696745 0
M  V30 32 H 0.410105 -2.641437 2.748164 0
M  V30 33 H 0.896236 -3.492546 4.212895 0
M  V30 34 H 5.494353 -4.249814 2.654475 0
M  V30 35 H 6.113850 -2.283816 0.711984 0
M  V30 36 H 5.117106 -0.473010 -0.694092 0
M  V30 37 H 3.698800 0.143908 -2.412991 0
M  V30 38 H 0.705235 2.965816 -2.692029 0
M  V30 39 H -0.621707 2.973148 1.610083 0
M  V30 40 H -1.954263 3.580214 0.587107 0
M  V30 41 H -1.264624 0.683348 1.237251 0
M  V30 42 H -2.770791 0.827416 2.777128 0
M  V30 43 H -2.598878 2.480604 2.655358 0
M  V30 44 H -3.466300 1.732616 -0.603079 0
M  V30 45 H -2.018259 0.751139 -1.014140 0
M  V30 46 H -6.123737 -1.600062 1.760778 0
M  V30 47 H -3.046117 -3.630358 -0.309969 0
M  V30 48 H 1.044539 0.641341 0.868565 0
M  V30 49 H 1.351174 -1.395027 1.065174 0
M  V30 END ATOM
M  V30 BEGIN BOND
M  V30 1 1 1 2
M  V30 2 2 2 3
M  V30 3 1 3 4
M  V30 4 1 4 5
M  V30 5 2 5 6
M  V30 6 1 6 7
M  V30 7 2 7 8
M  V30 8 1 8 9
M  V30 9 2 9 10
M  V30 10 1 10 11
M  V30 11 2 11 12
M  V30 12 1 12 13
M  V30 13 1 13 14
M  V30 14 1 14 15
M  V30 15 1 15 16
M  V30 16 1 16 17
M  V30 17 1 16 18
M  V30 18 1 18 19
M  V30 19 2 19 20
M  V30 20 1 20 21
M  V30 21 1 20 22
M  V30 22 2 22 23
M  V30 23 1 23 24
M  V30 24 1 23 25
M  V30 25 2 25 26
M  V30 26 1 26 27
M  V30 27 2 13 28
M  V30 28 1 8 29
M  V30 29 2 29 30
M  V30 30 1 30 2
M  V30 31 1 30 5
M  V30 32 1 28 9
M  V30 33 1 26 19
M  V30 34 1 1 31
M  V30 35 1 1 32
M  V30 36 1 1 33
M  V30 37 1 4 34
M  V30 38 1 6 35
M  V30 39 1 7 36
M  V30 40 1 10 37
M  V30 41 1 12 38
M  V30 42 1 15 39
M  V30 43 1 15 40
M  V30 44 1 16 41 CFG=1
M  V30 45 1 17 42
M  V30 46 1 17 43
M  V30 47 1 18 44
M  V30 48 1 18 45
M  V30 49 1 22 46
M  V30 50 1 25 47
M  V30 51 1 28 48
M  V30 52 1 29 49
M  V30 END BOND
M  V30 END CTAB
M  END
>  <Dataset>  (293) 
ChEMBL_Kinases

>  <Ligand_Instance>  (293) 
nan

>  <PDB_ID>  (293) 
nan

>  <Standardized_SMILES>  (293) 
Cc1n[nH]c2ccc(-c3cncc(OC[C@@H](N)Cc4c(F)cc(F)cc4Br)c3)cc12

>  <Name>  (293) 
nan

>  <Pocket>  (293) 
nan

>  <ATP_Site>  (293) 
nan

>  <Peripheral>  (293) 
nan

>  <Num_H_Atoms_ProtBoundConf>  (293) 
nan

>  <Num_Resolved_Atoms>  (293) 
nan

>  <Num_Not_Resolved_Atoms>  (293) 
nan

$$$$
CHEMBL376646
     RDKit          3D

  0  0  0  0  0  0  0  0  0  0999 V3000
M  V30 BEGIN CTAB
M  V30 COUNTS 55 60 0 0 0
M  V30 BEGIN ATOM
M  V30 1 C 4.212174 -9.299099 2.984430 0
M  V30 2 N 4.055730 -7.941261 2.528215 0
M  V30 3 C 2.972387 -7.423127 1.918327 0
M  V30 4 C 3.206090 -6.091780 1.636116 0
M  V30 5 C 2.351379 -5.100206 0.987779 0
M  V30 6 C 2.456394 -3.768552 1.350668 0
M  V30 7 C 1.659520 -2.817421 0.751259 0
M  V30 8 C 0.747133 -3.118602 -0.205936 0
M  V30 9 C -0.137337 -2.357597 -0.928616 0
M  V30 10 C -0.415798 -0.944771 -0.927301 0
M  V30 11 C 0.031263 0.154410 -0.272975 0
M  V30 12 C -0.598104 1.317360 -0.665915 0
M  V30 13 C -0.461991 2.625205 -0.277007 0
M  V30 14 C -1.236573 3.629287 -0.843807 0
M  V30 15 C -1.111121 5.029404 -0.447444 0
M  V30 16 N -1.935020 5.468821 0.621885 0
M  V30 17 C -1.776445 4.815501 1.875836 0
M  V30 18 C -2.674033 3.636596 2.099476 0
M  V30 19 O -3.617413 3.470192 1.069193 0
M  V30 20 C -4.256820 4.695410 0.946053 0
M  V30 21 C -3.317206 5.674531 0.304834 0
M  V30 22 C -2.129346 3.200321 -1.806257 0
M  V30 23 C -2.272436 1.886344 -2.203230 0
M  V30 24 C -1.492188 0.898708 -1.627670 0
M  V30 25 N -1.355287 -0.432198 -1.752283 0
M  V30 26 N -0.748494 -3.266742 -1.707679 0
M  V30 27 N -0.297592 -4.490153 -1.502053 0
M  V30 28 C 0.656232 -4.468818 -0.558557 0
M  V30 29 C 1.437899 -5.446730 0.020694 0
M  V30 30 C 4.493134 -5.846497 2.113851 0
M  V30 31 N 4.968281 -6.992339 2.644733 0
M  V30 32 H 3.432173 -9.969769 2.619067 0
M  V30 33 H 4.143559 -9.340870 4.111060 0
M  V30 34 H 5.238540 -9.633022 2.760648 0
M  V30 35 H 2.034482 -7.900872 1.655998 0
M  V30 36 H 3.178372 -3.487786 2.116429 0
M  V30 37 H 1.775110 -1.815578 1.060368 0
M  V30 38 H 0.794578 0.148076 0.477314 0
M  V30 39 H 0.248610 2.889937 0.474121 0
M  V30 40 H -1.363711 5.649276 -1.338048 0
M  V30 41 H -0.038893 5.298879 -0.227894 0
M  V30 42 H -2.057996 5.576919 2.661745 0
M  V30 43 H -0.710453 4.599008 2.092811 0
M  V30 44 H -3.285443 3.722367 3.033895 0
M  V30 45 H -2.086833 2.702782 2.240198 0
M  V30 46 H -4.490151 5.054029 1.985888 0
M  V30 47 H -5.180968 4.550882 0.381001 0
M  V30 48 H -3.569479 6.703531 0.696137 0
M  V30 49 H -3.404859 5.672184 -0.808522 0
M  V30 50 H -2.785405 3.909207 -2.313866 0
M  V30 51 H -2.976150 1.599699 -2.951950 0
M  V30 52 H -1.981001 -0.895726 -2.458607 0
M  V30 53 H -0.673399 -5.306390 -2.031343 0
M  V30 54 H 1.321353 -6.481339 -0.295745 0
M  V30 55 H 4.968637 -4.882558 2.039921 0
M  V30 END ATOM
M  V30 BEGIN BOND
M  V30 1 1 1 2
M  V30 2 1 2 3
M  V30 3 2 3 4
M  V30 4 1 4 5
M  V30 5 2 5 6
M  V30 6 1 6 7
M  V30 7 2 7 8
M  V30 8 1 8 9
M  V30 9 1 9 10
M  V30 10 2 10 11
M  V30 11 1 11 12
M  V30 12 2 12 13
M  V30 13 1 13 14
M  V30 14 1 14 15
M  V30 15 1 15 16
M  V30 16 1 16 17
M  V30 17 1 17 18
M  V30 18 1 18 19
M  V30 19 1 19 20
M  V30 20 1 20 21
M  V30 21 2 14 22
M  V30 22 1 22 23
M  V30 23 2 23 24
M  V30 24 1 24 25
M  V30 25 2 9 26
M  V30 26 1 26 27
M  V30 27 1 27 28
M  V30 28 2 28 29
M  V30 29 1 4 30
M  V30 30 2 30 31
M  V30 31 1 31 2
M  V30 32 1 29 5
M  V30 33 1 28 8
M  V30 34 1 25 10
M  V30 35 1 24 12
M  V30 36 1 21 16
M  V30 37 1 1 32
M  V30 38 1 1 33
M  V30 39 1 1 34
M  V30 40 1 3 35
M  V30 41 1 6 36
M  V30 42 1 7 37
M  V30 43 1 11 38
M  V30 44 1 13 39
M  V30 45 1 15 40
M  V30 46 1 15 41
M  V30 47 1 17 42
M  V30 48 1 17 43
M  V30 49 1 18 44
M  V30 50 1 18 45
M  V30 51 1 20 46
M  V30 52 1 20 47
M  V30 53 1 21 48
M  V30 54 1 21 49
M  V30 55 1 22 50
M  V30 56 1 23 51
M  V30 57 1 25 52
M  V30 58 1 27 53
M  V30 59 1 29 54
M  V30 60 1 30 55
M  V30 END BOND
M  V30 END CTAB
M  END
>  <Dataset>  (294) 
ChEMBL_Kinases

>  <Ligand_Instance>  (294) 
nan

>  <PDB_ID>  (294) 
nan

>  <Standardized_SMILES>  (294) 
Cn1cc(-c2ccc3c(-c4cc5cc(CN6CCOCC6)ccc5[nH]4)n[nH]c3c2)cn1

>  <Name>  (294) 
nan

>  <Pocket>  (294) 
nan

>  <ATP_Site>  (294) 
nan

>  <Peripheral>  (294) 
nan

>  <Num_H_Atoms_ProtBoundConf>  (294) 
nan

>  <Num_Resolved_Atoms>  (294) 
nan

>  <Num_Not_Resolved_Atoms>  (294) 
nan

$$$$
CHEMBL376608
     RDKit          3D

  0  0  0  0  0  0  0  0  0  0999 V3000
M  V30 BEGIN CTAB
M  V30 COUNTS 49 51 0 0 0
M  V30 BEGIN ATOM
M  V30 1 C -2.193482 -0.281117 3.592258 0
M  V30 2 S -0.440451 -0.044457 3.995998 0
M  V30 3 C 0.450151 -1.589437 4.060049 0
M  V30 4 C 0.582551 -2.298212 2.731916 0
M  V30 5 N 1.287406 -1.517835 1.753413 0
M  V30 6 C 2.647743 -1.595183 1.637647 0
M  V30 7 S 3.844346 -2.577374 2.566540 0
M  V30 8 C 4.416940 -1.668345 4.004779 0
M  V30 9 N 3.087306 -0.772688 0.645424 0
M  V30 10 C 2.020065 -0.154508 0.108173 0
M  V30 11 C 2.013866 0.815147 -0.982715 0
M  V30 12 C 1.423544 0.717173 -2.225262 0
M  V30 13 C 1.545336 1.766487 -3.114280 0
M  V30 14 C 2.243642 2.921312 -2.801011 0
M  V30 15 F 2.326823 3.922338 -3.723540 0
M  V30 16 C 2.844177 3.024099 -1.540742 0
M  V30 17 C 2.722876 1.962402 -0.636439 0
M  V30 18 C 0.937788 -0.635403 0.811062 0
M  V30 19 C -0.425547 -0.244214 0.566782 0
M  V30 20 C -0.972533 1.016831 0.706755 0
M  V30 21 C -2.299517 1.196802 0.422480 0
M  V30 22 N -3.081211 0.184000 0.012613 0
M  V30 23 C -2.603786 -1.063713 -0.141361 0
M  V30 24 N -3.403720 -2.160335 -0.572603 0
M  V30 25 C -3.758023 -2.752126 -1.811465 0
M  V30 26 C -4.652213 -3.911555 -1.640467 0
M  V30 27 O -3.340464 -2.314380 -2.916058 0
M  V30 28 C -1.252234 -1.289152 0.139003 0
M  V30 29 H -2.707855 -0.559813 4.546135 0
M  V30 30 H -2.358814 -1.007059 2.797673 0
M  V30 31 H -2.597451 0.712572 3.275979 0
M  V30 32 H 0.022338 -2.232764 4.840684 0
M  V30 33 H 1.494441 -1.354775 4.405990 0
M  V30 34 H -0.459726 -2.501008 2.347423 0
M  V30 35 H 1.084809 -3.274346 2.846837 0
M  V30 36 H 5.482455 -1.931493 4.213452 0
M  V30 37 H 3.842185 -1.975285 4.902319 0
M  V30 38 H 4.405949 -0.564382 3.854802 0
M  V30 39 H 0.906028 -0.207518 -2.381493 0
M  V30 40 H 1.060578 1.627687 -4.070178 0
M  V30 41 H 3.374959 3.941700 -1.347539 0
M  V30 42 H 3.233449 2.174508 0.296839 0
M  V30 43 H -0.265306 1.775096 1.043066 0
M  V30 44 H -2.669090 2.202107 0.550351 0
M  V30 45 H -3.708983 -2.466614 0.375184 0
M  V30 46 H -4.369990 -4.552643 -0.776049 0
M  V30 47 H -5.728750 -3.656429 -1.595486 0
M  V30 48 H -4.530315 -4.593525 -2.531591 0
M  V30 49 H -0.889391 -2.320023 0.002254 0
M  V30 END ATOM
M  V30 BEGIN BOND
M  V30 1 1 1 2
M  V30 2 1 2 3
M  V30 3 1 3 4
M  V30 4 1 4 5
M  V30 5 1 5 6
M  V30 6 1 6 7
M  V30 7 1 7 8
M  V30 8 2 6 9
M  V30 9 1 9 10
M  V30 10 1 10 11
M  V30 11 2 11 12
M  V30 12 1 12 13
M  V30 13 2 13 14
M  V30 14 1 14 15
M  V30 15 1 14 16
M  V30 16 2 16 17
M  V30 17 2 10 18
M  V30 18 1 18 19
M  V30 19 2 19 20
M  V30 20 1 20 21
M  V30 21 2 21 22
M  V30 22 1 22 23
M  V30 23 1 23 24
M  V30 24 1 24 25
M  V30 25 1 25 26
M  V30 26 2 25 27
M  V30 27 2 23 28
M  V30 28 1 18 5
M  V30 29 1 28 19
M  V30 30 1 17 11
M  V30 31 1 1 29
M  V30 32 1 1 30
M  V30 33 1 1 31
M  V30 34 1 3 32
M  V30 35 1 3 33
M  V30 36 1 4 34
M  V30 37 1 4 35
M  V30 38 1 8 36
M  V30 39 1 8 37
M  V30 40 1 8 38
M  V30 41 1 12 39
M  V30 42 1 13 40
M  V30 43 1 16 41
M  V30 44 1 17 42
M  V30 45 1 20 43
M  V30 46 1 21 44
M  V30 47 1 24 45
M  V30 48 1 26 46
M  V30 49 1 26 47
M  V30 50 1 26 48
M  V30 51 1 28 49
M  V30 END BOND
M  V30 END CTAB
M  END
>  <Dataset>  (295) 
ChEMBL_Kinases

>  <Ligand_Instance>  (295) 
nan

>  <PDB_ID>  (295) 
nan

>  <Standardized_SMILES>  (295) 
CSCCn1c(SC)nc(-c2ccc(F)cc2)c1-c1ccnc(NC(C)=O)c1

>  <Name>  (295) 
nan

>  <Pocket>  (295) 
nan

>  <ATP_Site>  (295) 
nan

>  <Peripheral>  (295) 
nan

>  <Num_H_Atoms_ProtBoundConf>  (295) 
nan

>  <Num_Resolved_Atoms>  (295) 
nan

>  <Num_Not_Resolved_Atoms>  (295) 
nan

$$$$
CHEMBL5084905
     RDKit          3D

  0  0  0  0  0  0  0  0  0  0999 V3000
M  V30 BEGIN CTAB
M  V30 COUNTS 52 55 0 0 0
M  V30 BEGIN ATOM
M  V30 1 C 4.483993 -1.286169 4.112682 0
M  V30 2 C 4.385076 -2.569801 3.318784 0
M  V30 3 C 3.665841 -3.593265 4.165378 0
M  V30 4 N 3.660575 -2.350722 2.104793 0
M  V30 5 C 4.037029 -2.573929 0.752091 0
M  V30 6 O 5.187904 -3.042394 0.502403 0
M  V30 7 C 3.118914 -2.271544 -0.341417 0
M  V30 8 C 2.116009 -1.312952 -0.213702 0
M  V30 9 C 1.234653 -0.995081 -1.207070 0
M  V30 10 C 0.190148 0.014432 -1.053491 0
M  V30 11 C -0.007517 0.740274 0.103790 0
M  V30 12 C -0.991454 1.696806 0.253235 0
M  V30 13 C -1.849598 1.960726 -0.821082 0
M  V30 14 N -2.869875 2.943002 -0.698811 0
M  V30 15 S -3.933606 3.103841 0.661181 0
M  V30 16 O -3.065757 3.281331 1.880053 0
M  V30 17 O -4.764016 4.330320 0.516804 0
M  V30 18 C -4.919753 1.688565 0.902853 0
M  V30 19 C -4.892928 0.551914 0.122159 0
M  V30 20 C -5.700173 -0.540990 0.358705 0
M  V30 21 C -6.545866 -0.429918 1.434359 0
M  V30 22 C -6.624076 0.679832 2.258275 0
M  V30 23 Cl -7.749509 0.725724 3.620815 0
M  V30 24 C -5.790816 1.753164 1.978011 0
M  V30 25 Cl -5.886758 3.174112 3.030816 0
M  V30 26 C -1.657467 1.236207 -1.985596 0
M  V30 27 C -0.656367 0.275218 -2.112004 0
M  V30 28 N 1.364485 -1.668343 -2.380832 0
M  V30 29 C 2.326813 -2.610020 -2.549069 0
M  V30 30 N 2.640104 -3.387237 -3.596380 0
M  V30 31 N 3.660738 -4.166372 -3.312971 0
M  V30 32 C 4.053091 -3.916437 -2.045475 0
M  V30 33 C 3.224409 -2.938077 -1.546850 0
M  V30 34 H 4.245364 -1.466450 5.161950 0
M  V30 35 H 5.512206 -0.882888 4.083725 0
M  V30 36 H 3.794353 -0.520389 3.673489 0
M  V30 37 H 5.416572 -2.988157 3.139284 0
M  V30 38 H 3.883808 -4.622648 3.814156 0
M  V30 39 H 3.989189 -3.508810 5.236491 0
M  V30 40 H 2.586295 -3.396408 4.088128 0
M  V30 41 H 2.699587 -1.959228 2.321366 0
M  V30 42 H 2.082247 -0.834265 0.731171 0
M  V30 43 H 0.631933 0.569108 0.959333 0
M  V30 44 H -1.090137 2.229822 1.191017 0
M  V30 45 H -2.967654 3.612151 -1.507654 0
M  V30 46 H -4.179407 0.595103 -0.694640 0
M  V30 47 H -5.638064 -1.403228 -0.283240 0
M  V30 48 H -7.198820 -1.257277 1.663389 0
M  V30 49 H -2.311622 1.434418 -2.811452 0
M  V30 50 H -0.544405 -0.268984 -3.047659 0
M  V30 51 H 2.174714 -3.410745 -4.525120 0
M  V30 52 H 4.833932 -4.319883 -1.422482 0
M  V30 END ATOM
M  V30 BEGIN BOND
M  V30 1 1 1 2
M  V30 2 1 2 3
M  V30 3 1 2 4
M  V30 4 1 4 5
M  V30 5 2 5 6
M  V30 6 1 5 7
M  V30 7 2 7 8
M  V30 8 1 8 9
M  V30 9 1 9 10
M  V30 10 2 10 11
M  V30 11 1 11 12
M  V30 12 2 12 13
M  V30 13 1 13 14
M  V30 14 1 14 15
M  V30 15 2 15 16
M  V30 16 2 15 17
M  V30 17 1 15 18
M  V30 18 2 18 19
M  V30 19 1 19 20
M  V30 20 2 20 21
M  V30 21 1 21 22
M  V30 22 1 22 23
M  V30 23 2 22 24
M  V30 24 1 24 25
M  V30 25 1 13 26
M  V30 26 2 26 27
M  V30 27 2 9 28
M  V30 28 1 28 29
M  V30 29 1 29 30
M  V30 30 1 30 31
M  V30 31 2 31 32
M  V30 32 1 32 33
M  V30 33 1 33 7
M  V30 34 1 27 10
M  V30 35 2 33 29
M  V30 36 1 24 18
M  V30 37 1 1 34
M  V30 38 1 1 35
M  V30 39 1 1 36
M  V30 40 1 2 37
M  V30 41 1 3 38
M  V30 42 1 3 39
M  V30 43 1 3 40
M  V30 44 1 4 41
M  V30 45 1 8 42
M  V30 46 1 11 43
M  V30 47 1 12 44
M  V30 48 1 14 45
M  V30 49 1 19 46
M  V30 50 1 20 47
M  V30 51 1 21 48
M  V30 52 1 26 49
M  V30 53 1 27 50
M  V30 54 1 30 51
M  V30 55 1 32 52
M  V30 END BOND
M  V30 END CTAB
M  END
>  <Dataset>  (296) 
ChEMBL_Kinases

>  <Ligand_Instance>  (296) 
nan

>  <PDB_ID>  (296) 
nan

>  <Standardized_SMILES>  (296) 
CC(C)NC(=O)c1cc(-c2ccc(NS(=O)(=O)c3cccc(Cl)c3Cl)cc2)nc2[nH]ncc12

>  <Name>  (296) 
nan

>  <Pocket>  (296) 
nan

>  <ATP_Site>  (296) 
nan

>  <Peripheral>  (296) 
nan

>  <Num_H_Atoms_ProtBoundConf>  (296) 
nan

>  <Num_Resolved_Atoms>  (296) 
nan

>  <Num_Not_Resolved_Atoms>  (296) 
nan

$$$$
CHEMBL3765711
     RDKit          3D

  0  0  0  0  0  0  0  0  0  0999 V3000
M  V30 BEGIN CTAB
M  V30 COUNTS 65 68 0 0 0
M  V30 BEGIN ATOM
M  V30 1 O -2.038125 -4.183666 4.277452 0
M  V30 2 C -1.852334 -4.528577 3.060128 0
M  V30 3 C -2.317415 -3.695099 1.954786 0
M  V30 4 C -2.155232 -3.986584 0.670041 0
M  V30 5 C -2.603216 -3.182422 -0.441257 0
M  V30 6 C -3.272614 -2.004661 -0.232503 0
M  V30 7 C -3.683079 -1.243859 -1.331013 0
M  V30 8 C -3.415407 -1.676746 -2.611425 0
M  V30 9 O -3.749684 -1.050556 -3.662815 0
M  V30 10 C -4.087405 -0.416983 -4.754404 0
M  V30 11 C -4.830138 0.892492 -4.553165 0
M  V30 12 C -6.201106 0.947765 -4.477959 0
M  V30 13 C -6.800225 2.188068 -4.292990 0
M  V30 14 F -8.165651 2.288353 -4.212349 0
M  V30 15 C -6.025693 3.343665 -4.187007 0
M  V30 16 C -4.646086 3.288619 -4.262722 0
M  V30 17 F -3.944135 4.448900 -4.151830 0
M  V30 18 C -4.064186 2.052167 -4.446369 0
M  V30 19 C -2.736690 -2.872954 -2.774523 0
M  V30 20 C -2.306583 -3.667771 -1.709649 0
M  V30 21 C -1.141272 -5.815302 2.941796 0
M  V30 22 C 0.335614 -5.666474 2.901993 0
M  V30 23 O 1.065712 -6.684852 2.867043 0
M  V30 24 C 0.937408 -4.335212 2.901783 0
M  V30 25 C 2.237930 -4.139690 2.862834 0
M  V30 26 C 2.934199 -2.859796 2.858583 0
M  V30 27 C 4.333999 -2.889909 2.807274 0
M  V30 28 C 4.992825 -1.673035 2.796951 0
M  V30 29 C 4.314136 -0.472492 2.834901 0
M  V30 30 O 4.957261 0.626469 2.822620 0
M  V30 31 C 5.699844 1.698615 2.806225 0
M  V30 32 C 4.951180 3.016922 2.848390 0
M  V30 33 C 4.573215 3.747176 3.953367 0
M  V30 34 C 3.892913 4.930798 3.774488 0
M  V30 35 F 3.557190 5.591625 4.928173 0
M  V30 36 C 3.569848 5.422450 2.523062 0
M  V30 37 C 3.942208 4.701578 1.407434 0
M  V30 38 F 3.627038 5.182066 0.180498 0
M  V30 39 C 4.621740 3.519447 1.587510 0
M  V30 40 C 2.936051 -0.505070 2.885076 0
M  V30 41 C 2.212761 -1.685992 2.898313 0
M  V30 42 H -2.826168 -2.781919 2.216127 0
M  V30 43 H -1.631739 -4.925838 0.549985 0
M  V30 44 H -3.517174 -1.604620 0.734636 0
M  V30 45 H -4.217651 -0.303600 -1.249769 0
M  V30 46 H -3.160360 -0.153201 -5.366541 0
M  V30 47 H -4.703770 -1.049329 -5.470136 0
M  V30 48 H -6.783641 0.040937 -4.562514 0
M  V30 49 H -6.531430 4.282455 -4.044370 0
M  V30 50 H -2.972212 2.039559 -4.503219 0
M  V30 51 H -2.487501 -3.280778 -3.767110 0
M  V30 52 H -1.777181 -4.599475 -1.856024 0
M  V30 53 H -1.401768 -6.523912 3.766599 0
M  V30 54 H -1.494999 -6.326309 2.010458 0
M  V30 55 H 0.305005 -3.459244 2.934377 0
M  V30 56 H 2.799927 -5.074592 2.831844 0
M  V30 57 H 4.865941 -3.831180 2.777707 0
M  V30 58 H 6.070013 -1.726938 2.757934 0
M  V30 59 H 6.349621 1.771480 3.743271 0
M  V30 60 H 6.473758 1.800475 1.991901 0
M  V30 61 H 4.866728 3.288044 4.879959 0
M  V30 62 H 3.030736 6.364508 2.470465 0
M  V30 63 H 4.882078 3.005832 0.656556 0
M  V30 64 H 2.387874 0.421590 2.915793 0
M  V30 65 H 1.136050 -1.631223 2.938118 0
M  V30 END ATOM
M  V30 BEGIN BOND
M  V30 1 2 1 2
M  V30 2 1 2 3
M  V30 3 2 3 4
M  V30 4 1 4 5
M  V30 5 2 5 6
M  V30 6 1 6 7
M  V30 7 2 7 8
M  V30 8 1 8 9
M  V30 9 1 9 10
M  V30 10 1 10 11
M  V30 11 2 11 12
M  V30 12 1 12 13
M  V30 13 1 13 14
M  V30 14 2 13 15
M  V30 15 1 15 16
M  V30 16 1 16 17
M  V30 17 2 16 18
M  V30 18 1 8 19
M  V30 19 2 19 20
M  V30 20 1 2 21
M  V30 21 1 21 22
M  V30 22 2 22 23
M  V30 23 1 22 24
M  V30 24 2 24 25
M  V30 25 1 25 26
M  V30 26 2 26 27
M  V30 27 1 27 28
M  V30 28 2 28 29
M  V30 29 1 29 30
M  V30 30 1 30 31
M  V30 31 1 31 32
M  V30 32 2 32 33
M  V30 33 1 33 34
M  V30 34 1 34 35
M  V30 35 2 34 36
M  V30 36 1 36 37
M  V30 37 1 37 38
M  V30 38 2 37 39
M  V30 39 1 29 40
M  V30 40 2 40 41
M  V30 41 1 20 5
M  V30 42 1 41 26
M  V30 43 1 18 11
M  V30 44 1 39 32
M  V30 45 1 3 42
M  V30 46 1 4 43
M  V30 47 1 6 44
M  V30 48 1 7 45
M  V30 49 1 10 46
M  V30 50 1 10 47
M  V30 51 1 12 48
M  V30 52 1 15 49
M  V30 53 1 18 50
M  V30 54 1 19 51
M  V30 55 1 20 52
M  V30 56 1 21 53
M  V30 57 1 21 54
M  V30 58 1 24 55
M  V30 59 1 25 56
M  V30 60 1 27 57
M  V30 61 1 28 58
M  V30 62 1 31 59
M  V30 63 1 31 60
M  V30 64 1 33 61
M  V30 65 1 36 62
M  V30 66 1 39 63
M  V30 67 1 40 64
M  V30 68 1 41 65
M  V30 END BOND
M  V30 END CTAB
M  END
>  <Dataset>  (297) 
ChEMBL_Kinases

>  <Ligand_Instance>  (297) 
nan

>  <PDB_ID>  (297) 
nan

>  <Standardized_SMILES>  (297) 
O=C(/C=C/c1ccc(OCc2cc(F)cc(F)c2)cc1)CC(=O)/C=C/c1ccc(OCc2cc(F)cc(F)c2)cc1

>  <Name>  (297) 
nan

>  <Pocket>  (297) 
nan

>  <ATP_Site>  (297) 
nan

>  <Peripheral>  (297) 
nan

>  <Num_H_Atoms_ProtBoundConf>  (297) 
nan

>  <Num_Resolved_Atoms>  (297) 
nan

>  <Num_Not_Resolved_Atoms>  (297) 
nan

$$$$
CHEMBL376570
     RDKit          3D

  0  0  0  0  0  0  0  0  0  0999 V3000
M  V30 BEGIN CTAB
M  V30 COUNTS 48 51 0 0 0
M  V30 BEGIN ATOM
M  V30 1 C -0.150853 -5.078538 0.232836 0
M  V30 2 C 0.014311 -4.756771 -1.210289 0
M  V30 3 N -0.056352 -5.672112 -2.203669 0
M  V30 4 N 0.135925 -5.044441 -3.375511 0
M  V30 5 C 0.325111 -3.742124 -3.101632 0
M  V30 6 C 0.568326 -2.617323 -3.888631 0
M  V30 7 N 0.724274 -1.390740 -3.336827 0
M  V30 8 C 0.661186 -1.148307 -2.016809 0
M  V30 9 C 0.851975 0.213430 -1.538363 0
M  V30 10 C 1.093896 1.224374 -2.420302 0
M  V30 11 N 1.286194 2.512592 -2.028623 0
M  V30 12 C 1.231114 2.785190 -0.686555 0
M  V30 13 C 0.986941 1.802266 0.288136 0
M  V30 14 O 0.995092 2.350338 1.446396 0
M  V30 15 C 1.002968 2.903386 2.619732 0
M  V30 16 C -0.241863 2.847162 3.492337 0 CFG=1
M  V30 17 N -1.378384 3.447174 2.827021 0
M  V30 18 C -0.477115 1.628209 4.254098 0
M  V30 19 C -0.640360 0.343176 3.637839 0
M  V30 20 C -1.903748 -0.036898 3.235974 0
M  V30 21 C -2.264813 -1.211640 2.660820 0
M  V30 22 C -1.269361 -2.164239 2.436711 0
M  V30 23 C 0.007915 -1.854456 2.810533 0
M  V30 24 C 0.337128 -0.636022 3.398298 0
M  V30 25 C 0.804794 0.532172 -0.203124 0
M  V30 26 C 0.422552 -2.228508 -1.197788 0
M  V30 27 C 0.258083 -3.495062 -1.724077 0
M  V30 28 H 0.184505 -6.123037 0.407739 0
M  V30 29 H 0.466634 -4.436333 0.879682 0
M  V30 30 H -1.224547 -5.034002 0.476731 0
M  V30 31 H 0.134781 -5.501019 -4.312754 0
M  V30 32 H 0.626966 -2.766207 -4.951113 0
M  V30 33 H 1.129356 0.961527 -3.467625 0
M  V30 34 H 1.410644 3.867698 -0.567802 0
M  V30 35 H 1.285260 4.022683 2.624192 0
M  V30 36 H 1.882946 2.491690 3.237874 0
M  V30 37 H -0.011266 3.637427 4.300932 0
M  V30 38 H -1.096494 4.426161 2.534381 0
M  V30 39 H -2.210718 3.515190 3.427653 0
M  V30 40 H 0.346459 1.538777 5.014831 0
M  V30 41 H -1.388373 1.811032 4.907808 0
M  V30 42 H -2.742490 0.641547 3.372546 0
M  V30 43 H -3.249003 -1.492007 2.354939 0
M  V30 44 H -1.359838 -3.135178 2.001395 0
M  V30 45 H 0.906171 -2.476212 2.710717 0
M  V30 46 H 1.344677 -0.337235 3.715781 0
M  V30 47 H 0.620514 -0.199410 0.560254 0
M  V30 48 H 0.362903 -2.092593 -0.141966 0
M  V30 END ATOM
M  V30 BEGIN BOND
M  V30 1 1 1 2
M  V30 2 2 2 3
M  V30 3 1 3 4
M  V30 4 1 4 5
M  V30 5 2 5 6
M  V30 6 1 6 7
M  V30 7 2 7 8
M  V30 8 1 8 9
M  V30 9 2 9 10
M  V30 10 1 10 11
M  V30 11 2 11 12
M  V30 12 1 12 13
M  V30 13 1 13 14
M  V30 14 1 14 15
M  V30 15 1 15 16
M  V30 16 1 16 17
M  V30 17 1 16 18
M  V30 18 1 18 19
M  V30 19 2 19 20
M  V30 20 1 20 21
M  V30 21 2 21 22
M  V30 22 1 22 23
M  V30 23 2 23 24
M  V30 24 2 13 25
M  V30 25 1 8 26
M  V30 26 2 26 27
M  V30 27 1 27 2
M  V30 28 1 27 5
M  V30 29 1 25 9
M  V30 30 1 24 19
M  V30 31 1 1 28
M  V30 32 1 1 29
M  V30 33 1 1 30
M  V30 34 1 4 31
M  V30 35 1 6 32
M  V30 36 1 10 33
M  V30 37 1 12 34
M  V30 38 1 15 35
M  V30 39 1 15 36
M  V30 40 1 16 37 CFG=1
M  V30 41 1 17 38
M  V30 42 1 17 39
M  V30 43 1 18 40
M  V30 44 1 18 41
M  V30 45 1 20 42
M  V30 46 1 21 43
M  V30 47 1 22 44
M  V30 48 1 23 45
M  V30 49 1 24 46
M  V30 50 1 25 47
M  V30 51 1 26 48
M  V30 END BOND
M  V30 END CTAB
M  END
>  <Dataset>  (298) 
ChEMBL_Kinases

>  <Ligand_Instance>  (298) 
nan

>  <PDB_ID>  (298) 
nan

>  <Standardized_SMILES>  (298) 
Cc1n[nH]c2cnc(-c3cncc(OC[C@@H](N)Cc4ccccc4)c3)cc12

>  <Name>  (298) 
nan

>  <Pocket>  (298) 
nan

>  <ATP_Site>  (298) 
nan

>  <Peripheral>  (298) 
nan

>  <Num_H_Atoms_ProtBoundConf>  (298) 
nan

>  <Num_Resolved_Atoms>  (298) 
nan

>  <Num_Not_Resolved_Atoms>  (298) 
nan

$$$$
CHEMBL376569
     RDKit          3D

  0  0  0  0  0  0  0  0  0  0999 V3000
M  V30 BEGIN CTAB
M  V30 COUNTS 52 56 0 0 0
M  V30 BEGIN ATOM
M  V30 1 C 4.762233 -7.117634 1.850776 0
M  V30 2 C 5.291335 -5.874737 2.471478 0
M  V30 3 N 6.312257 -5.676758 3.323005 0
M  V30 4 N 6.445697 -4.400997 3.631093 0
M  V30 5 C 5.489419 -3.680307 2.976332 0
M  V30 6 C 5.201422 -2.312413 2.959547 0
M  V30 7 N 4.179697 -2.012405 2.185018 0
M  V30 8 C 3.420761 -2.818907 1.448429 0
M  V30 9 C 2.337996 -2.230144 0.672099 0
M  V30 10 C 1.547037 -3.057020 -0.093989 0
M  V30 11 N 0.552446 -2.494911 -0.804033 0
M  V30 12 C 0.299656 -1.185365 -0.800076 0
M  V30 13 C 1.032436 -0.285336 -0.068334 0
M  V30 14 O 1.017945 1.060885 0.135811 0
M  V30 15 C 0.180323 2.044490 -0.360632 0
M  V30 16 C -1.269754 1.902067 0.035977 0 CFG=1
M  V30 17 N -1.351825 1.943983 1.488718 0
M  V30 18 C -2.117877 2.997172 -0.583784 0
M  V30 19 C -3.539265 2.915927 -0.236659 0
M  V30 20 C -4.147318 3.753403 0.701956 0
M  V30 21 N -5.444633 3.408889 0.775732 0
M  V30 22 C -5.695699 2.382241 -0.078652 0
M  V30 23 C -6.829476 1.657082 -0.398895 0
M  V30 24 C -6.847307 0.640530 -1.314526 0
M  V30 25 C -5.630726 0.356659 -1.933207 0
M  V30 26 C -4.472331 1.043228 -1.655300 0
M  V30 27 C -4.501372 2.056927 -0.728105 0
M  V30 28 C 2.074317 -0.873030 0.675338 0
M  V30 29 C 3.705616 -4.162219 1.466621 0
M  V30 30 C 4.757708 -4.602565 2.243112 0
M  V30 31 H 5.007262 -7.081177 0.777444 0
M  V30 32 H 3.652271 -7.193077 1.937881 0
M  V30 33 H 5.166766 -8.012658 2.342975 0
M  V30 34 H 7.171278 -3.977708 4.280865 0
M  V30 35 H 5.772755 -1.596528 3.531465 0
M  V30 36 H 1.629097 -4.114726 -0.195107 0
M  V30 37 H -0.475028 -0.733484 -1.364905 0
M  V30 38 H 0.275581 2.098759 -1.489659 0
M  V30 39 H 0.579663 3.031171 0.038639 0
M  V30 40 H -1.656080 0.963487 -0.341392 0
M  V30 41 H -0.391847 1.900011 1.909778 0
M  V30 42 H -1.770489 2.850363 1.809430 0
M  V30 43 H -2.021194 2.959023 -1.685302 0
M  V30 44 H -1.679451 3.964654 -0.278474 0
M  V30 45 H -3.725873 4.559414 1.305923 0
M  V30 46 H -6.163532 3.857721 1.395907 0
M  V30 47 H -7.712231 1.967557 0.144467 0
M  V30 48 H -7.766295 0.102738 -1.528613 0
M  V30 49 H -5.638467 -0.452198 -2.663716 0
M  V30 50 H -3.543344 0.813266 -2.139522 0
M  V30 51 H 2.759709 -0.322871 1.313338 0
M  V30 52 H 3.133071 -4.859017 0.897415 0
M  V30 END ATOM
M  V30 BEGIN BOND
M  V30 1 1 1 2
M  V30 2 2 2 3
M  V30 3 1 3 4
M  V30 4 1 4 5
M  V30 5 2 5 6
M  V30 6 1 6 7
M  V30 7 2 7 8
M  V30 8 1 8 9
M  V30 9 2 9 10
M  V30 10 1 10 11
M  V30 11 2 11 12
M  V30 12 1 12 13
M  V30 13 1 13 14
M  V30 14 1 14 15
M  V30 15 1 15 16
M  V30 16 1 16 17
M  V30 17 1 16 18
M  V30 18 1 18 19
M  V30 19 2 19 20
M  V30 20 1 20 21
M  V30 21 1 21 22
M  V30 22 2 22 23
M  V30 23 1 23 24
M  V30 24 2 24 25
M  V30 25 1 25 26
M  V30 26 2 26 27
M  V30 27 2 13 28
M  V30 28 1 8 29
M  V30 29 2 29 30
M  V30 30 1 30 2
M  V30 31 1 30 5
M  V30 32 1 28 9
M  V30 33 1 27 19
M  V30 34 1 27 22
M  V30 35 1 1 31
M  V30 36 1 1 32
M  V30 37 1 1 33
M  V30 38 1 4 34
M  V30 39 1 6 35
M  V30 40 1 10 36
M  V30 41 1 12 37
M  V30 42 1 15 38
M  V30 43 1 15 39
M  V30 44 1 16 40 CFG=3
M  V30 45 1 17 41
M  V30 46 1 17 42
M  V30 47 1 18 43
M  V30 48 1 18 44
M  V30 49 1 20 45
M  V30 50 1 21 46
M  V30 51 1 23 47
M  V30 52 1 24 48
M  V30 53 1 25 49
M  V30 54 1 26 50
M  V30 55 1 28 51
M  V30 56 1 29 52
M  V30 END BOND
M  V30 END CTAB
M  END
>  <Dataset>  (299) 
ChEMBL_Kinases

>  <Ligand_Instance>  (299) 
nan

>  <PDB_ID>  (299) 
nan

>  <Standardized_SMILES>  (299) 
Cc1n[nH]c2cnc(-c3cncc(OC[C@@H](N)Cc4c[nH]c5ccccc45)c3)cc12

>  <Name>  (299) 
nan

>  <Pocket>  (299) 
nan

>  <ATP_Site>  (299) 
nan

>  <Peripheral>  (299) 
nan

>  <Num_H_Atoms_ProtBoundConf>  (299) 
nan

>  <Num_Resolved_Atoms>  (299) 
nan

>  <Num_Not_Resolved_Atoms>  (299) 
nan

$$$$
CHEMBL5084913
     RDKit          3D

  0  0  0  0  0  0  0  0  0  0999 V3000
M  V30 BEGIN CTAB
M  V30 COUNTS 47 49 0 0 0
M  V30 BEGIN ATOM
M  V30 1 C 0.523151 -4.100121 0.378321 0
M  V30 2 C 0.528258 -3.682497 -1.072625 0
M  V30 3 C 1.550059 -2.677336 -1.372327 0
M  V30 4 C 2.726685 -2.981561 -2.020721 0
M  V30 5 C 3.699027 -2.059651 -2.289995 0
M  V30 6 O 4.823278 -2.512214 -2.946803 0
M  V30 7 C 3.464174 -0.769286 -1.881044 0
M  V30 8 F 4.416924 0.151401 -2.141271 0
M  V30 9 C 2.282586 -0.448022 -1.226714 0
M  V30 10 C 1.285996 -1.396207 -0.952153 0
M  V30 11 C 0.133383 -0.825154 -0.285704 0
M  V30 12 C 0.434384 -0.152899 0.895721 0
M  V30 13 C -0.509407 0.473251 1.668402 0
M  V30 14 N -0.277149 1.176499 2.885463 0
M  V30 15 C -0.985298 0.652783 4.059880 0
M  V30 16 C 0.532321 2.340464 3.232371 0
M  V30 17 C 1.693743 1.990024 4.125781 0
M  V30 18 O 2.536330 1.078019 3.516086 0
M  V30 19 C -1.831522 0.444329 1.266640 0
M  V30 20 N -2.814404 1.035964 1.969742 0
M  V30 21 C -4.089707 0.978802 1.531880 0
M  V30 22 N -5.185344 1.583349 2.223969 0
M  V30 23 N -4.396227 0.329776 0.387225 0
M  V30 24 C -3.478349 -0.284563 -0.370583 0
M  V30 25 C -2.185613 -0.216626 0.089087 0
M  V30 26 C -1.195069 -0.819311 -0.632779 0
M  V30 27 H 0.449414 -5.202834 0.429664 0
M  V30 28 H 1.446115 -3.770916 0.915667 0
M  V30 29 H -0.363117 -3.721598 0.941715 0
M  V30 30 H 0.749162 -4.609505 -1.674636 0
M  V30 31 H -0.500537 -3.424096 -1.341111 0
M  V30 32 H 2.824389 -4.020043 -2.305089 0
M  V30 33 H 4.997624 -2.243385 -3.924542 0
M  V30 34 H 2.211183 0.602164 -0.952843 0
M  V30 35 H 1.442344 -0.080084 1.285504 0
M  V30 36 H -0.362518 0.581020 4.951788 0
M  V30 37 H -1.392462 -0.362400 3.884720 0
M  V30 38 H -1.788015 1.395147 4.298845 0
M  V30 39 H -0.112771 3.037203 3.806186 0
M  V30 40 H 0.859384 2.907895 2.338798 0
M  V30 41 H 1.356395 1.657056 5.110494 0
M  V30 42 H 2.281730 2.938947 4.234292 0
M  V30 43 H 3.181060 1.537892 2.958621 0
M  V30 44 H -5.834059 2.264120 1.738237 0
M  V30 45 H -5.394375 1.387703 3.218800 0
M  V30 46 H -3.699950 -0.811330 -1.291813 0
M  V30 47 H -1.443122 -1.316441 -1.539552 0
M  V30 END ATOM
M  V30 BEGIN BOND
M  V30 1 1 1 2
M  V30 2 1 2 3
M  V30 3 2 3 4
M  V30 4 1 4 5
M  V30 5 1 5 6
M  V30 6 2 5 7
M  V30 7 1 7 8
M  V30 8 1 7 9
M  V30 9 2 9 10
M  V30 10 1 10 11
M  V30 11 2 11 12
M  V30 12 1 12 13
M  V30 13 1 13 14
M  V30 14 1 14 15
M  V30 15 1 14 16
M  V30 16 1 16 17
M  V30 17 1 17 18
M  V30 18 2 13 19
M  V30 19 1 19 20
M  V30 20 2 20 21
M  V30 21 1 21 22
M  V30 22 1 21 23
M  V30 23 2 23 24
M  V30 24 1 24 25
M  V30 25 2 25 26
M  V30 26 1 10 3
M  V30 27 1 26 11
M  V30 28 1 25 19
M  V30 29 1 1 27
M  V30 30 1 1 28
M  V30 31 1 1 29
M  V30 32 1 2 30
M  V30 33 1 2 31
M  V30 34 1 4 32
M  V30 35 1 6 33
M  V30 36 1 9 34
M  V30 37 1 12 35
M  V30 38 1 15 36
M  V30 39 1 15 37
M  V30 40 1 15 38
M  V30 41 1 16 39
M  V30 42 1 16 40
M  V30 43 1 17 41
M  V30 44 1 17 42
M  V30 45 1 18 43
M  V30 46 1 22 44
M  V30 47 1 22 45
M  V30 48 1 24 46
M  V30 49 1 26 47
M  V30 END BOND
M  V30 END CTAB
M  END
>  <Dataset>  (300) 
ChEMBL_Kinases

>  <Ligand_Instance>  (300) 
nan

>  <PDB_ID>  (300) 
nan

>  <Standardized_SMILES>  (300) 
CCc1cc(O)c(F)cc1-c1cc(N(C)CCO)c2nc(N)ncc2c1

>  <Name>  (300) 
nan

>  <Pocket>  (300) 
nan

>  <ATP_Site>  (300) 
nan

>  <Peripheral>  (300) 
nan

>  <Num_H_Atoms_ProtBoundConf>  (300) 
nan

>  <Num_Resolved_Atoms>  (300) 
nan

>  <Num_Not_Resolved_Atoms>  (300) 
nan

$$$$
CHEMBL3769552
     RDKit          3D

  0  0  0  0  0  0  0  0  0  0999 V3000
M  V30 BEGIN CTAB
M  V30 COUNTS 61 65 0 0 0
M  V30 BEGIN ATOM
M  V30 1 C 2.714750 -4.233469 6.396310 0
M  V30 2 N 3.218002 -3.716094 5.142573 0
M  V30 3 C 2.955832 -2.693362 4.197807 0
M  V30 4 N 3.777823 -1.625740 3.954864 0
M  V30 5 C 3.387229 -0.711731 3.014316 0
M  V30 6 C 2.203075 -0.839401 2.317920 0
M  V30 7 C 1.833708 0.088026 1.372932 0
M  V30 8 C 0.633870 -0.134700 0.726937 0
M  V30 9 C 0.201235 0.862179 -0.246010 0
M  V30 10 C 0.272948 1.020609 -1.608493 0
M  V30 11 C -0.275932 2.122941 -2.215895 0
M  V30 12 C -0.916812 3.120904 -1.530321 0
M  V30 13 C -1.467754 4.250513 -2.274109 0
M  V30 14 C -2.093045 5.312320 -1.687007 0
M  V30 15 C -2.553016 6.337492 -2.535478 0
M  V30 16 C -2.394959 6.305705 -3.927599 0
M  V30 17 C -1.739567 5.171237 -4.440705 0
M  V30 18 C -1.576741 5.073515 -5.937477 0
M  V30 19 N -1.325186 4.235312 -3.604776 0
M  V30 20 C -1.000024 2.981944 -0.153697 0
M  V30 21 C -0.452962 1.867743 0.510278 0
M  V30 22 Cl -0.691573 1.917896 2.267075 0
M  V30 23 C -0.121203 -1.247476 1.047481 0
M  V30 24 O -1.210039 -1.338845 0.376673 0
M  V30 25 N 0.240750 -2.158040 1.975479 0
M  V30 26 C -0.661411 -3.246863 2.170505 0
M  V30 27 C -0.459878 -4.478669 1.439984 0 CFG=2
M  V30 28 C -0.460891 -4.403197 -0.076500 0
M  V30 29 C -0.168749 -5.793107 -0.642613 0
M  V30 30 N -0.352501 -6.815583 0.337920 0
M  V30 31 C -1.508941 -6.666140 1.167667 0
M  V30 32 C -1.758156 -5.300612 1.695647 0
M  V30 33 F -2.731817 -4.699405 0.889047 0
M  V30 34 F -2.131391 -5.238736 3.008841 0
M  V30 35 C 1.422278 -1.960509 2.629558 0
M  V30 36 N 1.765095 -2.893945 3.551139 0
M  V30 37 H 1.700087 -3.849195 6.625298 0
M  V30 38 H 2.642601 -5.345902 6.323152 0
M  V30 39 H 3.387916 -3.915107 7.206723 0
M  V30 40 H 4.058595 -4.242651 4.785067 0
M  V30 41 H 3.988665 0.150591 2.772444 0
M  V30 42 H 2.434645 0.945762 1.137919 0
M  V30 43 H 0.798192 0.172254 -2.008880 0
M  V30 44 H -0.150230 2.128277 -3.310392 0
M  V30 45 H -2.235108 5.369368 -0.632728 0
M  V30 46 H -3.056611 7.208778 -2.131645 0
M  V30 47 H -2.762631 7.125211 -4.528278 0
M  V30 48 H -0.750512 4.350878 -6.105510 0
M  V30 49 H -1.337493 6.028805 -6.410059 0
M  V30 50 H -2.495730 4.578568 -6.350509 0
M  V30 51 H -1.514098 3.786633 0.392347 0
M  V30 52 H -0.608553 -3.494160 3.275853 0
M  V30 53 H -1.693855 -2.874042 2.022952 0
M  V30 54 H 0.306511 -5.181009 1.842441 0
M  V30 55 H -1.481293 -4.129857 -0.396893 0
M  V30 56 H 0.232781 -3.643029 -0.461717 0
M  V30 57 H 0.929185 -5.798840 -0.899443 0
M  V30 58 H -0.721538 -6.015336 -1.554350 0
M  V30 59 H 0.517578 -7.047624 0.866096 0
M  V30 60 H -2.415478 -7.067028 0.626552 0
M  V30 61 H -1.375492 -7.374670 2.038718 0
M  V30 END ATOM
M  V30 BEGIN BOND
M  V30 1 1 1 2
M  V30 2 1 2 3
M  V30 3 2 3 4
M  V30 4 1 4 5
M  V30 5 2 5 6
M  V30 6 1 6 7
M  V30 7 2 7 8
M  V30 8 1 8 9
M  V30 9 2 9 10
M  V30 10 1 10 11
M  V30 11 2 11 12
M  V30 12 1 12 13
M  V30 13 2 13 14
M  V30 14 1 14 15
M  V30 15 2 15 16
M  V30 16 1 16 17
M  V30 17 1 17 18
M  V30 18 2 17 19
M  V30 19 1 12 20
M  V30 20 2 20 21
M  V30 21 1 21 22
M  V30 22 1 8 23
M  V30 23 2 23 24
M  V30 24 1 23 25
M  V30 25 1 25 26
M  V30 26 1 26 27
M  V30 27 1 27 28
M  V30 28 1 28 29
M  V30 29 1 29 30
M  V30 30 1 30 31
M  V30 31 1 31 32
M  V30 32 1 32 33
M  V30 33 1 32 34
M  V30 34 1 25 35
M  V30 35 2 35 36
M  V30 36 1 36 3
M  V30 37 1 35 6
M  V30 38 1 21 9
M  V30 39 1 32 27
M  V30 40 1 19 13
M  V30 41 1 1 37
M  V30 42 1 1 38
M  V30 43 1 1 39
M  V30 44 1 2 40
M  V30 45 1 5 41
M  V30 46 1 7 42
M  V30 47 1 10 43
M  V30 48 1 11 44
M  V30 49 1 14 45
M  V30 50 1 15 46
M  V30 51 1 16 47
M  V30 52 1 18 48
M  V30 53 1 18 49
M  V30 54 1 18 50
M  V30 55 1 20 51
M  V30 56 1 26 52
M  V30 57 1 26 53
M  V30 58 1 27 54 CFG=1
M  V30 59 1 28 55
M  V30 60 1 28 56
M  V30 61 1 29 57
M  V30 62 1 29 58
M  V30 63 1 30 59
M  V30 64 1 31 60
M  V30 65 1 31 61
M  V30 END BOND
M  V30 END CTAB
M  END
>  <Dataset>  (301) 
ChEMBL_Kinases

>  <Ligand_Instance>  (301) 
nan

>  <PDB_ID>  (301) 
nan

>  <Standardized_SMILES>  (301) 
CNc1ncc2cc(-c3ccc(-c4cccc(C)n4)cc3Cl)c(=O)n(C[C@@H]3CCNCC3(F)F)c2n1

>  <Name>  (301) 
nan

>  <Pocket>  (301) 
nan

>  <ATP_Site>  (301) 
nan

>  <Peripheral>  (301) 
nan

>  <Num_H_Atoms_ProtBoundConf>  (301) 
nan

>  <Num_Resolved_Atoms>  (301) 
nan

>  <Num_Not_Resolved_Atoms>  (301) 
nan

$$$$
CHEMBL3774503
     RDKit          3D

  0  0  0  0  0  0  0  0  0  0999 V3000
M  V30 BEGIN CTAB
M  V30 COUNTS 66 70 0 0 0
M  V30 BEGIN ATOM
M  V30 1 C 5.449410 -2.249325 1.612881 0
M  V30 2 C 4.429089 -1.436009 2.353590 0
M  V30 3 C 3.351529 -2.240166 3.016491 0
M  V30 4 C 3.858571 -0.326941 1.559961 0
M  V30 5 N 4.303847 0.961928 1.506743 0
M  V30 6 N 3.562272 1.677918 0.703664 0
M  V30 7 C 2.626700 0.853073 0.228669 0
M  V30 8 C 1.596859 1.094937 -0.655490 0
M  V30 9 N 1.320695 2.346642 -1.267703 0
M  V30 10 C 0.294434 2.747055 -2.194717 0
M  V30 11 C -1.083626 2.610954 -1.665279 0
M  V30 12 C -1.512969 3.759883 -0.987081 0
M  V30 13 C -2.774026 3.882540 -0.400684 0
M  V30 14 C -3.638649 2.813280 -0.497246 0
M  V30 15 C -4.983771 2.793030 0.062868 0
M  V30 16 C -5.512064 3.864234 0.747030 0
M  V30 17 C -6.789857 3.876428 1.291057 0
M  V30 18 C -7.595434 2.778870 1.157951 0
M  V30 19 C -7.049687 1.711607 0.467954 0
M  V30 20 N -5.806675 1.736069 -0.045605 0
M  V30 21 C -3.221327 1.666569 -1.169582 0
M  V30 22 C -1.972395 1.559368 -1.744286 0
M  V30 23 N 0.792388 0.086677 -0.973585 0
M  V30 24 C 0.875207 -1.174866 -0.516235 0
M  V30 25 N -0.017581 -2.210301 -0.915895 0
M  V30 26 C -0.039336 -3.597761 -0.485251 0 CFG=1
M  V30 27 C 1.256692 -4.292723 -0.647008 0
M  V30 28 C 1.604464 -5.379668 0.308843 0
M  V30 29 C 1.047116 -5.250849 1.685862 0 CFG=2
M  V30 30 N 0.197730 -6.377269 2.032141 0
M  V30 31 C 0.201360 -4.023164 1.895621 0
M  V30 32 C -0.778198 -3.834333 0.794405 0
M  V30 33 N 1.897556 -1.333010 0.336139 0
M  V30 34 C 2.761935 -0.418390 0.730587 0
M  V30 35 H 6.498297 -1.949015 1.814300 0
M  V30 36 H 5.315585 -2.151984 0.496788 0
M  V30 37 H 5.354718 -3.321970 1.924877 0
M  V30 38 H 4.996727 -0.946783 3.201009 0
M  V30 39 H 2.412478 -1.628834 2.967720 0
M  V30 40 H 3.168882 -3.175028 2.472368 0
M  V30 41 H 3.568780 -2.446019 4.099325 0
M  V30 42 H 3.685921 2.706721 0.480265 0
M  V30 43 H 2.013440 3.097817 -0.964833 0
M  V30 44 H 0.481454 3.753452 -2.564602 0
M  V30 45 H 0.443425 2.077221 -3.096702 0
M  V30 46 H -0.899804 4.659163 -0.857685 0
M  V30 47 H -3.087364 4.757634 0.110159 0
M  V30 48 H -4.960785 4.758068 0.899913 0
M  V30 49 H -7.185555 4.729883 1.825714 0
M  V30 50 H -8.602718 2.704281 1.550914 0
M  V30 51 H -7.609494 0.786379 0.305698 0
M  V30 52 H -3.826171 0.774077 -1.299621 0
M  V30 53 H -1.581756 0.724070 -2.274722 0
M  V30 54 H -0.739790 -1.854419 -1.621821 0
M  V30 55 H -0.728575 -4.088668 -1.266404 0
M  V30 56 H 2.058690 -3.493191 -0.634803 0
M  V30 57 H 1.383314 -4.716544 -1.668262 0
M  V30 58 H 2.713955 -5.423037 0.380459 0
M  V30 59 H 1.316478 -6.382849 -0.076218 0
M  V30 60 H 1.848199 -5.206230 2.452886 0
M  V30 61 H -0.547301 -6.545647 1.345115 0
M  V30 62 H -0.052483 -6.416137 3.021496 0
M  V30 63 H 0.745431 -3.108254 2.099077 0
M  V30 64 H -0.421056 -4.196076 2.830810 0
M  V30 65 H -1.410769 -4.763978 0.648795 0
M  V30 66 H -1.447627 -2.964693 0.988415 0
M  V30 END ATOM
M  V30 BEGIN BOND
M  V30 1 1 1 2
M  V30 2 1 2 3
M  V30 3 1 2 4
M  V30 4 2 4 5
M  V30 5 1 5 6
M  V30 6 1 6 7
M  V30 7 2 7 8
M  V30 8 1 8 9
M  V30 9 1 9 10
M  V30 10 1 10 11
M  V30 11 2 11 12
M  V30 12 1 12 13
M  V30 13 2 13 14
M  V30 14 1 14 15
M  V30 15 2 15 16
M  V30 16 1 16 17
M  V30 17 2 17 18
M  V30 18 1 18 19
M  V30 19 2 19 20
M  V30 20 1 14 21
M  V30 21 2 21 22
M  V30 22 1 8 23
M  V30 23 2 23 24
M  V30 24 1 24 25
M  V30 25 1 25 26
M  V30 26 1 26 27
M  V30 27 1 27 28
M  V30 28 1 28 29
M  V30 29 1 29 30
M  V30 30 1 29 31
M  V30 31 1 31 32
M  V30 32 1 24 33
M  V30 33 2 33 34
M  V30 34 1 34 4
M  V30 35 1 34 7
M  V30 36 1 22 11
M  V30 37 1 32 26
M  V30 38 1 20 15
M  V30 39 1 1 35
M  V30 40 1 1 36
M  V30 41 1 1 37
M  V30 42 1 2 38
M  V30 43 1 3 39
M  V30 44 1 3 40
M  V30 45 1 3 41
M  V30 46 1 6 42
M  V30 47 1 9 43
M  V30 48 1 10 44
M  V30 49 1 10 45
M  V30 50 1 12 46
M  V30 51 1 13 47
M  V30 52 1 16 48
M  V30 53 1 17 49
M  V30 54 1 18 50
M  V30 55 1 19 51
M  V30 56 1 21 52
M  V30 57 1 22 53
M  V30 58 1 25 54
M  V30 59 1 26 55 CFG=3
M  V30 60 1 27 56
M  V30 61 1 27 57
M  V30 62 1 28 58
M  V30 63 1 28 59
M  V30 64 1 29 60 CFG=1
M  V30 65 1 30 61
M  V30 66 1 30 62
M  V30 67 1 31 63
M  V30 68 1 31 64
M  V30 69 1 32 65
M  V30 70 1 32 66
M  V30 END BOND
M  V30 END CTAB
M  END
>  <Dataset>  (302) 
ChEMBL_Kinases

>  <Ligand_Instance>  (302) 
nan

>  <PDB_ID>  (302) 
nan

>  <Standardized_SMILES>  (302) 
CC(C)c1n[nH]c2c(NCc3ccc(-c4ccccn4)cc3)nc(N[C@H]3CC[C@H](N)CC3)nc12

>  <Name>  (302) 
nan

>  <Pocket>  (302) 
nan

>  <ATP_Site>  (302) 
nan

>  <Peripheral>  (302) 
nan

>  <Num_H_Atoms_ProtBoundConf>  (302) 
nan

>  <Num_Resolved_Atoms>  (302) 
nan

>  <Num_Not_Resolved_Atoms>  (302) 
nan

$$$$
CHEMBL5084386
     RDKit          3D

  0  0  0  0  0  0  0  0  0  0999 V3000
M  V30 BEGIN CTAB
M  V30 COUNTS 92 97 0 0 0
M  V30 BEGIN ATOM
M  V30 1 C 3.854466 -2.813992 -1.013637 0
M  V30 2 S 3.748345 -1.255222 -1.894736 0
M  V30 3 O 4.264401 -0.194309 -0.969613 0
M  V30 4 O 4.677200 -1.414596 -3.089393 0
M  V30 5 N 2.141684 -1.034864 -2.333940 0
M  V30 6 C 1.560364 -1.970113 -3.181768 0
M  V30 7 C 0.272770 -1.603556 -3.827631 0
M  V30 8 C -0.539057 -0.868875 -2.748587 0
M  V30 9 C 0.193940 0.444624 -2.598396 0
M  V30 10 N -0.511921 1.390315 -1.756980 0
M  V30 11 C -1.166253 2.683677 -1.892347 0
M  V30 12 O -0.859706 2.660779 -3.124190 0
M  V30 13 C -1.770945 3.285244 -0.698203 0 CFG=2
M  V30 14 C -1.418752 4.648253 -0.308185 0
M  V30 15 C -1.614761 5.914031 -0.918855 0
M  V30 16 C -1.261255 6.508831 -2.200583 0
M  V30 17 C -1.905283 5.886244 -3.371963 0
M  V30 18 C -1.316384 6.150148 -4.721838 0
M  V30 19 C 0.145392 5.831678 -4.626887 0
M  V30 20 C 0.688946 6.941778 -3.756257 0
M  V30 21 C 0.182910 6.897820 -2.360764 0
M  V30 22 N -1.537917 2.326645 0.413585 0
M  V30 23 C -2.562535 1.588836 1.054033 0
M  V30 24 O -3.732964 1.735226 0.678854 0
M  V30 25 C -2.271336 0.666924 2.141631 0
M  V30 26 C -3.303458 0.007715 2.771928 0
M  V30 27 C -3.146685 -0.875056 3.807237 0
M  V30 28 C -1.860280 -1.150878 4.284020 0
M  V30 29 C -1.803969 -2.105328 5.412455 0
M  V30 30 N -1.756493 -3.467318 4.963373 0
M  V30 31 C -0.787149 -4.120107 4.158065 0
M  V30 32 N 0.285625 -3.468811 3.689285 0
M  V30 33 C 1.227845 -4.027235 2.930458 0
M  V30 34 N 1.140510 -5.325434 2.586387 0
M  V30 35 C 0.106890 -6.044659 3.010004 0
M  V30 36 C -0.861577 -5.461985 3.792648 0
M  V30 37 C -1.836987 -6.388658 4.116726 0
M  V30 38 N -1.457621 -7.539976 3.527311 0
M  V30 39 N -0.311110 -7.328624 2.877228 0
M  V30 40 C 0.364478 -8.343106 2.145027 0
M  V30 41 C 1.246240 -9.329279 2.600233 0
M  V30 42 C 1.783078 -10.211885 1.699200 0
M  V30 43 C 1.474363 -10.153544 0.344116 0
M  V30 44 C 0.618417 -9.202167 -0.122376 0
M  V30 45 C 0.065158 -8.297328 0.786278 0
M  V30 46 C -0.831785 -0.505359 3.668148 0
M  V30 47 C -1.008455 0.380921 2.626620 0
M  V30 48 C 1.594898 0.244805 -2.151410 0
M  V30 49 H 3.682967 -3.667389 -1.692585 0
M  V30 50 H 3.124203 -2.834928 -0.171753 0
M  V30 51 H 4.859010 -2.962719 -0.569492 0
M  V30 52 H 2.318102 -2.265694 -3.966893 0
M  V30 53 H 1.376715 -2.932769 -2.618257 0
M  V30 54 H -0.247618 -2.521775 -4.173789 0
M  V30 55 H 0.441237 -0.937579 -4.700283 0
M  V30 56 H -0.473626 -1.520745 -1.853505 0
M  V30 57 H -1.569406 -0.702587 -3.080560 0
M  V30 58 H 0.233081 0.873498 -3.618090 0
M  V30 59 H -0.445530 0.834850 -0.825122 0
M  V30 60 H -2.889411 3.153496 -0.851407 0
M  V30 61 H -0.345908 4.602252 0.216040 0
M  V30 62 H -1.973427 4.741444 0.725017 0
M  V30 63 H -2.770537 6.132195 -0.777462 0
M  V30 64 H -1.287625 6.686366 -0.083958 0
M  V30 65 H -1.761342 7.547099 -2.183583 0
M  V30 66 H -2.191938 4.828633 -3.317769 0
M  V30 67 H -2.986698 6.344528 -3.509624 0
M  V30 68 H -1.413463 7.238651 -4.996479 0
M  V30 69 H -1.860789 5.510647 -5.437892 0
M  V30 70 H 0.595103 5.973467 -5.630123 0
M  V30 71 H 0.293804 4.843901 -4.207631 0
M  V30 72 H 0.468170 7.892732 -4.282199 0
M  V30 73 H 1.804636 6.825679 -3.816817 0
M  V30 74 H 0.411043 7.886640 -1.911996 0
M  V30 75 H 0.886521 6.220001 -1.802043 0
M  V30 76 H -0.532120 2.242229 0.686956 0
M  V30 77 H -4.305742 0.208090 2.416681 0
M  V30 78 H -4.012959 -1.333774 4.228273 0
M  V30 79 H -2.699308 -1.962283 6.064244 0
M  V30 80 H -0.928439 -1.867897 6.081320 0
M  V30 81 H -2.540560 -4.106152 5.255847 0
M  V30 82 H 2.057994 -3.413768 2.599324 0
M  V30 83 H -2.723755 -6.177548 4.733607 0
M  V30 84 H 1.406069 -9.275033 3.656639 0
M  V30 85 H 2.462046 -10.957214 2.107649 0
M  V30 86 H 1.909161 -10.860863 -0.349566 0
M  V30 87 H 0.381758 -9.164105 -1.185457 0
M  V30 88 H -0.608776 -7.574575 0.318310 0
M  V30 89 H 0.147595 -0.718426 4.039711 0
M  V30 90 H -0.171406 0.874060 2.163880 0
M  V30 91 H 2.237968 1.018701 -2.619297 0
M  V30 92 H 1.619841 0.482009 -1.052827 0
M  V30 END ATOM
M  V30 BEGIN BOND
M  V30 1 1 1 2
M  V30 2 2 2 3
M  V30 3 2 2 4
M  V30 4 1 2 5
M  V30 5 1 5 6
M  V30 6 1 6 7
M  V30 7 1 7 8
M  V30 8 1 8 9
M  V30 9 1 9 10
M  V30 10 1 10 11
M  V30 11 2 11 12
M  V30 12 1 11 13
M  V30 13 1 13 14
M  V30 14 1 14 15
M  V30 15 1 15 16
M  V30 16 1 16 17
M  V30 17 1 17 18
M  V30 18 1 18 19
M  V30 19 1 19 20
M  V30 20 1 20 21
M  V30 21 1 13 22
M  V30 22 1 22 23
M  V30 23 2 23 24
M  V30 24 1 23 25
M  V30 25 2 25 26
M  V30 26 1 26 27
M  V30 27 2 27 28
M  V30 28 1 28 29
M  V30 29 1 29 30
M  V30 30 1 30 31
M  V30 31 2 31 32
M  V30 32 1 32 33
M  V30 33 2 33 34
M  V30 34 1 34 35
M  V30 35 2 35 36
M  V30 36 1 36 37
M  V30 37 2 37 38
M  V30 38 1 38 39
M  V30 39 1 39 40
M  V30 40 2 40 41
M  V30 41 1 41 42
M  V30 42 2 42 43
M  V30 43 1 43 44
M  V30 44 2 44 45
M  V30 45 1 28 46
M  V30 46 2 46 47
M  V30 47 1 9 48
M  V30 48 1 48 5
M  V30 49 1 21 16
M  V30 50 1 47 25
M  V30 51 1 36 31
M  V30 52 1 45 40
M  V30 53 1 39 35
M  V30 54 1 1 49
M  V30 55 1 1 50
M  V30 56 1 1 51
M  V30 57 1 6 52
M  V30 58 1 6 53
M  V30 59 1 7 54
M  V30 60 1 7 55
M  V30 61 1 8 56
M  V30 62 1 8 57
M  V30 63 1 9 58
M  V30 64 1 10 59
M  V30 65 1 13 60 CFG=3
M  V30 66 1 14 61
M  V30 67 1 14 62
M  V30 68 1 15 63
M  V30 69 1 15 64
M  V30 70 1 16 65
M  V30 71 1 17 66
M  V30 72 1 17 67
M  V30 73 1 18 68
M  V30 74 1 18 69
M  V30 75 1 19 70
M  V30 76 1 19 71
M  V30 77 1 20 72
M  V30 78 1 20 73
M  V30 79 1 21 74
M  V30 80 1 21 75
M  V30 81 1 22 76
M  V30 82 1 26 77
M  V30 83 1 27 78
M  V30 84 1 29 79
M  V30 85 1 29 80
M  V30 86 1 30 81
M  V30 87 1 33 82
M  V30 88 1 37 83
M  V30 89 1 41 84
M  V30 90 1 42 85
M  V30 91 1 43 86
M  V30 92 1 44 87
M  V30 93 1 45 88
M  V30 94 1 46 89
M  V30 95 1 47 90
M  V30 96 1 48 91
M  V30 97 1 48 92
M  V30 END BOND
M  V30 END CTAB
M  END
>  <Dataset>  (303) 
ChEMBL_Kinases

>  <Ligand_Instance>  (303) 
nan

>  <PDB_ID>  (303) 
nan

>  <Standardized_SMILES>  (303) 
CS(=O)(=O)N1CCCC(NC(=O)[C@H](CCC2CCCCC2)NC(=O)c2ccc(CNc3ncnc4c3cnn4-c3ccccc3)cc2)C1

>  <Name>  (303) 
nan

>  <Pocket>  (303) 
nan

>  <ATP_Site>  (303) 
nan

>  <Peripheral>  (303) 
nan

>  <Num_H_Atoms_ProtBoundConf>  (303) 
nan

>  <Num_Resolved_Atoms>  (303) 
nan

>  <Num_Not_Resolved_Atoms>  (303) 
nan

$$$$
CHEMBL3774434
     RDKit          3D

  0  0  0  0  0  0  0  0  0  0999 V3000
M  V30 BEGIN CTAB
M  V30 COUNTS 46 49 0 0 0
M  V30 BEGIN ATOM
M  V30 1 C -0.521389 -5.544003 1.501304 0
M  V30 2 C 0.738285 -5.079901 0.759273 0
M  V30 3 C 0.982753 -6.100201 -0.338230 0
M  V30 4 C 0.533445 -3.732298 0.182228 0
M  V30 5 N 0.681233 -2.563685 0.859723 0
M  V30 6 N 0.411985 -1.571601 0.046064 0
M  V30 7 C 0.068414 -1.965400 -1.216748 0
M  V30 8 C -0.286773 -1.343166 -2.399365 0
M  V30 9 N -0.316214 0.045862 -2.277865 0
M  V30 10 C -0.345644 1.432525 -2.156716 0
M  V30 11 C -0.028036 1.874347 -0.729885 0
M  V30 12 C 1.217399 2.154324 -0.212503 0
M  V30 13 C 1.321463 2.536680 1.107037 0
M  V30 14 C 0.236074 2.656147 1.947438 0
M  V30 15 C 0.329351 3.057952 3.344547 0
M  V30 16 C 1.513062 3.363189 3.978628 0
M  V30 17 C 1.655553 3.747994 5.293151 0
M  V30 18 C 0.487200 3.838085 6.059960 0
M  V30 19 C -0.696612 3.530749 5.419115 0
M  V30 20 N -0.787395 3.155341 4.118408 0
M  V30 21 C -1.016115 2.376056 1.432514 0
M  V30 22 C -1.137355 1.991983 0.113928 0
M  V30 23 N -0.526877 -2.219430 -3.383025 0
M  V30 24 C -0.460417 -3.535298 -3.329515 0
M  V30 25 N -0.113789 -4.052484 -2.158887 0
M  V30 26 C 0.160416 -3.331282 -1.077581 0
M  V30 27 H -0.546995 -6.646287 1.448970 0
M  V30 28 H -0.451396 -5.210919 2.557649 0
M  V30 29 H -1.434871 -5.154683 1.011005 0
M  V30 30 H 1.602535 -5.041166 1.444988 0
M  V30 31 H 1.529763 -5.670517 -1.194468 0
M  V30 32 H 1.571383 -6.928744 0.095955 0
M  V30 33 H -0.015413 -6.504460 -0.656042 0
M  V30 34 H 0.489655 -0.624210 0.445417 0
M  V30 35 H -0.602450 0.156294 -3.313834 0
M  V30 36 H -1.323513 1.898000 -2.416674 0
M  V30 37 H 0.408621 1.927694 -2.832892 0
M  V30 38 H 2.036050 2.047889 -0.903003 0
M  V30 39 H 2.310943 2.750470 1.488050 0
M  V30 40 H 2.433982 3.310142 3.439129 0
M  V30 41 H 2.612601 3.975813 5.739995 0
M  V30 42 H 0.506919 4.132306 7.098221 0
M  V30 43 H -1.616176 3.595079 6.002259 0
M  V30 44 H -1.894577 2.461652 2.074300 0
M  V30 45 H -2.125973 1.780481 -0.259681 0
M  V30 46 H -0.702809 -4.023786 -4.264443 0
M  V30 END ATOM
M  V30 BEGIN BOND
M  V30 1 1 1 2
M  V30 2 1 2 3
M  V30 3 1 2 4
M  V30 4 2 4 5
M  V30 5 1 5 6
M  V30 6 1 6 7
M  V30 7 2 7 8
M  V30 8 1 8 9
M  V30 9 1 9 10
M  V30 10 1 10 11
M  V30 11 2 11 12
M  V30 12 1 12 13
M  V30 13 2 13 14
M  V30 14 1 14 15
M  V30 15 2 15 16
M  V30 16 1 16 17
M  V30 17 2 17 18
M  V30 18 1 18 19
M  V30 19 2 19 20
M  V30 20 1 14 21
M  V30 21 2 21 22
M  V30 22 1 8 23
M  V30 23 2 23 24
M  V30 24 1 24 25
M  V30 25 2 25 26
M  V30 26 1 26 4
M  V30 27 1 26 7
M  V30 28 1 22 11
M  V30 29 1 20 15
M  V30 30 1 1 27
M  V30 31 1 1 28
M  V30 32 1 1 29
M  V30 33 1 2 30
M  V30 34 1 3 31
M  V30 35 1 3 32
M  V30 36 1 3 33
M  V30 37 1 6 34
M  V30 38 1 9 35
M  V30 39 1 10 36
M  V30 40 1 10 37
M  V30 41 1 12 38
M  V30 42 1 13 39
M  V30 43 1 16 40
M  V30 44 1 17 41
M  V30 45 1 18 42
M  V30 46 1 19 43
M  V30 47 1 21 44
M  V30 48 1 22 45
M  V30 49 1 24 46
M  V30 END BOND
M  V30 END CTAB
M  END
>  <Dataset>  (304) 
ChEMBL_Kinases

>  <Ligand_Instance>  (304) 
nan

>  <PDB_ID>  (304) 
nan

>  <Standardized_SMILES>  (304) 
CC(C)c1n[nH]c2c(NCc3ccc(-c4ccccn4)cc3)ncnc12

>  <Name>  (304) 
nan

>  <Pocket>  (304) 
nan

>  <ATP_Site>  (304) 
nan

>  <Peripheral>  (304) 
nan

>  <Num_H_Atoms_ProtBoundConf>  (304) 
nan

>  <Num_Resolved_Atoms>  (304) 
nan

>  <Num_Not_Resolved_Atoms>  (304) 
nan

$$$$
CHEMBL3774402
     RDKit          3D

  0  0  0  0  0  0  0  0  0  0999 V3000
M  V30 BEGIN CTAB
M  V30 COUNTS 53 57 0 0 0
M  V30 BEGIN ATOM
M  V30 1 C -1.691113 -3.576488 3.409347 0
M  V30 2 O -0.399707 -3.032831 3.373938 0
M  V30 3 C 0.203973 -3.353240 2.175923 0
M  V30 4 C 1.645443 -3.705676 2.352502 0
M  V30 5 N 1.952063 -2.272994 2.386943 0
M  V30 6 C 2.979936 -1.501596 3.044115 0
M  V30 7 O 3.786993 -2.157992 3.722648 0
M  V30 8 C 2.850826 -0.054468 2.762669 0
M  V30 9 C 2.945267 0.849156 3.799428 0
M  V30 10 C 2.815154 2.196540 3.524942 0
M  V30 11 C 2.594518 2.614753 2.228295 0
M  V30 12 N 2.420984 3.799534 1.617760 0
M  V30 13 N 2.236248 3.634450 0.321705 0
M  V30 14 C 2.278268 2.309746 -0.005652 0
M  V30 15 C 2.102047 1.837512 -1.401303 0
M  V30 16 C 0.737709 1.260643 -1.552911 0
M  V30 17 C -0.398188 2.007629 -1.764312 0
M  V30 18 C -1.660747 1.438247 -1.906931 0
M  V30 19 C -1.806523 0.058634 -1.835819 0
M  V30 20 C -3.092253 -0.636345 -1.972646 0
M  V30 21 C -4.251045 -0.396731 -2.680378 0
M  V30 22 N -5.128042 -1.402675 -2.411376 0
M  V30 23 N -4.584215 -2.269038 -1.569115 0
M  V30 24 C -5.178821 -3.478649 -1.023141 0
M  V30 25 C -3.349548 -1.830950 -1.284476 0
M  V30 26 C -0.653460 -0.706341 -1.621253 0
M  V30 27 C 0.587179 -0.114141 -1.484046 0
M  V30 28 C 2.503267 1.696765 1.203797 0
M  V30 29 C 2.631213 0.350651 1.461520 0
M  V30 30 C 0.790433 -2.107227 1.501649 0
M  V30 31 H -2.283545 -3.151593 2.559696 0
M  V30 32 H -2.214863 -3.303268 4.342020 0
M  V30 33 H -1.586124 -4.664628 3.263566 0
M  V30 34 H -0.393599 -3.964887 1.467091 0
M  V30 35 H 1.857896 -4.231733 3.304077 0
M  V30 36 H 2.105550 -4.242284 1.513679 0
M  V30 37 H 3.117354 0.456622 4.795397 0
M  V30 38 H 2.887826 2.924308 4.327727 0
M  V30 39 H 2.442946 4.692984 2.168678 0
M  V30 40 H 2.293231 2.648443 -2.119313 0
M  V30 41 H 2.884518 1.050026 -1.553895 0
M  V30 42 H -0.301773 3.094886 -1.822576 0
M  V30 43 H -2.549642 2.020419 -2.072016 0
M  V30 44 H -4.332079 0.479169 -3.314159 0
M  V30 45 H -5.871592 -3.965890 -1.722957 0
M  V30 46 H -4.342093 -4.169047 -0.730592 0
M  V30 47 H -5.679472 -3.248691 -0.043551 0
M  V30 48 H -2.652203 -2.343983 -0.608321 0
M  V30 49 H -0.786863 -1.783964 -1.568423 0
M  V30 50 H 1.388183 -0.819254 -1.335148 0
M  V30 51 H 2.564924 -0.378545 0.669636 0
M  V30 52 H 0.183580 -1.217754 1.718921 0
M  V30 53 H 0.986048 -2.352201 0.454243 0
M  V30 END ATOM
M  V30 BEGIN BOND
M  V30 1 1 1 2
M  V30 2 1 2 3
M  V30 3 1 3 4
M  V30 4 1 4 5
M  V30 5 1 5 6
M  V30 6 2 6 7
M  V30 7 1 6 8
M  V30 8 2 8 9
M  V30 9 1 9 10
M  V30 10 2 10 11
M  V30 11 1 11 12
M  V30 12 1 12 13
M  V30 13 2 13 14
M  V30 14 1 14 15
M  V30 15 1 15 16
M  V30 16 2 16 17
M  V30 17 1 17 18
M  V30 18 2 18 19
M  V30 19 1 19 20
M  V30 20 1 20 21
M  V30 21 2 21 22
M  V30 22 1 22 23
M  V30 23 1 23 24
M  V30 24 1 23 25
M  V30 25 1 19 26
M  V30 26 2 26 27
M  V30 27 1 14 28
M  V30 28 2 28 29
M  V30 29 1 5 30
M  V30 30 1 30 3
M  V30 31 1 29 8
M  V30 32 1 28 11
M  V30 33 1 27 16
M  V30 34 2 25 20
M  V30 35 1 1 31
M  V30 36 1 1 32
M  V30 37 1 1 33
M  V30 38 1 3 34
M  V30 39 1 4 35
M  V30 40 1 4 36
M  V30 41 1 9 37
M  V30 42 1 10 38
M  V30 43 1 12 39
M  V30 44 1 15 40
M  V30 45 1 15 41
M  V30 46 1 17 42
M  V30 47 1 18 43
M  V30 48 1 21 44
M  V30 49 1 24 45
M  V30 50 1 24 46
M  V30 51 1 24 47
M  V30 52 1 25 48
M  V30 53 1 26 49
M  V30 54 1 27 50
M  V30 55 1 29 51
M  V30 56 1 30 52
M  V30 57 1 30 53
M  V30 END BOND
M  V30 END CTAB
M  END
>  <Dataset>  (305) 
ChEMBL_Kinases

>  <Ligand_Instance>  (305) 
nan

>  <PDB_ID>  (305) 
nan

>  <Standardized_SMILES>  (305) 
COC1CN(C(=O)c2ccc3[nH]nc(Cc4ccc(-c5cnn(C)c5)cc4)c3c2)C1

>  <Name>  (305) 
nan

>  <Pocket>  (305) 
nan

>  <ATP_Site>  (305) 
nan

>  <Peripheral>  (305) 
nan

>  <Num_H_Atoms_ProtBoundConf>  (305) 
nan

>  <Num_Resolved_Atoms>  (305) 
nan

>  <Num_Not_Resolved_Atoms>  (305) 
nan

$$$$
CHEMBL3774400
     RDKit          3D

  0  0  0  0  0  0  0  0  0  0999 V3000
M  V30 BEGIN CTAB
M  V30 COUNTS 46 49 0 0 0
M  V30 BEGIN ATOM
M  V30 1 C -2.614675 -6.775526 0.585870 0
M  V30 2 N -2.717961 -5.510002 -0.142001 0
M  V30 3 C -2.146113 -4.354016 0.245849 0
M  V30 4 C -2.478399 -3.398373 -0.705896 0
M  V30 5 C -2.120215 -1.989342 -0.768175 0
M  V30 6 C -1.923197 -1.195862 -1.869742 0
M  V30 7 C -1.584516 0.133361 -1.730243 0
M  V30 8 C -1.422514 0.749256 -0.499704 0
M  V30 9 C -1.060009 2.184690 -0.498999 0
M  V30 10 C 0.377743 2.459543 -0.546898 0
M  V30 11 N 1.052044 2.870529 -1.661864 0
M  V30 12 N 2.321506 3.033863 -1.407510 0
M  V30 13 C 2.607494 2.753424 -0.127179 0
M  V30 14 C 3.762300 2.767106 0.626816 0
M  V30 15 C 3.645213 2.401829 1.956486 0
M  V30 16 C 2.436369 2.039687 2.511127 0
M  V30 17 N 2.303895 1.662674 3.876643 0
M  V30 18 S 3.458487 0.574091 4.548100 0
M  V30 19 C 3.413759 -0.997364 3.693836 0
M  V30 20 O 3.146703 0.259120 5.985642 0
M  V30 21 O 4.805201 1.192455 4.521066 0
M  V30 22 C 1.301495 2.037080 1.728418 0
M  V30 23 C 1.382067 2.395941 0.397847 0
M  V30 24 C -1.622179 -0.054933 0.608783 0
M  V30 25 C -1.961329 -1.386151 0.479957 0
M  V30 26 C -3.263451 -4.060253 -1.651185 0
M  V30 27 N -3.386407 -5.347504 -1.271004 0
M  V30 28 H -2.354465 -7.584004 -0.106144 0
M  V30 29 H -3.585029 -6.984111 1.114513 0
M  V30 30 H -1.852513 -6.700358 1.384762 0
M  V30 31 H -1.531372 -4.129128 1.117046 0
M  V30 32 H -2.058054 -1.710381 -2.810799 0
M  V30 33 H -1.457527 0.649432 -2.686323 0
M  V30 34 H -1.458939 2.697657 0.420641 0
M  V30 35 H -1.561924 2.652136 -1.371116 0
M  V30 36 H 3.005006 3.351453 -2.156156 0
M  V30 37 H 4.702408 3.058762 0.156809 0
M  V30 38 H 4.544539 2.411384 2.547855 0
M  V30 39 H 1.495154 2.087464 4.377068 0
M  V30 40 H 3.154543 -0.762636 2.647135 0
M  V30 41 H 4.437287 -1.413750 3.692520 0
M  V30 42 H 2.642473 -1.667570 4.072205 0
M  V30 43 H 0.375077 1.759110 2.159058 0
M  V30 44 H -1.501706 0.407808 1.560010 0
M  V30 45 H -2.092244 -1.917254 1.429591 0
M  V30 46 H -3.727733 -3.697808 -2.546811 0
M  V30 END ATOM
M  V30 BEGIN BOND
M  V30 1 1 1 2
M  V30 2 1 2 3
M  V30 3 2 3 4
M  V30 4 1 4 5
M  V30 5 2 5 6
M  V30 6 1 6 7
M  V30 7 2 7 8
M  V30 8 1 8 9
M  V30 9 1 9 10
M  V30 10 2 10 11
M  V30 11 1 11 12
M  V30 12 1 12 13
M  V30 13 2 13 14
M  V30 14 1 14 15
M  V30 15 2 15 16
M  V30 16 1 16 17
M  V30 17 1 17 18
M  V30 18 1 18 19
M  V30 19 2 18 20
M  V30 20 2 18 21
M  V30 21 1 16 22
M  V30 22 2 22 23
M  V30 23 1 8 24
M  V30 24 2 24 25
M  V30 25 1 4 26
M  V30 26 2 26 27
M  V30 27 1 27 2
M  V30 28 1 25 5
M  V30 29 1 23 10
M  V30 30 1 23 13
M  V30 31 1 1 28
M  V30 32 1 1 29
M  V30 33 1 1 30
M  V30 34 1 3 31
M  V30 35 1 6 32
M  V30 36 1 7 33
M  V30 37 1 9 34
M  V30 38 1 9 35
M  V30 39 1 12 36
M  V30 40 1 14 37
M  V30 41 1 15 38
M  V30 42 1 17 39
M  V30 43 1 19 40
M  V30 44 1 19 41
M  V30 45 1 19 42
M  V30 46 1 22 43
M  V30 47 1 24 44
M  V30 48 1 25 45
M  V30 49 1 26 46
M  V30 END BOND
M  V30 END CTAB
M  END
>  <Dataset>  (306) 
ChEMBL_Kinases

>  <Ligand_Instance>  (306) 
nan

>  <PDB_ID>  (306) 
nan

>  <Standardized_SMILES>  (306) 
Cn1cc(-c2ccc(Cc3n[nH]c4ccc(NS(C)(=O)=O)cc34)cc2)cn1

>  <Name>  (306) 
nan

>  <Pocket>  (306) 
nan

>  <ATP_Site>  (306) 
nan

>  <Peripheral>  (306) 
nan

>  <Num_H_Atoms_ProtBoundConf>  (306) 
nan

>  <Num_Resolved_Atoms>  (306) 
nan

>  <Num_Not_Resolved_Atoms>  (306) 
nan

$$$$
CHEMBL5084388
     RDKit          3D

  0  0  0  0  0  0  0  0  0  0999 V3000
M  V30 BEGIN CTAB
M  V30 COUNTS 75 80 0 0 0
M  V30 BEGIN ATOM
M  V30 1 C 4.993091 0.062259 2.106153 0
M  V30 2 C 5.039839 -1.224771 1.326282 0
M  V30 3 C 4.674055 -1.059233 -0.131174 0 CFG=2
M  V30 4 C 5.626003 -0.102429 -0.802850 0
M  V30 5 O 6.670097 -0.443756 -1.439922 0
M  V30 6 N 5.274691 1.276042 -0.678933 0
M  V30 7 C 6.275562 2.306720 -0.845213 0
M  V30 8 C 3.940649 1.695349 -0.389477 0
M  V30 9 C 3.569230 3.018491 -0.263370 0
M  V30 10 N 2.269158 3.327638 0.015153 0
M  V30 11 C 1.335544 2.357891 0.170161 0
M  V30 12 N -0.026459 2.731203 0.464371 0
M  V30 13 C -0.266651 4.172744 0.574152 0
M  V30 14 C -0.974740 1.679331 0.613975 0
M  V30 15 C -0.859762 0.691414 1.561554 0
M  V30 16 C -1.851252 -0.276881 1.603386 0
M  V30 17 C -2.915777 -0.255051 0.729328 0
M  V30 18 C -3.977989 -1.264254 0.748733 0
M  V30 19 N -4.066810 -2.313848 1.581364 0
M  V30 20 C -5.169420 -3.045082 1.328420 0
M  V30 21 C -5.777436 -4.181596 1.820487 0
M  V30 22 C -5.127070 -4.862620 2.926469 0
M  V30 23 N -5.742981 -6.050888 3.459219 0
M  V30 24 O -4.062050 -4.425583 3.399702 0
M  V30 25 C -6.952789 -4.645097 1.279015 0
M  V30 26 C -7.600443 -4.010621 0.214369 0
M  V30 27 C -6.984302 -2.878083 -0.267817 0
M  V30 28 C -5.809748 -2.423280 0.280537 0
M  V30 29 N -5.060707 -1.353877 -0.040644 0
M  V30 30 C -3.019740 0.755179 -0.228717 0
M  V30 31 C -2.038514 1.739443 -0.292592 0
M  V30 32 O -2.144689 2.740425 -1.244733 0
M  V30 33 C -3.254930 2.756833 -2.150130 0
M  V30 34 N 1.708038 1.071110 0.045256 0
M  V30 35 C 2.967440 0.722784 -0.226303 0
M  V30 36 N 3.309368 -0.672031 -0.348747 0
M  V30 37 C 2.259899 -1.576689 -0.680238 0
M  V30 38 C 2.453240 -2.341621 -1.964661 0
M  V30 39 C 1.352757 -3.404129 -1.833714 0
M  V30 40 C 1.123803 -3.584648 -0.358194 0
M  V30 41 C 2.211092 -2.740887 0.318588 0
M  V30 42 H 3.978480 0.473266 2.238866 0
M  V30 43 H 5.712409 0.812955 1.729003 0
M  V30 44 H 5.355739 -0.193335 3.129471 0
M  V30 45 H 6.085297 -1.583900 1.356014 0
M  V30 46 H 4.381335 -1.961034 1.810247 0
M  V30 47 H 4.872034 -2.036322 -0.618250 0
M  V30 48 H 6.627523 2.724695 0.126018 0
M  V30 49 H 7.208537 1.893559 -1.327157 0
M  V30 50 H 5.920514 3.081740 -1.543173 0
M  V30 51 H 4.298751 3.778716 -0.384314 0
M  V30 52 H 0.309721 4.613568 1.394839 0
M  V30 53 H -1.332204 4.376422 0.731353 0
M  V30 54 H 0.076768 4.630161 -0.392095 0
M  V30 55 H -0.019880 0.691495 2.236063 0
M  V30 56 H -1.782910 -1.055668 2.332246 0
M  V30 57 H -6.198436 -5.692472 4.332971 0
M  V30 58 H -5.680477 -6.989475 2.994651 0
M  V30 59 H -7.423536 -5.528434 1.663211 0
M  V30 60 H -8.512014 -4.404409 -0.176185 0
M  V30 61 H -7.444822 -2.348599 -1.092298 0
M  V30 62 H -5.278861 -0.683067 -0.792787 0
M  V30 63 H -3.836103 0.804322 -0.927329 0
M  V30 64 H -3.174236 3.607588 -2.836811 0
M  V30 65 H -4.224031 2.826660 -1.607802 0
M  V30 66 H -3.291648 1.812440 -2.723763 0
M  V30 67 H 1.259109 -1.149571 -0.666398 0
M  V30 68 H 3.409806 -2.867899 -1.998810 0
M  V30 69 H 2.199383 -1.765789 -2.875751 0
M  V30 70 H 1.623354 -4.358583 -2.281686 0
M  V30 71 H 0.401291 -2.971080 -2.246261 0
M  V30 72 H 1.141360 -4.631673 -0.053156 0
M  V30 73 H 0.148071 -3.161986 -0.014828 0
M  V30 74 H 3.133139 -3.345972 0.304748 0
M  V30 75 H 1.843358 -2.447336 1.300757 0
M  V30 END ATOM
M  V30 BEGIN BOND
M  V30 1 1 1 2
M  V30 2 1 2 3
M  V30 3 1 3 4
M  V30 4 2 4 5
M  V30 5 1 4 6
M  V30 6 1 6 7
M  V30 7 1 6 8
M  V30 8 2 8 9
M  V30 9 1 9 10
M  V30 10 2 10 11
M  V30 11 1 11 12
M  V30 12 1 12 13
M  V30 13 1 12 14
M  V30 14 2 14 15
M  V30 15 1 15 16
M  V30 16 2 16 17
M  V30 17 1 17 18
M  V30 18 2 18 19
M  V30 19 1 19 20
M  V30 20 2 20 21
M  V30 21 1 21 22
M  V30 22 1 22 23
M  V30 23 2 22 24
M  V30 24 1 21 25
M  V30 25 2 25 26
M  V30 26 1 26 27
M  V30 27 2 27 28
M  V30 28 1 28 29
M  V30 29 1 17 30
M  V30 30 2 30 31
M  V30 31 1 31 32
M  V30 32 1 32 33
M  V30 33 1 11 34
M  V30 34 2 34 35
M  V30 35 1 35 36
M  V30 36 1 36 37
M  V30 37 1 37 38
M  V30 38 1 38 39
M  V30 39 1 39 40
M  V30 40 1 40 41
M  V30 41 1 36 3
M  V30 42 1 41 37
M  V30 43 1 35 8
M  V30 44 1 31 14
M  V30 45 1 29 18
M  V30 46 1 28 20
M  V30 47 1 1 42
M  V30 48 1 1 43
M  V30 49 1 1 44
M  V30 50 1 2 45
M  V30 51 1 2 46
M  V30 52 1 3 47 CFG=3
M  V30 53 1 7 48
M  V30 54 1 7 49
M  V30 55 1 7 50
M  V30 56 1 9 51
M  V30 57 1 13 52
M  V30 58 1 13 53
M  V30 59 1 13 54
M  V30 60 1 15 55
M  V30 61 1 16 56
M  V30 62 1 23 57
M  V30 63 1 23 58
M  V30 64 1 25 59
M  V30 65 1 26 60
M  V30 66 1 27 61
M  V30 67 1 29 62
M  V30 68 1 30 63
M  V30 69 1 33 64
M  V30 70 1 33 65
M  V30 71 1 33 66
M  V30 72 1 37 67
M  V30 73 1 38 68
M  V30 74 1 38 69
M  V30 75 1 39 70
M  V30 76 1 39 71
M  V30 77 1 40 72
M  V30 78 1 40 73
M  V30 79 1 41 74
M  V30 80 1 41 75
M  V30 END BOND
M  V30 END CTAB
M  END
>  <Dataset>  (307) 
ChEMBL_Kinases

>  <Ligand_Instance>  (307) 
nan

>  <PDB_ID>  (307) 
nan

>  <Standardized_SMILES>  (307) 
CC[C@@H]1C(=O)N(C)c2cnc(N(C)c3ccc(-c4nc5c(C(N)=O)cccc5[nH]4)cc3OC)nc2N1C1CCCC1

>  <Name>  (307) 
nan

>  <Pocket>  (307) 
nan

>  <ATP_Site>  (307) 
nan

>  <Peripheral>  (307) 
nan

>  <Num_H_Atoms_ProtBoundConf>  (307) 
nan

>  <Num_Resolved_Atoms>  (307) 
nan

>  <Num_Not_Resolved_Atoms>  (307) 
nan

$$$$
CHEMBL3702312
     RDKit          3D

  0  0  0  0  0  0  0  0  0  0999 V3000
M  V30 BEGIN CTAB
M  V30 COUNTS 56 58 0 0 0
M  V30 BEGIN ATOM
M  V30 1 C 4.235274 -4.647605 -0.197532 0
M  V30 2 O 3.688799 -3.368551 -0.393872 0
M  V30 3 C 4.359681 -2.349670 -1.049879 0
M  V30 4 O 5.490796 -2.648505 -1.457481 0
M  V30 5 C 3.835696 -1.017516 -1.273994 0
M  V30 6 S 4.813251 0.181172 -2.131855 0
M  V30 7 C 3.573543 1.510721 -2.026501 0
M  V30 8 N 3.612330 2.778847 -2.477051 0
M  V30 9 C 2.567155 3.582643 -2.273948 0
M  V30 10 N 1.540511 3.049218 -1.622956 0
M  V30 11 C 1.485161 1.796837 -1.169949 0
M  V30 12 N 0.267020 1.492427 -0.501300 0
M  V30 13 C 0.222735 1.621221 0.922632 0
M  V30 14 C 1.389077 2.025940 1.537124 0
M  V30 15 C 1.400598 2.164600 2.923031 0
M  V30 16 C 0.275099 1.904630 3.670593 0
M  V30 17 F 0.224823 2.021561 5.023697 0
M  V30 18 C -0.851840 1.505293 2.988322 0
M  V30 19 C -0.950635 1.344047 1.632584 0
M  V30 20 O -2.015103 0.955742 0.868204 0
M  V30 21 C -3.265833 0.635367 1.404779 0
M  V30 22 C -4.344166 1.614142 0.936278 0
M  V30 23 C -3.762866 -0.715016 0.970861 0
M  V30 24 O -4.858381 -1.208472 1.330847 0
M  V30 25 N -3.011296 -1.563255 0.094231 0
M  V30 26 C -3.470707 -2.855288 -0.331764 0
M  V30 27 C -3.712642 -3.840078 0.764210 0
M  V30 28 C -2.511051 -4.160227 1.597360 0
M  V30 29 N -1.424012 -4.729496 0.833813 0
M  V30 30 C 2.536040 0.920554 -1.351450 0
M  V30 31 C 2.674614 -0.383976 -0.964856 0
M  V30 32 C 1.627988 -1.150754 -0.227652 0
M  V30 33 H 4.169717 -5.266260 -1.110699 0
M  V30 34 H 5.229966 -4.649258 0.288104 0
M  V30 35 H 3.564731 -5.158118 0.545470 0
M  V30 36 H 2.689843 4.575535 -2.669252 0
M  V30 37 H -0.573100 1.181125 -1.074441 0
M  V30 38 H 2.307744 2.246294 1.013759 0
M  V30 39 H 2.280128 2.478396 3.478148 0
M  V30 40 H -1.746683 1.296709 3.554807 0
M  V30 41 H -3.332157 0.653779 2.503626 0
M  V30 42 H -4.630154 1.450616 -0.115386 0
M  V30 43 H -5.249246 1.382000 1.570543 0
M  V30 44 H -4.049682 2.674391 1.126011 0
M  V30 45 H -2.075260 -1.171599 -0.228244 0
M  V30 46 H -4.436503 -2.768913 -0.905002 0
M  V30 47 H -2.711640 -3.282496 -1.024294 0
M  V30 48 H -4.055996 -4.795385 0.287591 0
M  V30 49 H -4.504672 -3.511329 1.468796 0
M  V30 50 H -2.832543 -4.908460 2.347068 0
M  V30 51 H -2.182995 -3.260206 2.137872 0
M  V30 52 H -1.102333 -5.613520 1.260243 0
M  V30 53 H -1.668528 -4.816297 -0.179248 0
M  V30 54 H 0.597698 -0.845232 -0.584166 0
M  V30 55 H 1.632282 -0.932698 0.859298 0
M  V30 56 H 1.661230 -2.231490 -0.474283 0
M  V30 END ATOM
M  V30 BEGIN BOND
M  V30 1 1 1 2
M  V30 2 1 2 3
M  V30 3 2 3 4
M  V30 4 1 3 5
M  V30 5 1 5 6
M  V30 6 1 6 7
M  V30 7 2 7 8
M  V30 8 1 8 9
M  V30 9 2 9 10
M  V30 10 1 10 11
M  V30 11 1 11 12
M  V30 12 1 12 13
M  V30 13 2 13 14
M  V30 14 1 14 15
M  V30 15 2 15 16
M  V30 16 1 16 17
M  V30 17 1 16 18
M  V30 18 2 18 19
M  V30 19 1 19 20
M  V30 20 1 20 21
M  V30 21 1 21 22
M  V30 22 1 21 23
M  V30 23 2 23 24
M  V30 24 1 23 25
M  V30 25 1 25 26
M  V30 26 1 26 27
M  V30 27 1 27 28
M  V30 28 1 28 29
M  V30 29 2 11 30
M  V30 30 1 30 31
M  V30 31 1 31 32
M  V30 32 2 31 5
M  V30 33 1 30 7
M  V30 34 1 19 13
M  V30 35 1 1 33
M  V30 36 1 1 34
M  V30 37 1 1 35
M  V30 38 1 9 36
M  V30 39 1 12 37
M  V30 40 1 14 38
M  V30 41 1 15 39
M  V30 42 1 18 40
M  V30 43 1 21 41
M  V30 44 1 22 42
M  V30 45 1 22 43
M  V30 46 1 22 44
M  V30 47 1 25 45
M  V30 48 1 26 46
M  V30 49 1 26 47
M  V30 50 1 27 48
M  V30 51 1 27 49
M  V30 52 1 28 50
M  V30 53 1 28 51
M  V30 54 1 29 52
M  V30 55 1 29 53
M  V30 56 1 32 54
M  V30 57 1 32 55
M  V30 58 1 32 56
M  V30 END BOND
M  V30 END CTAB
M  END
>  <Dataset>  (308) 
ChEMBL_Kinases

>  <Ligand_Instance>  (308) 
nan

>  <PDB_ID>  (308) 
nan

>  <Standardized_SMILES>  (308) 
COC(=O)c1sc2ncnc(Nc3ccc(F)cc3OC(C)C(=O)NCCCN)c2c1C

>  <Name>  (308) 
nan

>  <Pocket>  (308) 
nan

>  <ATP_Site>  (308) 
nan

>  <Peripheral>  (308) 
nan

>  <Num_H_Atoms_ProtBoundConf>  (308) 
nan

>  <Num_Resolved_Atoms>  (308) 
nan

>  <Num_Not_Resolved_Atoms>  (308) 
nan

$$$$
CHEMBL5084438
     RDKit          3D

  0  0  0  0  0  0  0  0  0  0999 V3000
M  V30 BEGIN CTAB
M  V30 COUNTS 47 48 0 0 0
M  V30 BEGIN ATOM
M  V30 1 C 1.839717 -5.127384 1.893747 0
M  V30 2 C 2.531487 -3.810489 2.309683 0
M  V30 3 C 3.842958 -4.161870 2.884620 0
M  V30 4 C 2.407046 -2.837508 1.239702 0
M  V30 5 C 2.969634 -1.476224 1.345110 0 CFG=2
M  V30 6 C 4.493861 -1.553214 1.536540 0
M  V30 7 N 2.487971 -0.690923 2.423503 0
M  V30 8 C 2.794510 -0.701227 0.046415 0
M  V30 9 O 1.556405 -0.342123 -0.329242 0
M  V30 10 C 0.516590 0.404958 0.057461 0
M  V30 11 C 0.116201 1.250253 1.063855 0
M  V30 12 C -1.105223 1.878318 1.132333 0
M  V30 13 C -1.992474 1.637701 0.108507 0
M  V30 14 C -3.284277 2.309572 0.192740 0
M  V30 15 C -3.722672 3.160923 1.181532 0
M  V30 16 C -4.974997 3.729609 1.135961 0
M  V30 17 N -5.803962 3.464632 0.117774 0
M  V30 18 C -5.450988 2.646601 -0.882542 0
M  V30 19 C -6.334614 2.308334 -2.053638 0
M  V30 20 F -6.569415 0.946018 -1.988558 0
M  V30 21 F -5.669395 2.682103 -3.180312 0
M  V30 22 C -4.195534 2.076322 -0.837122 0
M  V30 23 N -1.680534 0.814146 -0.930654 0
M  V30 24 C -0.447749 0.207453 -0.957303 0
M  V30 25 Cl -0.357667 -0.787459 -2.424028 0
M  V30 26 H 1.081849 -4.899791 1.133353 0
M  V30 27 H 1.456953 -5.658673 2.785061 0
M  V30 28 H 2.610677 -5.820646 1.464467 0
M  V30 29 H 1.890920 -3.482969 3.188197 0
M  V30 30 H 4.036017 -3.626137 3.865830 0
M  V30 31 H 3.781461 -5.234889 3.255591 0
M  V30 32 H 4.707865 -4.181854 2.218286 0
M  V30 33 H 2.835810 -3.288999 0.294633 0
M  V30 34 H 1.325642 -2.711265 0.963447 0
M  V30 35 H 4.919391 -0.562614 1.234303 0
M  V30 36 H 4.854121 -2.283628 0.791598 0
M  V30 37 H 4.796080 -1.810320 2.543924 0
M  V30 38 H 2.275816 -1.262340 3.259274 0
M  V30 39 H 3.209595 0.030286 2.703404 0
M  V30 40 H 3.431659 0.245394 0.089073 0
M  V30 41 H 3.282303 -1.254560 -0.802680 0
M  V30 42 H 0.887698 1.365553 1.784726 0
M  V30 43 H -1.221095 2.493905 1.995423 0
M  V30 44 H -3.041106 3.353431 1.979623 0
M  V30 45 H -5.295033 4.395547 1.926249 0
M  V30 46 H -7.301530 2.815659 -1.984836 0
M  V30 47 H -3.901887 1.406118 -1.653434 0
M  V30 END ATOM
M  V30 BEGIN BOND
M  V30 1 1 1 2
M  V30 2 1 2 3
M  V30 3 1 2 4
M  V30 4 1 4 5
M  V30 5 1 5 6
M  V30 6 1 5 7 CFG=1
M  V30 7 1 5 8
M  V30 8 1 8 9
M  V30 9 1 9 10
M  V30 10 2 10 11
M  V30 11 1 11 12
M  V30 12 2 12 13
M  V30 13 1 13 14
M  V30 14 2 14 15
M  V30 15 1 15 16
M  V30 16 2 16 17
M  V30 17 1 17 18
M  V30 18 1 18 19
M  V30 19 1 19 20
M  V30 20 1 19 21
M  V30 21 2 18 22
M  V30 22 1 13 23
M  V30 23 2 23 24
M  V30 24 1 24 25
M  V30 25 1 24 10
M  V30 26 1 22 14
M  V30 27 1 1 26
M  V30 28 1 1 27
M  V30 29 1 1 28
M  V30 30 1 2 29
M  V30 31 1 3 30
M  V30 32 1 3 31
M  V30 33 1 3 32
M  V30 34 1 4 33
M  V30 35 1 4 34
M  V30 36 1 6 35
M  V30 37 1 6 36
M  V30 38 1 6 37
M  V30 39 1 7 38
M  V30 40 1 7 39
M  V30 41 1 8 40
M  V30 42 1 8 41
M  V30 43 1 11 42
M  V30 44 1 12 43
M  V30 45 1 15 44
M  V30 46 1 16 45
M  V30 47 1 19 46
M  V30 48 1 22 47
M  V30 END BOND
M  V30 END CTAB
M  END
>  <Dataset>  (309) 
ChEMBL_Kinases

>  <Ligand_Instance>  (309) 
nan

>  <PDB_ID>  (309) 
nan

>  <Standardized_SMILES>  (309) 
CC(C)C[C@](C)(N)COc1ccc(-c2ccnc(C(F)F)c2)nc1Cl

>  <Name>  (309) 
nan

>  <Pocket>  (309) 
nan

>  <ATP_Site>  (309) 
nan

>  <Peripheral>  (309) 
nan

>  <Num_H_Atoms_ProtBoundConf>  (309) 
nan

>  <Num_Resolved_Atoms>  (309) 
nan

>  <Num_Not_Resolved_Atoms>  (309) 
nan

$$$$
CHEMBL5084461
     RDKit          3D

  0  0  0  0  0  0  0  0  0  0999 V3000
M  V30 BEGIN CTAB
M  V30 COUNTS 49 52 0 0 0
M  V30 BEGIN ATOM
M  V30 1 C 7.005921 -3.748671 2.253557 0
M  V30 2 C 6.096638 -3.072130 1.801759 0
M  V30 3 C 5.024645 -2.284393 1.263792 0
M  V30 4 C 3.842433 -2.110829 1.991868 0
M  V30 5 C 2.831960 -1.349158 1.448681 0
M  V30 6 C 3.006822 -0.780996 0.213076 0
M  V30 7 C 4.170750 -0.953688 -0.502065 0
M  V30 8 C 5.200121 -1.711549 0.017375 0
M  V30 9 N 4.069233 -0.300025 -1.673557 0
M  V30 10 C 2.868544 0.297966 -1.745797 0
M  V30 11 N 2.209971 1.058704 -2.638696 0
M  V30 12 C 0.968487 1.527020 -2.438290 0
M  V30 13 N 0.357407 1.212492 -1.274592 0
M  V30 14 C 0.937042 0.462562 -0.330779 0
M  V30 15 N 0.121766 0.304312 0.818092 0
M  V30 16 C 0.362816 0.980584 2.106002 0
M  V30 17 C -1.071540 -0.508784 0.999873 0
M  V30 18 C -1.360491 -1.225833 -0.266302 0
M  V30 19 C -2.782534 -1.726654 -0.375340 0
M  V30 20 C -3.647006 -0.494981 -0.069255 0
M  V30 21 N -3.457026 -0.259256 1.323194 0
M  V30 22 C -4.534571 0.332345 2.031045 0
M  V30 23 C -5.676971 -0.655215 2.104893 0
M  V30 24 C -5.162988 -1.835599 2.809479 0
M  V30 25 N -4.751495 -2.772931 3.366139 0
M  V30 26 C -2.172095 0.372090 1.498413 0
M  V30 27 C 2.206265 0.002434 -0.575738 0
M  V30 28 H 7.796395 -4.352335 2.664875 0
M  V30 29 H 3.819738 -2.607505 2.957163 0
M  V30 30 H 1.985507 -1.292799 2.075433 0
M  V30 31 H 6.109559 -1.849219 -0.536995 0
M  V30 32 H 4.807661 -0.252187 -2.431693 0
M  V30 33 H 0.524677 2.135785 -3.228931 0
M  V30 34 H -0.451922 1.718443 2.297015 0
M  V30 35 H 0.389950 0.268210 2.946715 0
M  V30 36 H 1.299256 1.580783 2.075679 0
M  V30 37 H -0.833486 -1.259137 1.794910 0
M  V30 38 H -1.190239 -0.587996 -1.145505 0
M  V30 39 H -0.695281 -2.112319 -0.347028 0
M  V30 40 H -3.023998 -2.020742 -1.393370 0
M  V30 41 H -2.982224 -2.509691 0.379956 0
M  V30 42 H -3.161867 0.346794 -0.643540 0
M  V30 43 H -4.661087 -0.578594 -0.436146 0
M  V30 44 H -4.218475 0.515004 3.071472 0
M  V30 45 H -4.883398 1.296063 1.604807 0
M  V30 46 H -6.559986 -0.230500 2.627208 0
M  V30 47 H -5.942545 -0.962398 1.079963 0
M  V30 48 H -2.050610 0.487268 2.609155 0
M  V30 49 H -2.148831 1.399805 1.067629 0
M  V30 END ATOM
M  V30 BEGIN BOND
M  V30 1 3 1 2
M  V30 2 1 2 3
M  V30 3 2 3 4
M  V30 4 1 4 5
M  V30 5 2 5 6
M  V30 6 1 6 7
M  V30 7 2 7 8
M  V30 8 1 7 9
M  V30 9 1 9 10
M  V30 10 2 10 11
M  V30 11 1 11 12
M  V30 12 2 12 13
M  V30 13 1 13 14
M  V30 14 1 14 15
M  V30 15 1 15 16
M  V30 16 1 15 17
M  V30 17 1 17 18
M  V30 18 1 18 19
M  V30 19 1 19 20
M  V30 20 1 20 21
M  V30 21 1 21 22
M  V30 22 1 22 23
M  V30 23 1 23 24
M  V30 24 3 24 25
M  V30 25 1 21 26
M  V30 26 2 14 27
M  V30 27 1 8 3
M  V30 28 1 27 10
M  V30 29 1 27 6
M  V30 30 1 26 17
M  V30 31 1 1 28
M  V30 32 1 4 29
M  V30 33 1 5 30
M  V30 34 1 8 31
M  V30 35 1 9 32
M  V30 36 1 12 33
M  V30 37 1 16 34
M  V30 38 1 16 35
M  V30 39 1 16 36
M  V30 40 1 17 37
M  V30 41 1 18 38
M  V30 42 1 18 39
M  V30 43 1 19 40
M  V30 44 1 19 41
M  V30 45 1 20 42
M  V30 46 1 20 43
M  V30 47 1 22 44
M  V30 48 1 22 45
M  V30 49 1 23 46
M  V30 50 1 23 47
M  V30 51 1 26 48
M  V30 52 1 26 49
M  V30 END BOND
M  V30 END CTAB
M  END
>  <Dataset>  (310) 
ChEMBL_Kinases

>  <Ligand_Instance>  (310) 
nan

>  <PDB_ID>  (310) 
nan

>  <Standardized_SMILES>  (310) 
C#Cc1ccc2c(c1)[nH]c1ncnc(N(C)C3CCCN(CCC#N)C3)c12

>  <Name>  (310) 
nan

>  <Pocket>  (310) 
nan

>  <ATP_Site>  (310) 
nan

>  <Peripheral>  (310) 
nan

>  <Num_H_Atoms_ProtBoundConf>  (310) 
nan

>  <Num_Resolved_Atoms>  (310) 
nan

>  <Num_Not_Resolved_Atoms>  (310) 
nan

$$$$
CHEMBL377345
     RDKit          3D

  0  0  0  0  0  0  0  0  0  0999 V3000
M  V30 BEGIN CTAB
M  V30 COUNTS 32 35 0 0 0
M  V30 BEGIN ATOM
M  V30 1 O 1.057250 -0.420184 3.232706 0
M  V30 2 C 1.369542 -0.940672 2.122696 0
M  V30 3 N 2.515452 -1.644325 2.060918 0
M  V30 4 C 2.947671 -2.241227 0.935205 0
M  V30 5 C 4.117762 -2.960869 0.868358 0
M  V30 6 C 4.552765 -3.571847 -0.298603 0
M  V30 7 C 3.760077 -3.439281 -1.433742 0
M  V30 8 C 2.574152 -2.713212 -1.377000 0
M  V30 9 C 2.157619 -2.112380 -0.207067 0
M  V30 10 C 0.988019 -1.386944 -0.119939 0
M  V30 11 O 0.268246 -1.306208 -1.282447 0
M  V30 12 C 0.534241 -0.770391 1.028256 0
M  V30 13 C -0.706639 -0.008815 1.093823 0
M  V30 14 N -1.130577 0.584575 2.224372 0
M  V30 15 C -2.295986 1.216838 2.009925 0
M  V30 16 C -3.111096 1.954097 2.841176 0
M  V30 17 C -4.287467 2.505874 2.337252 0
M  V30 18 C -4.609361 2.299787 1.011825 0
M  V30 19 C -3.793231 1.556086 0.161172 0
M  V30 20 C -2.634089 1.021215 0.687069 0
M  V30 21 N -1.638881 0.273024 0.177552 0
M  V30 22 H 3.096038 -1.732618 2.921563 0
M  V30 23 H 4.743288 -3.068204 1.755097 0
M  V30 24 H 5.486522 -4.137564 -0.323429 0
M  V30 25 H 4.097401 -3.916561 -2.350268 0
M  V30 26 H 1.954905 -2.614580 -2.280139 0
M  V30 27 H 0.636308 -1.038403 -2.171850 0
M  V30 28 H -2.833162 2.094909 3.862113 0
M  V30 29 H -4.941537 3.087047 2.969619 0
M  V30 30 H -5.534030 2.737046 0.627526 0
M  V30 31 H -4.030954 1.386025 -0.877087 0
M  V30 32 H -1.612361 -0.036536 -0.799280 0
M  V30 END ATOM
M  V30 BEGIN BOND
M  V30 1 2 1 2
M  V30 2 1 2 3
M  V30 3 1 3 4
M  V30 4 2 4 5
M  V30 5 1 5 6
M  V30 6 2 6 7
M  V30 7 1 7 8
M  V30 8 2 8 9
M  V30 9 1 9 10
M  V30 10 1 10 11
M  V30 11 2 10 12
M  V30 12 1 12 13
M  V30 13 2 13 14
M  V30 14 1 14 15
M  V30 15 2 15 16
M  V30 16 1 16 17
M  V30 17 2 17 18
M  V30 18 1 18 19
M  V30 19 2 19 20
M  V30 20 1 20 21
M  V30 21 1 12 2
M  V30 22 1 21 13
M  V30 23 1 9 4
M  V30 24 1 20 15
M  V30 25 1 3 22
M  V30 26 1 5 23
M  V30 27 1 6 24
M  V30 28 1 7 25
M  V30 29 1 8 26
M  V30 30 1 11 27
M  V30 31 1 16 28
M  V30 32 1 17 29
M  V30 33 1 18 30
M  V30 34 1 19 31
M  V30 35 1 21 32
M  V30 END BOND
M  V30 END CTAB
M  END
>  <Dataset>  (311) 
ChEMBL_Kinases

>  <Ligand_Instance>  (311) 
nan

>  <PDB_ID>  (311) 
nan

>  <Standardized_SMILES>  (311) 
O=c1[nH]c2ccccc2c(O)c1-c1nc2ccccc2[nH]1

>  <Name>  (311) 
nan

>  <Pocket>  (311) 
nan

>  <ATP_Site>  (311) 
nan

>  <Peripheral>  (311) 
nan

>  <Num_H_Atoms_ProtBoundConf>  (311) 
nan

>  <Num_Resolved_Atoms>  (311) 
nan

>  <Num_Not_Resolved_Atoms>  (311) 
nan

$$$$
CHEMBL3770806
     RDKit          3D

  0  0  0  0  0  0  0  0  0  0999 V3000
M  V30 BEGIN CTAB
M  V30 COUNTS 55 58 0 0 0
M  V30 BEGIN ATOM
M  V30 1 C 3.067280 -6.793621 3.060048 0
M  V30 2 C 3.158691 -6.864631 1.565053 0
M  V30 3 N 3.833816 -5.705313 1.000144 0
M  V30 4 C 3.347341 -4.383535 1.167182 0
M  V30 5 N 3.667876 -3.550529 2.184229 0
M  V30 6 C 3.145219 -2.297844 2.252227 0
M  V30 7 C 2.282483 -1.928919 1.240901 0
M  V30 8 C 1.738626 -0.658973 1.287997 0
M  V30 9 C 0.867862 -0.221487 0.307527 0
M  V30 10 C 0.214177 1.077315 0.198784 0
M  V30 11 C -1.040674 1.075216 0.823858 0
M  V30 12 C -1.804928 2.249256 0.812726 0
M  V30 13 C -1.344632 3.393853 0.201525 0
M  V30 14 C -2.189787 4.580578 0.227717 0
M  V30 15 C -1.880465 5.792737 -0.346593 0
M  V30 16 N -2.742221 6.826538 -0.269999 0
M  V30 17 C -3.915287 6.711899 0.359777 0
M  V30 18 C -4.255402 5.513974 0.944730 0
M  V30 19 C -5.564187 5.397930 1.642194 0
M  V30 20 N -3.378579 4.507074 0.851510 0
M  V30 21 C -0.109504 3.378431 -0.407972 0
M  V30 22 C 0.651342 2.230792 -0.403733 0
M  V30 23 Cl 2.229442 2.098811 -1.144761 0
M  V30 24 C 0.534577 -1.087114 -0.751384 0
M  V30 25 O -0.267021 -0.718018 -1.683838 0
M  V30 26 N 1.094971 -2.335854 -0.757949 0
M  V30 27 C 0.761844 -3.272342 -1.801116 0
M  V30 28 C -0.324654 -4.193917 -1.394826 0
M  V30 29 C -1.611743 -3.577707 -0.992197 0
M  V30 30 O -1.484780 -2.771327 0.122949 0
M  V30 31 C 1.939158 -2.757721 0.193551 0
M  V30 32 N 2.489590 -3.994948 0.176376 0
M  V30 33 H 2.161675 -7.330059 3.443901 0
M  V30 34 H 3.014559 -5.759777 3.465702 0
M  V30 35 H 3.942683 -7.340318 3.505068 0
M  V30 36 H 2.162059 -7.047203 1.132505 0
M  V30 37 H 3.760007 -7.753165 1.298309 0
M  V30 38 H 4.714749 -5.607533 0.420985 0
M  V30 39 H 3.410261 -1.643263 3.070756 0
M  V30 40 H 1.941874 0.066105 2.063581 0
M  V30 41 H -1.490748 0.210361 1.335539 0
M  V30 42 H -2.788208 2.231607 1.307606 0
M  V30 43 H -0.932645 5.879847 -0.853352 0
M  V30 44 H -4.544812 7.598329 0.369256 0
M  V30 45 H -6.307086 6.097190 1.227079 0
M  V30 46 H -5.480367 5.487530 2.741348 0
M  V30 47 H -5.941737 4.364209 1.417619 0
M  V30 48 H 0.281094 4.248458 -0.891362 0
M  V30 49 H 0.559455 -2.750878 -2.767497 0
M  V30 50 H 1.673700 -3.898242 -2.005787 0
M  V30 51 H 0.040309 -4.871773 -0.559803 0
M  V30 52 H -0.542264 -4.942825 -2.219369 0
M  V30 53 H -2.068566 -2.987562 -1.842694 0
M  V30 54 H -2.378733 -4.352802 -0.766340 0
M  V30 55 H -2.352612 -2.559776 0.547566 0
M  V30 END ATOM
M  V30 BEGIN BOND
M  V30 1 1 1 2
M  V30 2 1 2 3
M  V30 3 1 3 4
M  V30 4 2 4 5
M  V30 5 1 5 6
M  V30 6 2 6 7
M  V30 7 1 7 8
M  V30 8 2 8 9
M  V30 9 1 9 10
M  V30 10 2 10 11
M  V30 11 1 11 12
M  V30 12 2 12 13
M  V30 13 1 13 14
M  V30 14 2 14 15
M  V30 15 1 15 16
M  V30 16 2 16 17
M  V30 17 1 17 18
M  V30 18 1 18 19
M  V30 19 2 18 20
M  V30 20 1 13 21
M  V30 21 2 21 22
M  V30 22 1 22 23
M  V30 23 1 9 24
M  V30 24 2 24 25
M  V30 25 1 24 26
M  V30 26 1 26 27
M  V30 27 1 27 28
M  V30 28 1 28 29
M  V30 29 1 29 30
M  V30 30 1 26 31
M  V30 31 2 31 32
M  V30 32 1 32 4
M  V30 33 1 31 7
M  V30 34 1 22 10
M  V30 35 1 20 14
M  V30 36 1 1 33
M  V30 37 1 1 34
M  V30 38 1 1 35
M  V30 39 1 2 36
M  V30 40 1 2 37
M  V30 41 1 3 38
M  V30 42 1 6 39
M  V30 43 1 8 40
M  V30 44 1 11 41
M  V30 45 1 12 42
M  V30 46 1 15 43
M  V30 47 1 17 44
M  V30 48 1 19 45
M  V30 49 1 19 46
M  V30 50 1 19 47
M  V30 51 1 21 48
M  V30 52 1 27 49
M  V30 53 1 27 50
M  V30 54 1 28 51
M  V30 55 1 28 52
M  V30 56 1 29 53
M  V30 57 1 29 54
M  V30 58 1 30 55
M  V30 END BOND
M  V30 END CTAB
M  END
>  <Dataset>  (312) 
ChEMBL_Kinases

>  <Ligand_Instance>  (312) 
nan

>  <PDB_ID>  (312) 
nan

>  <Standardized_SMILES>  (312) 
CCNc1ncc2cc(-c3ccc(-c4cncc(C)n4)cc3Cl)c(=O)n(CCCO)c2n1

>  <Name>  (312) 
nan

>  <Pocket>  (312) 
nan

>  <ATP_Site>  (312) 
nan

>  <Peripheral>  (312) 
nan

>  <Num_H_Atoms_ProtBoundConf>  (312) 
nan

>  <Num_Resolved_Atoms>  (312) 
nan

>  <Num_Not_Resolved_Atoms>  (312) 
nan

$$$$
CHEMBL377312
     RDKit          3D

  0  0  0  0  0  0  0  0  0  0999 V3000
M  V30 BEGIN CTAB
M  V30 COUNTS 52 57 0 0 0
M  V30 BEGIN ATOM
M  V30 1 O 2.803577 -3.735107 -0.959010 0
M  V30 2 C 2.585179 -2.521037 -0.732796 0
M  V30 3 N 3.674698 -1.788384 -0.878187 0
M  V30 4 C 3.800648 -0.468578 -0.716151 0
M  V30 5 C 4.971394 0.233432 -0.885007 0
M  V30 6 C 5.050433 1.576991 -0.708460 0
M  V30 7 C 3.894030 2.229587 -0.346489 0
M  V30 8 Cl 3.984064 3.961650 -0.116223 0
M  V30 9 C 2.725116 1.519688 -0.179202 0
M  V30 10 C 2.632858 0.148466 -0.356737 0
M  V30 11 C 1.415228 -0.527766 -0.173119 0
M  V30 12 N 0.236630 0.167374 0.199308 0
M  V30 13 C -1.062971 0.520064 0.564301 0 CFG=2
M  V30 14 C -1.327053 2.040395 0.538026 0
M  V30 15 N -1.433584 2.634381 1.823269 0
M  V30 16 C -0.375173 2.256838 2.727197 0
M  V30 17 C -0.422502 0.777659 2.982368 0
M  V30 18 C -1.423615 0.147371 2.004052 0
M  V30 19 C -2.785484 0.752386 2.284154 0
M  V30 20 C -2.741686 2.272001 2.353697 0
M  V30 21 C 1.415685 -1.891679 -0.371738 0
M  V30 22 C 0.234491 -2.730958 -0.250134 0
M  V30 23 N -1.029911 -2.456121 0.046887 0
M  V30 24 C -1.852570 -3.494143 0.068901 0
M  V30 25 C -3.222118 -3.531100 0.343515 0
M  V30 26 C -3.786791 -4.808371 0.279141 0
M  V30 27 C -3.039436 -5.930878 -0.031515 0
M  V30 28 C -1.686881 -5.781622 -0.286853 0
M  V30 29 C -1.045807 -4.560361 -0.245971 0
M  V30 30 N 0.177277 -4.052895 -0.424447 0
M  V30 31 H 4.599399 -2.234535 -1.156153 0
M  V30 32 H 5.838055 -0.339997 -1.168494 0
M  V30 33 H 6.011328 2.034435 -0.864265 0
M  V30 34 H 1.917101 2.129585 0.096431 0
M  V30 35 H 0.464829 1.154489 0.277141 0
M  V30 36 H -1.859734 0.036369 -0.070377 0
M  V30 37 H -0.544642 2.543423 -0.079578 0
M  V30 38 H -2.284008 2.215277 0.008905 0
M  V30 39 H -0.480097 2.847973 3.662269 0
M  V30 40 H 0.586556 2.508981 2.242625 0
M  V30 41 H 0.538328 0.252845 2.825289 0
M  V30 42 H -0.834269 0.604828 3.986961 0
M  V30 43 H -1.525616 -0.911445 2.195701 0
M  V30 44 H -3.180945 0.330031 3.246734 0
M  V30 45 H -3.476854 0.419485 1.472416 0
M  V30 46 H -2.959406 2.681835 3.338233 0
M  V30 47 H -3.489788 2.679405 1.620494 0
M  V30 48 H -3.768748 -2.650703 0.579090 0
M  V30 49 H -4.860824 -4.852700 0.492339 0
M  V30 50 H -3.525201 -6.888087 -0.066972 0
M  V30 51 H -1.062248 -6.653974 -0.537230 0
M  V30 52 H 0.895398 -4.763348 -0.670648 0
M  V30 END ATOM
M  V30 BEGIN BOND
M  V30 1 2 1 2
M  V30 2 1 2 3
M  V30 3 1 3 4
M  V30 4 2 4 5
M  V30 5 1 5 6
M  V30 6 2 6 7
M  V30 7 1 7 8
M  V30 8 1 7 9
M  V30 9 2 9 10
M  V30 10 1 10 11
M  V30 11 1 11 12
M  V30 12 1 12 13
M  V30 13 1 13 14
M  V30 14 1 14 15
M  V30 15 1 15 16
M  V30 16 1 16 17
M  V30 17 1 17 18
M  V30 18 1 18 19
M  V30 19 1 19 20
M  V30 20 2 11 21
M  V30 21 1 21 22
M  V30 22 2 22 23
M  V30 23 1 23 24
M  V30 24 2 24 25
M  V30 25 1 25 26
M  V30 26 2 26 27
M  V30 27 1 27 28
M  V30 28 2 28 29
M  V30 29 1 29 30
M  V30 30 1 21 2
M  V30 31 1 30 22
M  V30 32 1 10 4
M  V30 33 1 18 13
M  V30 34 1 29 24
M  V30 35 1 20 15
M  V30 36 1 3 31
M  V30 37 1 5 32
M  V30 38 1 6 33
M  V30 39 1 9 34
M  V30 40 1 12 35
M  V30 41 1 13 36 CFG=3
M  V30 42 1 14 37
M  V30 43 1 14 38
M  V30 44 1 16 39
M  V30 45 1 16 40
M  V30 46 1 17 41
M  V30 47 1 17 42
M  V30 48 1 18 43
M  V30 49 1 19 44
M  V30 50 1 19 45
M  V30 51 1 20 46
M  V30 52 1 20 47
M  V30 53 1 25 48
M  V30 54 1 26 49
M  V30 55 1 27 50
M  V30 56 1 28 51
M  V30 57 1 30 52
M  V30 END BOND
M  V30 END CTAB
M  END
>  <Dataset>  (313) 
ChEMBL_Kinases

>  <Ligand_Instance>  (313) 
nan

>  <PDB_ID>  (313) 
nan

>  <Standardized_SMILES>  (313) 
O=c1[nH]c2ccc(Cl)cc2c(N[C@@H]2CN3CCC2CC3)c1-c1nc2ccccc2[nH]1

>  <Name>  (313) 
nan

>  <Pocket>  (313) 
nan

>  <ATP_Site>  (313) 
nan

>  <Peripheral>  (313) 
nan

>  <Num_H_Atoms_ProtBoundConf>  (313) 
nan

>  <Num_Resolved_Atoms>  (313) 
nan

>  <Num_Not_Resolved_Atoms>  (313) 
nan

$$$$
CHEMBL377304
     RDKit          3D

  0  0  0  0  0  0  0  0  0  0999 V3000
M  V30 BEGIN CTAB
M  V30 COUNTS 72 74 0 0 0
M  V30 BEGIN ATOM
M  V30 1 C 2.465703 -5.212617 0.983795 0
M  V30 2 N 2.944065 -4.313584 1.984651 0
M  V30 3 C 2.175982 -4.408893 3.216940 0
M  V30 4 C 4.353007 -4.347743 2.221326 0
M  V30 5 C 5.135558 -3.818226 1.059359 0
M  V30 6 O 4.825593 -2.503087 0.744999 0
M  V30 7 C 5.653227 -2.089235 -0.296037 0
M  V30 8 C 5.352830 -0.667211 -0.714200 0
M  V30 9 N 4.026537 -0.500157 -1.182540 0
M  V30 10 C 3.792590 -1.143650 -2.430752 0
M  V30 11 C 3.549180 0.831558 -1.176847 0
M  V30 12 C 3.313706 1.385483 0.209180 0
M  V30 13 O 2.383952 0.680002 0.956378 0
M  V30 14 C 1.071299 0.450213 0.767752 0
M  V30 15 C 0.155872 0.830382 -0.208703 0
M  V30 16 C -1.178623 0.488883 -0.230118 0
M  V30 17 N -1.886421 1.032022 -1.357599 0
M  V30 18 C -2.640531 0.423776 -2.436184 0
M  V30 19 C -3.559202 1.473245 -2.957547 0
M  V30 20 C -3.149263 2.788851 -2.357583 0
M  V30 21 C -1.911403 2.486012 -1.558099 0
M  V30 22 C -1.655052 -0.299708 0.804716 0
M  V30 23 N -3.040034 -0.600047 0.679019 0
M  V30 24 C -4.200916 0.078034 1.163960 0
M  V30 25 O -4.223800 1.138336 1.837637 0
M  V30 26 N -5.422519 -0.572064 0.808272 0
M  V30 27 C -6.636700 0.054877 1.258789 0
M  V30 28 C -7.161696 -0.278564 2.489355 0
M  V30 29 N -8.309860 0.308833 2.920973 0
M  V30 30 C -8.945320 1.228847 2.138975 0
M  V30 31 C -10.166447 1.891897 2.532058 0
M  V30 32 N -11.148412 2.414402 2.845211 0
M  V30 33 C -8.413943 1.564857 0.895870 0
M  V30 34 N -7.258977 0.975985 0.458469 0
M  V30 35 C -0.802837 -0.710722 1.803681 0
M  V30 36 C 0.525422 -0.346329 1.787103 0
M  V30 37 Cl 1.439326 -0.973360 3.149002 0
M  V30 38 H 2.876287 -4.898399 -0.012013 0
M  V30 39 H 2.684495 -6.271005 1.174258 0
M  V30 40 H 1.357359 -5.094425 0.918718 0
M  V30 41 H 2.619870 -3.656729 3.918881 0
M  V30 42 H 1.114734 -4.195480 3.110171 0
M  V30 43 H 2.351958 -5.397387 3.714420 0
M  V30 44 H 4.643103 -3.888187 3.189373 0
M  V30 45 H 4.640107 -5.436925 2.311240 0
M  V30 46 H 6.220758 -3.976394 1.249535 0
M  V30 47 H 4.907678 -4.499191 0.189519 0
M  V30 48 H 5.556619 -2.822817 -1.117315 0
M  V30 49 H 6.696716 -2.163153 0.062452 0
M  V30 50 H 5.626039 -0.024740 0.131012 0
M  V30 51 H 6.059461 -0.416052 -1.546563 0
M  V30 52 H 3.634585 -0.349756 -3.203962 0
M  V30 53 H 2.901632 -1.793115 -2.467375 0
M  V30 54 H 4.668911 -1.759145 -2.778202 0
M  V30 55 H 2.689010 0.970101 -1.815328 0
M  V30 56 H 4.363970 1.481599 -1.634389 0
M  V30 57 H 2.859861 2.405675 0.029914 0
M  V30 58 H 4.245495 1.604326 0.756590 0
M  V30 59 H 0.598814 1.442186 -0.957893 0
M  V30 60 H -2.004949 0.039046 -3.260032 0
M  V30 61 H -3.269983 -0.367235 -1.983627 0
M  V30 62 H -4.620769 1.299619 -2.660166 0
M  V30 63 H -3.588640 1.510426 -4.074571 0
M  V30 64 H -3.012105 3.524546 -3.158541 0
M  V30 65 H -3.906858 3.212163 -1.647908 0
M  V30 66 H -1.008201 2.816072 -2.122297 0
M  V30 67 H -1.930277 2.987483 -0.574623 0
M  V30 68 H -3.078595 -1.481349 0.123373 0
M  V30 69 H -5.620159 -1.440269 0.266476 0
M  V30 70 H -6.709865 -0.991171 3.148294 0
M  V30 71 H -8.866705 2.286481 0.224053 0
M  V30 72 H -1.269981 -1.316229 2.555897 0
M  V30 END ATOM
M  V30 BEGIN BOND
M  V30 1 1 1 2
M  V30 2 1 2 3
M  V30 3 1 2 4
M  V30 4 1 4 5
M  V30 5 1 5 6
M  V30 6 1 6 7
M  V30 7 1 7 8
M  V30 8 1 8 9
M  V30 9 1 9 10
M  V30 10 1 9 11
M  V30 11 1 11 12
M  V30 12 1 12 13
M  V30 13 1 13 14
M  V30 14 2 14 15
M  V30 15 1 15 16
M  V30 16 1 16 17
M  V30 17 1 17 18
M  V30 18 1 18 19
M  V30 19 1 19 20
M  V30 20 1 20 21
M  V30 21 2 16 22
M  V30 22 1 22 23
M  V30 23 1 23 24
M  V30 24 2 24 25
M  V30 25 1 24 26
M  V30 26 1 26 27
M  V30 27 2 27 28
M  V30 28 1 28 29
M  V30 29 2 29 30
M  V30 30 1 30 31
M  V30 31 3 31 32
M  V30 32 1 30 33
M  V30 33 2 33 34
M  V30 34 1 22 35
M  V30 35 2 35 36
M  V30 36 1 36 37
M  V30 37 1 36 14
M  V30 38 1 21 17
M  V30 39 1 34 27
M  V30 40 1 1 38
M  V30 41 1 1 39
M  V30 42 1 1 40
M  V30 43 1 3 41
M  V30 44 1 3 42
M  V30 45 1 3 43
M  V30 46 1 4 44
M  V30 47 1 4 45
M  V30 48 1 5 46
M  V30 49 1 5 47
M  V30 50 1 7 48
M  V30 51 1 7 49
M  V30 52 1 8 50
M  V30 53 1 8 51
M  V30 54 1 10 52
M  V30 55 1 10 53
M  V30 56 1 10 54
M  V30 57 1 11 55
M  V30 58 1 11 56
M  V30 59 1 12 57
M  V30 60 1 12 58
M  V30 61 1 15 59
M  V30 62 1 18 60
M  V30 63 1 18 61
M  V30 64 1 19 62
M  V30 65 1 19 63
M  V30 66 1 20 64
M  V30 67 1 20 65
M  V30 68 1 21 66
M  V30 69 1 21 67
M  V30 70 1 23 68
M  V30 71 1 26 69
M  V30 72 1 28 70
M  V30 73 1 33 71
M  V30 74 1 35 72
M  V30 END BOND
M  V30 END CTAB
M  END
>  <Dataset>  (314) 
ChEMBL_Kinases

>  <Ligand_Instance>  (314) 
nan

>  <PDB_ID>  (314) 
nan

>  <Standardized_SMILES>  (314) 
CN(C)CCOCCN(C)CCOc1cc(N2CCCC2)c(NC(=O)Nc2cnc(C#N)cn2)cc1Cl

>  <Name>  (314) 
nan

>  <Pocket>  (314) 
nan

>  <ATP_Site>  (314) 
nan

>  <Peripheral>  (314) 
nan

>  <Num_H_Atoms_ProtBoundConf>  (314) 
nan

>  <Num_Resolved_Atoms>  (314) 
nan

>  <Num_Not_Resolved_Atoms>  (314) 
nan

$$$$
CHEMBL377300
     RDKit          3D

  0  0  0  0  0  0  0  0  0  0999 V3000
M  V30 BEGIN CTAB
M  V30 COUNTS 46 49 0 0 0
M  V30 BEGIN ATOM
M  V30 1 C 4.317354 -7.620396 -0.203180 0
M  V30 2 C 3.587559 -6.331747 -0.014527 0
M  V30 3 C 3.607736 -5.222601 -0.822114 0
M  V30 4 C 2.772772 -4.250870 -0.243733 0
M  V30 5 C 2.374252 -2.937528 -0.555888 0
M  V30 6 F 2.964822 -2.538003 -1.724634 0
M  V30 7 C 1.484308 -2.197425 0.274305 0
M  V30 8 O 1.345079 -1.065614 -0.299972 0
M  V30 9 C 1.099728 0.103384 -0.730449 0
M  V30 10 N 1.777798 0.276575 -1.906118 0
M  V30 11 C 1.676415 1.456467 -2.570806 0
M  V30 12 N 0.922797 2.453655 -2.092602 0
M  V30 13 N 0.243611 2.350143 -0.963648 0
M  V30 14 C -0.570067 3.180499 -0.286527 0
M  V30 15 C -1.014574 2.526760 0.855906 0
M  V30 16 O -1.798165 2.996270 1.730839 0
M  V30 17 C -2.605703 3.481003 2.631912 0
M  V30 18 C -3.990538 3.929557 2.204987 0 CFG=1
M  V30 19 C -4.665341 4.486712 3.434547 0
M  V30 20 O -3.870464 4.942873 1.272163 0
M  V30 21 C -0.417350 1.289378 0.798755 0
M  V30 22 C -0.577188 0.244406 1.823917 0
M  V30 23 C 0.357179 1.184990 -0.327551 0
M  V30 24 C 1.104664 -2.910878 1.342610 0
M  V30 25 C 1.408898 -4.173300 1.762001 0
M  V30 26 C 2.287118 -4.830487 0.893812 0
M  V30 27 N 2.781467 -6.076497 1.021132 0
M  V30 28 H 5.253858 -7.470942 -0.783353 0
M  V30 29 H 3.638080 -8.322120 -0.685343 0
M  V30 30 H 4.581582 -7.996616 0.821778 0
M  V30 31 H 4.143540 -5.068501 -1.737683 0
M  V30 32 H 2.138985 1.767079 -3.508762 0
M  V30 33 H -0.822936 4.170416 -0.584844 0
M  V30 34 H -2.193505 4.354707 3.201902 0
M  V30 35 H -2.807447 2.726348 3.458384 0
M  V30 36 H -4.617131 3.086628 1.844120 0
M  V30 37 H -4.026810 4.430330 4.320313 0
M  V30 38 H -5.633901 3.986087 3.642488 0
M  V30 39 H -4.936809 5.557233 3.249937 0
M  V30 40 H -4.538808 4.780491 0.552692 0
M  V30 41 H -1.197648 0.596232 2.673378 0
M  V30 42 H -1.098048 -0.634654 1.398489 0
M  V30 43 H 0.401702 -0.051907 2.270352 0
M  V30 44 H 0.426743 -2.374945 1.981589 0
M  V30 45 H 0.996065 -4.585205 2.669715 0
M  V30 46 H 2.576619 -6.744459 1.797612 0
M  V30 END ATOM
M  V30 BEGIN BOND
M  V30 1 1 1 2
M  V30 2 2 2 3
M  V30 3 1 3 4
M  V30 4 2 4 5
M  V30 5 1 5 6
M  V30 6 1 5 7
M  V30 7 1 7 8
M  V30 8 1 8 9
M  V30 9 2 9 10
M  V30 10 1 10 11
M  V30 11 2 11 12
M  V30 12 1 12 13
M  V30 13 1 13 14
M  V30 14 2 14 15
M  V30 15 1 15 16
M  V30 16 1 16 17
M  V30 17 1 17 18
M  V30 18 1 18 19
M  V30 19 1 18 20
M  V30 20 1 15 21
M  V30 21 1 21 22
M  V30 22 2 21 23
M  V30 23 2 7 24
M  V30 24 1 24 25
M  V30 25 2 25 26
M  V30 26 1 26 27
M  V30 27 1 27 2
M  V30 28 1 26 4
M  V30 29 1 23 9
M  V30 30 1 23 13
M  V30 31 1 1 28
M  V30 32 1 1 29
M  V30 33 1 1 30
M  V30 34 1 3 31
M  V30 35 1 11 32
M  V30 36 1 14 33
M  V30 37 1 17 34
M  V30 38 1 17 35
M  V30 39 1 18 36 CFG=3
M  V30 40 1 19 37
M  V30 41 1 19 38
M  V30 42 1 19 39
M  V30 43 1 20 40
M  V30 44 1 22 41
M  V30 45 1 22 42
M  V30 46 1 22 43
M  V30 47 1 24 44
M  V30 48 1 25 45
M  V30 49 1 27 46
M  V30 END BOND
M  V30 END CTAB
M  END
>  <Dataset>  (315) 
ChEMBL_Kinases

>  <Ligand_Instance>  (315) 
nan

>  <PDB_ID>  (315) 
nan

>  <Standardized_SMILES>  (315) 
Cc1cc2c(F)c(Oc3ncnn4cc(OC[C@@H](C)O)c(C)c34)ccc2[nH]1

>  <Name>  (315) 
BRIVANIB

>  <Pocket>  (315) 
nan

>  <ATP_Site>  (315) 
nan

>  <Peripheral>  (315) 
nan

>  <Num_H_Atoms_ProtBoundConf>  (315) 
nan

>  <Num_Resolved_Atoms>  (315) 
nan

>  <Num_Not_Resolved_Atoms>  (315) 
nan

$$$$
CHEMBL377294
     RDKit          3D

  0  0  0  0  0  0  0  0  0  0999 V3000
M  V30 BEGIN CTAB
M  V30 COUNTS 54 57 0 0 0
M  V30 BEGIN ATOM
M  V30 1 C 4.966678 -5.927466 7.187000 0
M  V30 2 O 4.590159 -4.656415 6.691494 0
M  V30 3 C 3.947223 -4.539220 5.474038 0
M  V30 4 C 3.606293 -3.265068 5.048038 0
M  V30 5 C 2.963245 -3.080622 3.842849 0
M  V30 6 C 2.591072 -1.757611 3.367018 0
M  V30 7 C 1.975725 -1.483090 2.235378 0
M  V30 8 C 1.602797 -0.156833 1.759182 0
M  V30 9 C 1.876778 0.975973 2.493313 0
M  V30 10 N 1.525322 2.192000 2.039280 0
M  V30 11 C 0.896783 2.329863 0.854653 0
M  V30 12 C 0.579801 1.257840 0.048998 0
M  V30 13 O -0.035612 1.166350 -1.149900 0
M  V30 14 C -0.577094 2.084565 -2.009909 0
M  V30 15 C -1.701945 2.926534 -1.545214 0 CFG=1
M  V30 16 N -2.030045 3.827824 -2.690381 0
M  V30 17 C -2.948984 2.238234 -1.112720 0
M  V30 18 C -3.633130 1.422527 -2.119347 0
M  V30 19 C -4.710056 1.959518 -2.847990 0
M  V30 20 N -5.186335 1.072544 -3.747113 0
M  V30 21 C -4.476780 -0.050128 -3.660621 0
M  V30 22 C -4.455453 -1.291767 -4.266790 0
M  V30 23 C -3.545612 -2.297034 -3.921179 0
M  V30 24 C -2.627154 -2.031787 -2.926488 0
M  V30 25 C -2.649390 -0.796183 -2.324747 0
M  V30 26 C -3.557251 0.173943 -2.687701 0
M  V30 27 C 0.959004 0.000859 0.549035 0
M  V30 28 C 2.714516 -4.244827 3.153012 0
M  V30 29 C 3.043296 -5.514560 3.556359 0
M  V30 30 N 3.678388 -5.645836 4.755634 0
M  V30 31 H 4.426693 -6.700653 6.600274 0
M  V30 32 H 6.061332 -6.134009 7.016629 0
M  V30 33 H 4.679835 -6.075796 8.232435 0
M  V30 34 H 3.839693 -2.396619 5.654373 0
M  V30 35 H 2.844613 -0.922222 4.003801 0
M  V30 36 H 1.739921 -2.343894 1.626745 0
M  V30 37 H 2.375599 0.955738 3.449429 0
M  V30 38 H 0.601476 3.278135 0.449648 0
M  V30 39 H 0.259079 2.800359 -2.288449 0
M  V30 40 H -0.799280 1.562986 -2.980946 0
M  V30 41 H -1.394417 3.608883 -0.757321 0
M  V30 42 H -1.158881 4.412513 -2.799276 0
M  V30 43 H -2.762078 4.462391 -2.321235 0
M  V30 44 H -3.629745 3.034814 -0.711650 0
M  V30 45 H -2.698915 1.636661 -0.185864 0
M  V30 46 H -5.161320 2.959480 -2.756240 0
M  V30 47 H -5.977897 1.223477 -4.408070 0
M  V30 48 H -5.183112 -1.490644 -5.048972 0
M  V30 49 H -3.541024 -3.257809 -4.401812 0
M  V30 50 H -1.906974 -2.804784 -2.640714 0
M  V30 51 H -1.915030 -0.663161 -1.552161 0
M  V30 52 H 0.765590 -0.938968 0.005146 0
M  V30 53 H 2.215230 -4.218772 2.196106 0
M  V30 54 H 2.828330 -6.401690 2.981645 0
M  V30 END ATOM
M  V30 BEGIN BOND
M  V30 1 1 1 2
M  V30 2 1 2 3
M  V30 3 2 3 4
M  V30 4 1 4 5
M  V30 5 1 5 6
M  V30 6 2 6 7
M  V30 7 1 7 8
M  V30 8 2 8 9
M  V30 9 1 9 10
M  V30 10 2 10 11
M  V30 11 1 11 12
M  V30 12 1 12 13
M  V30 13 1 13 14
M  V30 14 1 14 15
M  V30 15 1 15 16
M  V30 16 1 15 17
M  V30 17 1 17 18
M  V30 18 2 18 19
M  V30 19 1 19 20
M  V30 20 1 20 21
M  V30 21 2 21 22
M  V30 22 1 22 23
M  V30 23 2 23 24
M  V30 24 1 24 25
M  V30 25 2 25 26
M  V30 26 2 12 27
M  V30 27 2 5 28
M  V30 28 1 28 29
M  V30 29 2 29 30
M  V30 30 1 30 3
M  V30 31 1 27 8
M  V30 32 1 26 18
M  V30 33 1 26 21
M  V30 34 1 1 31
M  V30 35 1 1 32
M  V30 36 1 1 33
M  V30 37 1 4 34
M  V30 38 1 6 35
M  V30 39 1 7 36
M  V30 40 1 9 37
M  V30 41 1 11 38
M  V30 42 1 14 39
M  V30 43 1 14 40
M  V30 44 1 15 41 CFG=1
M  V30 45 1 16 42
M  V30 46 1 16 43
M  V30 47 1 17 44
M  V30 48 1 17 45
M  V30 49 1 19 46
M  V30 50 1 20 47
M  V30 51 1 22 48
M  V30 52 1 23 49
M  V30 53 1 24 50
M  V30 54 1 25 51
M  V30 55 1 27 52
M  V30 56 1 28 53
M  V30 57 1 29 54
M  V30 END BOND
M  V30 END CTAB
M  END
>  <Dataset>  (316) 
ChEMBL_Kinases

>  <Ligand_Instance>  (316) 
nan

>  <PDB_ID>  (316) 
nan

>  <Standardized_SMILES>  (316) 
COc1cc(/C=C/c2cncc(OC[C@@H](N)Cc3c[nH]c4ccccc34)c2)ccn1

>  <Name>  (316) 
nan

>  <Pocket>  (316) 
nan

>  <ATP_Site>  (316) 
nan

>  <Peripheral>  (316) 
nan

>  <Num_H_Atoms_ProtBoundConf>  (316) 
nan

>  <Num_Resolved_Atoms>  (316) 
nan

>  <Num_Not_Resolved_Atoms>  (316) 
nan

$$$$
CHEMBL377235
     RDKit          3D

  0  0  0  0  0  0  0  0  0  0999 V3000
M  V30 BEGIN CTAB
M  V30 COUNTS 31 33 0 0 0
M  V30 BEGIN ATOM
M  V30 1 C -1.494702 -3.318100 1.033760 0
M  V30 2 O -0.855804 -2.603444 -0.019297 0
M  V30 3 N -0.130544 -1.457762 0.304164 0
M  V30 4 C 1.165860 -1.639073 0.614191 0
M  V30 5 C 1.756428 -2.887105 0.615212 0
M  V30 6 C 3.089406 -3.014185 0.941109 0
M  V30 7 C 3.889553 -1.917233 1.277882 0
M  V30 8 Cl 5.576951 -2.146747 1.682138 0
M  V30 9 C 3.317724 -0.640597 1.285104 0
M  V30 10 C 1.980953 -0.578281 0.950448 0
M  V30 11 C 1.386891 0.680204 0.949800 0
M  V30 12 O 2.020694 1.730001 1.238331 0
M  V30 13 C 0.043702 0.832869 0.624357 0
M  V30 14 C -0.795702 1.922267 0.540562 0
M  V30 15 C -0.348582 3.328333 0.824201 0
M  V30 16 N -2.012473 1.494145 0.177583 0
M  V30 17 N -2.001291 0.164319 0.020451 0
M  V30 18 C -3.116041 -0.690302 -0.367717 0
M  V30 19 C -0.748512 -0.259998 0.290086 0
M  V30 20 H -0.926142 -4.162990 1.416445 0
M  V30 21 H -1.736496 -2.565396 1.835535 0
M  V30 22 H -2.469201 -3.706065 0.647144 0
M  V30 23 H 1.194861 -3.765760 0.365820 0
M  V30 24 H 3.552975 -4.012906 0.939570 0
M  V30 25 H 3.887855 0.223638 1.534983 0
M  V30 26 H -0.155749 3.478096 1.922221 0
M  V30 27 H 0.566605 3.583354 0.266434 0
M  V30 28 H -1.169098 4.015112 0.540142 0
M  V30 29 H -3.505641 -1.314004 0.436605 0
M  V30 30 H -2.862344 -1.292135 -1.278248 0
M  V30 31 H -3.947501 -0.004568 -0.693552 0
M  V30 END ATOM
M  V30 BEGIN BOND
M  V30 1 1 1 2
M  V30 2 1 2 3
M  V30 3 1 3 4
M  V30 4 2 4 5
M  V30 5 1 5 6
M  V30 6 2 6 7
M  V30 7 1 7 8
M  V30 8 1 7 9
M  V30 9 2 9 10
M  V30 10 1 10 11
M  V30 11 2 11 12
M  V30 12 1 11 13
M  V30 13 1 13 14
M  V30 14 1 14 15
M  V30 15 2 14 16
M  V30 16 1 16 17
M  V30 17 1 17 18
M  V30 18 1 17 19
M  V30 19 1 19 3
M  V30 20 1 10 4
M  V30 21 2 19 13
M  V30 22 1 1 20
M  V30 23 1 1 21
M  V30 24 1 1 22
M  V30 25 1 5 23
M  V30 26 1 6 24
M  V30 27 1 9 25
M  V30 28 1 15 26
M  V30 29 1 15 27
M  V30 30 1 15 28
M  V30 31 1 18 29
M  V30 32 1 18 30
M  V30 33 1 18 31
M  V30 END BOND
M  V30 END CTAB
M  END
>  <Dataset>  (317) 
ChEMBL_Kinases

>  <Ligand_Instance>  (317) 
nan

>  <PDB_ID>  (317) 
nan

>  <Standardized_SMILES>  (317) 
COn1c2ccc(Cl)cc2c(=O)c2c(C)nn(C)c21

>  <Name>  (317) 
nan

>  <Pocket>  (317) 
nan

>  <ATP_Site>  (317) 
nan

>  <Peripheral>  (317) 
nan

>  <Num_H_Atoms_ProtBoundConf>  (317) 
nan

>  <Num_Resolved_Atoms>  (317) 
nan

>  <Num_Not_Resolved_Atoms>  (317) 
nan

$$$$
CHEMBL5084565
     RDKit          3D

  0  0  0  0  0  0  0  0  0  0999 V3000
M  V30 BEGIN CTAB
M  V30 COUNTS 47 50 0 0 0
M  V30 BEGIN ATOM
M  V30 1 C -3.191238 -3.652063 3.152559 0
M  V30 2 C -2.122959 -3.684551 2.422180 0
M  V30 3 C -1.395103 -3.368793 1.250667 0
M  V30 4 O -0.291908 -3.935681 1.582917 0
M  V30 5 N -1.441549 -2.728247 0.004289 0
M  V30 6 C -0.176738 -2.702589 -0.698510 0
M  V30 7 O 0.712708 -3.485685 -0.213468 0
M  V30 8 C 0.201810 -1.901153 -1.878464 0
M  V30 9 C 0.102733 -0.427301 -1.741866 0
M  V30 10 C 0.952743 0.186996 -0.710451 0
M  V30 11 C 0.749978 0.061188 0.649535 0
M  V30 12 C 1.532231 0.623342 1.637651 0
M  V30 13 C 2.621295 1.384295 1.246053 0
M  V30 14 C 3.439514 1.972827 2.301216 0
M  V30 15 C 2.836432 2.342710 3.483932 0
M  V30 16 C 3.605156 2.899188 4.485767 0
M  V30 17 C 4.974622 3.108308 4.360924 0
M  V30 18 C 5.594486 2.735222 3.162331 0
M  V30 19 C 4.798701 2.181928 2.180895 0
M  V30 20 C 2.913679 1.573526 -0.089121 0
M  V30 21 C 2.073144 0.971305 -1.001671 0
M  V30 22 S -1.555808 0.248022 -1.651001 0
M  V30 23 C -2.777649 -0.925236 -1.108000 0
M  V30 24 C -4.062733 -0.543704 -1.427577 0
M  V30 25 C -5.142453 -1.364757 -1.078272 0
M  V30 26 C -4.972696 -2.581253 -0.405267 0
M  V30 27 C -3.701900 -3.000417 -0.066841 0
M  V30 28 C -2.669043 -2.132074 -0.444766 0
M  V30 29 H -4.233133 -3.304922 3.235465 0
M  V30 30 H -4.168500 -3.204366 2.984600 0
M  V30 31 H -2.028997 -4.188749 3.357238 0
M  V30 32 H 1.255942 -2.122769 -2.190299 0
M  V30 33 H -0.414005 -2.176279 -2.778037 0
M  V30 34 H 0.520364 -0.028115 -2.723734 0
M  V30 35 H -0.086721 -0.520457 1.007955 0
M  V30 36 H 1.306092 0.477129 2.688438 0
M  V30 37 H 1.771479 2.225915 3.692880 0
M  V30 38 H 3.164735 3.201710 5.429612 0
M  V30 39 H 5.553898 3.552265 5.175603 0
M  V30 40 H 6.667504 2.881706 3.022758 0
M  V30 41 H 5.297907 1.894899 1.247990 0
M  V30 42 H 3.752294 2.159208 -0.399264 0
M  V30 43 H 2.332268 1.140982 -2.040049 0
M  V30 44 H -4.245366 0.382865 -1.945434 0
M  V30 45 H -6.161536 -1.062631 -1.331173 0
M  V30 46 H -5.823780 -3.195673 -0.147537 0
M  V30 47 H -3.477812 -3.912343 0.428945 0
M  V30 END ATOM
M  V30 BEGIN BOND
M  V30 1 2 1 2
M  V30 2 1 2 3
M  V30 3 2 3 4
M  V30 4 1 3 5
M  V30 5 1 5 6
M  V30 6 2 6 7
M  V30 7 1 6 8
M  V30 8 1 8 9
M  V30 9 1 9 10
M  V30 10 2 10 11
M  V30 11 1 11 12
M  V30 12 2 12 13
M  V30 13 1 13 14
M  V30 14 2 14 15
M  V30 15 1 15 16
M  V30 16 2 16 17
M  V30 17 1 17 18
M  V30 18 2 18 19
M  V30 19 1 13 20
M  V30 20 2 20 21
M  V30 21 1 9 22
M  V30 22 1 22 23
M  V30 23 2 23 24
M  V30 24 1 24 25
M  V30 25 2 25 26
M  V30 26 1 26 27
M  V30 27 2 27 28
M  V30 28 1 28 5
M  V30 29 1 21 10
M  V30 30 1 28 23
M  V30 31 1 19 14
M  V30 32 1 1 29
M  V30 33 1 1 30
M  V30 34 1 2 31
M  V30 35 1 8 32
M  V30 36 1 8 33
M  V30 37 1 9 34
M  V30 38 1 11 35
M  V30 39 1 12 36
M  V30 40 1 15 37
M  V30 41 1 16 38
M  V30 42 1 17 39
M  V30 43 1 18 40
M  V30 44 1 19 41
M  V30 45 1 20 42
M  V30 46 1 21 43
M  V30 47 1 24 44
M  V30 48 1 25 45
M  V30 49 1 26 46
M  V30 50 1 27 47
M  V30 END BOND
M  V30 END CTAB
M  END
>  <Dataset>  (318) 
ChEMBL_Kinases

>  <Ligand_Instance>  (318) 
nan

>  <PDB_ID>  (318) 
nan

>  <Standardized_SMILES>  (318) 
C=CC(=O)N1C(=O)CC(c2ccc(-c3ccccc3)cc2)Sc2ccccc21

>  <Name>  (318) 
nan

>  <Pocket>  (318) 
nan

>  <ATP_Site>  (318) 
nan

>  <Peripheral>  (318) 
nan

>  <Num_H_Atoms_ProtBoundConf>  (318) 
nan

>  <Num_Resolved_Atoms>  (318) 
nan

>  <Num_Not_Resolved_Atoms>  (318) 
nan

$$$$
CHEMBL377165
     RDKit          3D

  0  0  0  0  0  0  0  0  0  0999 V3000
M  V30 BEGIN CTAB
M  V30 COUNTS 43 47 0 0 0
M  V30 BEGIN ATOM
M  V30 1 F 0.808311 -4.820960 2.680719 0
M  V30 2 C 1.273382 -4.068034 1.654468 0
M  V30 3 C 0.478476 -3.846828 0.570139 0
M  V30 4 C 0.866731 -3.094602 -0.519176 0
M  V30 5 C 2.127444 -2.535380 -0.512265 0
M  V30 6 C 2.770952 -1.714552 -1.518166 0
M  V30 7 N 3.869694 -1.822430 -2.304843 0
M  V30 8 C 3.956623 -0.710808 -3.057245 0
M  V30 9 O 2.943513 0.064491 -2.748192 0
M  V30 10 C 2.187447 -0.507234 -1.808960 0
M  V30 11 C 1.033554 0.288812 -1.403517 0
M  V30 12 C 0.090680 0.575605 -2.401585 0
M  V30 13 C -1.066919 1.316589 -2.209008 0
M  V30 14 C -1.250049 1.778696 -0.921288 0
M  V30 15 N -2.257187 2.515376 -0.423290 0
M  V30 16 N -2.025350 2.735577 0.879833 0
M  V30 17 C -0.861160 2.115593 1.146571 0
M  V30 18 C -0.219080 2.103261 2.490753 0
M  V30 19 C -0.767303 0.915595 3.225127 0
M  V30 20 C -0.268995 -0.367785 3.252803 0
M  V30 21 C -0.923707 -1.320263 3.992119 0
M  V30 22 C -2.059178 -1.037879 4.705767 0
M  V30 23 C -2.588144 0.232670 4.703411 0
M  V30 24 C -1.916023 1.185767 3.951632 0
M  V30 25 N -0.360650 1.514865 0.045104 0
M  V30 26 C 0.757533 0.796261 -0.151095 0
M  V30 27 C 2.972316 -2.739764 0.582366 0
M  V30 28 C 2.541945 -3.508348 1.667161 0
M  V30 29 H -0.523594 -4.246932 0.481621 0
M  V30 30 H 0.300428 -2.872652 -1.412864 0
M  V30 31 H 4.729522 -0.511040 -3.780686 0
M  V30 32 H 0.259533 0.195542 -3.422017 0
M  V30 33 H -1.730766 1.482453 -3.044377 0
M  V30 34 H -0.372614 3.019684 3.070990 0
M  V30 35 H 0.891870 1.932402 2.400912 0
M  V30 36 H 0.626766 -0.496579 2.662027 0
M  V30 37 H -0.496711 -2.312448 3.984058 0
M  V30 38 H -2.572120 -1.793461 5.287869 0
M  V30 39 H -3.490646 0.479658 5.263893 0
M  V30 40 H -2.376079 2.175358 3.983242 0
M  V30 41 H 1.475451 0.575448 0.600112 0
M  V30 42 H 3.974965 -2.357616 0.706330 0
M  V30 43 H 3.164107 -3.693491 2.538338 0
M  V30 END ATOM
M  V30 BEGIN BOND
M  V30 1 1 1 2
M  V30 2 2 2 3
M  V30 3 1 3 4
M  V30 4 2 4 5
M  V30 5 1 5 6
M  V30 6 1 6 7
M  V30 7 2 7 8
M  V30 8 1 8 9
M  V30 9 1 9 10
M  V30 10 1 10 11
M  V30 11 1 11 12
M  V30 12 2 12 13
M  V30 13 1 13 14
M  V30 14 2 14 15
M  V30 15 1 15 16
M  V30 16 2 16 17
M  V30 17 1 17 18
M  V30 18 1 18 19
M  V30 19 2 19 20
M  V30 20 1 20 21
M  V30 21 2 21 22
M  V30 22 1 22 23
M  V30 23 2 23 24
M  V30 24 1 17 25
M  V30 25 1 25 26
M  V30 26 1 5 27
M  V30 27 2 27 28
M  V30 28 1 28 2
M  V30 29 2 10 6
M  V30 30 2 26 11
M  V30 31 1 25 14
M  V30 32 1 24 19
M  V30 33 1 3 29
M  V30 34 1 4 30
M  V30 35 1 8 31
M  V30 36 1 12 32
M  V30 37 1 13 33
M  V30 38 1 18 34
M  V30 39 1 18 35
M  V30 40 1 20 36
M  V30 41 1 21 37
M  V30 42 1 22 38
M  V30 43 1 23 39
M  V30 44 1 24 40
M  V30 45 1 26 41
M  V30 46 1 27 42
M  V30 47 1 28 43
M  V30 END BOND
M  V30 END CTAB
M  END
>  <Dataset>  (319) 
ChEMBL_Kinases

>  <Ligand_Instance>  (319) 
nan

>  <PDB_ID>  (319) 
nan

>  <Standardized_SMILES>  (319) 
Fc1ccc(-c2ncoc2-c2ccc3nnc(Cc4ccccc4)n3c2)cc1

>  <Name>  (319) 
nan

>  <Pocket>  (319) 
nan

>  <ATP_Site>  (319) 
nan

>  <Peripheral>  (319) 
nan

>  <Num_H_Atoms_ProtBoundConf>  (319) 
nan

>  <Num_Resolved_Atoms>  (319) 
nan

>  <Num_Not_Resolved_Atoms>  (319) 
nan

$$$$
CHEMBL3770943
     RDKit          3D

  0  0  0  0  0  0  0  0  0  0999 V3000
M  V30 BEGIN CTAB
M  V30 COUNTS 58 62 0 0 0
M  V30 BEGIN ATOM
M  V30 1 C 3.540622 -5.908506 4.725784 0
M  V30 2 N 2.948836 -5.740640 3.414042 0
M  V30 3 C 2.468074 -4.449440 3.020159 0
M  V30 4 N 2.600506 -3.452389 3.915169 0
M  V30 5 C 2.189695 -2.201624 3.664435 0
M  V30 6 C 1.616142 -2.022075 2.403454 0
M  V30 7 C 1.181112 -0.722847 2.123424 0
M  V30 8 C 0.609454 -0.512857 0.884296 0
M  V30 9 C 0.163559 0.852279 0.616238 0
M  V30 10 C 1.114618 1.689158 0.030479 0
M  V30 11 C 0.825267 3.006385 -0.276514 0
M  V30 12 C -0.418824 3.541347 -0.013328 0
M  V30 13 C -0.821242 4.913785 -0.298321 0
M  V30 14 C 0.030813 5.831946 -0.874926 0
M  V30 15 N -0.337132 7.118606 -1.145361 0
M  V30 16 C -1.588962 7.527536 -0.840718 0
M  V30 17 C -2.452075 6.618494 -0.263134 0
M  V30 18 C -3.833990 7.012374 0.090576 0
M  V30 19 N -2.080983 5.352425 -0.000114 0
M  V30 20 C -1.340853 2.693979 0.565665 0
M  V30 21 C -1.087101 1.374102 0.885727 0
M  V30 22 Cl -2.241346 0.310927 1.611199 0
M  V30 23 C 0.482966 -1.541217 -0.015112 0
M  V30 24 O -0.034803 -1.307426 -1.115393 0
M  V30 25 N 0.900460 -2.765458 0.267629 0
M  V30 26 C 0.801433 -3.911421 -0.606601 0
M  V30 27 C -0.464924 -4.715425 -0.410589 0 CFG=1
M  V30 28 C -1.724034 -3.937170 -0.649217 0
M  V30 29 N -1.957981 -3.628676 -2.024121 0
M  V30 30 C -1.707732 -4.729759 -2.919948 0
M  V30 31 C -0.518427 -5.550321 -2.557746 0
M  V30 32 O -0.408881 -5.854788 -1.223853 0
M  V30 33 C 1.476750 -3.055975 1.470451 0
M  V30 34 N 1.916819 -4.282468 1.804940 0
M  V30 35 H 3.918305 -4.930250 5.122821 0
M  V30 36 H 4.406734 -6.596475 4.595658 0
M  V30 37 H 2.833402 -6.288698 5.481503 0
M  V30 38 H 2.875272 -6.554896 2.765255 0
M  V30 39 H 2.273587 -1.368499 4.348559 0
M  V30 40 H 1.286997 0.079071 2.842091 0
M  V30 41 H 2.109710 1.328597 -0.200847 0
M  V30 42 H 1.559134 3.642423 -0.725561 0
M  V30 43 H 1.036941 5.564499 -1.138643 0
M  V30 44 H -1.942929 8.533069 -1.029259 0
M  V30 45 H -4.530948 7.058742 -0.746636 0
M  V30 46 H -3.843774 8.037254 0.560670 0
M  V30 47 H -4.257998 6.349766 0.879991 0
M  V30 48 H -2.348111 2.996401 0.819122 0
M  V30 49 H 1.671219 -4.606447 -0.475159 0
M  V30 50 H 0.904153 -3.559378 -1.661068 0
M  V30 51 H -0.455233 -5.086081 0.635388 0
M  V30 52 H -2.595488 -4.587134 -0.335199 0
M  V30 53 H -1.839608 -3.029007 -0.041581 0
M  V30 54 H -2.821797 -3.120542 -2.215707 0
M  V30 55 H -1.645005 -4.410389 -3.978885 0
M  V30 56 H -2.597004 -5.406138 -2.858145 0
M  V30 57 H -0.549533 -6.540844 -3.094309 0
M  V30 58 H 0.448748 -5.095761 -2.921464 0
M  V30 END ATOM
M  V30 BEGIN BOND
M  V30 1 1 1 2
M  V30 2 1 2 3
M  V30 3 2 3 4
M  V30 4 1 4 5
M  V30 5 2 5 6
M  V30 6 1 6 7
M  V30 7 2 7 8
M  V30 8 1 8 9
M  V30 9 2 9 10
M  V30 10 1 10 11
M  V30 11 2 11 12
M  V30 12 1 12 13
M  V30 13 2 13 14
M  V30 14 1 14 15
M  V30 15 2 15 16
M  V30 16 1 16 17
M  V30 17 1 17 18
M  V30 18 2 17 19
M  V30 19 1 12 20
M  V30 20 2 20 21
M  V30 21 1 21 22
M  V30 22 1 8 23
M  V30 23 2 23 24
M  V30 24 1 23 25
M  V30 25 1 25 26
M  V30 26 1 26 27
M  V30 27 1 27 28
M  V30 28 1 28 29
M  V30 29 1 29 30
M  V30 30 1 30 31
M  V30 31 1 31 32
M  V30 32 1 25 33
M  V30 33 2 33 34
M  V30 34 1 34 3
M  V30 35 1 33 6
M  V30 36 1 21 9
M  V30 37 1 32 27
M  V30 38 1 19 13
M  V30 39 1 1 35
M  V30 40 1 1 36
M  V30 41 1 1 37
M  V30 42 1 2 38
M  V30 43 1 5 39
M  V30 44 1 7 40
M  V30 45 1 10 41
M  V30 46 1 11 42
M  V30 47 1 14 43
M  V30 48 1 16 44
M  V30 49 1 18 45
M  V30 50 1 18 46
M  V30 51 1 18 47
M  V30 52 1 20 48
M  V30 53 1 26 49
M  V30 54 1 26 50
M  V30 55 1 27 51 CFG=1
M  V30 56 1 28 52
M  V30 57 1 28 53
M  V30 58 1 29 54
M  V30 59 1 30 55
M  V30 60 1 30 56
M  V30 61 1 31 57
M  V30 62 1 31 58
M  V30 END BOND
M  V30 END CTAB
M  END
>  <Dataset>  (320) 
ChEMBL_Kinases

>  <Ligand_Instance>  (320) 
nan

>  <PDB_ID>  (320) 
nan

>  <Standardized_SMILES>  (320) 
CNc1ncc2cc(-c3ccc(-c4cncc(C)n4)cc3Cl)c(=O)n(C[C@H]3CNCCO3)c2n1

>  <Name>  (320) 
nan

>  <Pocket>  (320) 
nan

>  <ATP_Site>  (320) 
nan

>  <Peripheral>  (320) 
nan

>  <Num_H_Atoms_ProtBoundConf>  (320) 
nan

>  <Num_Resolved_Atoms>  (320) 
nan

>  <Num_Not_Resolved_Atoms>  (320) 
nan

$$$$
CHEMBL3770909
     RDKit          3D

  0  0  0  0  0  0  0  0  0  0999 V3000
M  V30 BEGIN CTAB
M  V30 COUNTS 66 70 0 0 0
M  V30 BEGIN ATOM
M  V30 1 C 5.534109 -0.877047 3.207134 0
M  V30 2 C 6.320476 -0.250196 2.092223 0
M  V30 3 N 5.819647 -0.624876 0.783349 0
M  V30 4 C 4.504448 -0.358798 0.320929 0
M  V30 5 N 4.371345 0.811694 -0.300107 0
M  V30 6 C 3.176270 1.211670 -0.800054 0
M  V30 7 C 2.063445 0.396344 -0.669237 0
M  V30 8 C 0.851034 0.819669 -1.185562 0
M  V30 9 C -0.226257 -0.050009 -1.018835 0
M  V30 10 C -1.531442 0.349137 -1.546024 0
M  V30 11 C -2.019708 0.085716 -2.811713 0
M  V30 12 C -3.294177 0.542089 -3.154375 0
M  V30 13 C -4.060034 1.246101 -2.247927 0
M  V30 14 C -5.373619 1.680665 -2.694202 0
M  V30 15 C -6.276049 2.392124 -1.932165 0
M  V30 16 N -7.475871 2.778279 -2.367746 0
M  V30 17 C -7.858423 2.477628 -3.603524 0
M  V30 18 C -6.986141 1.766697 -4.400344 0
M  V30 19 C -7.331097 1.387436 -5.794390 0
M  V30 20 N -5.761452 1.376427 -3.945624 0
M  V30 21 C -3.574285 1.510228 -0.983423 0
M  V30 22 C -2.300448 1.063056 -0.617693 0
M  V30 23 Cl -1.751299 1.436254 1.005211 0
M  V30 24 C -0.011769 -1.246176 -0.364553 0
M  V30 25 O -1.016252 -2.008984 -0.233198 0
M  V30 26 N 1.167455 -1.645608 0.131440 0
M  V30 27 C 1.265609 -2.927576 0.799021 0
M  V30 28 C 0.995885 -2.823539 2.285977 0 CFG=1
M  V30 29 C 1.122000 -4.187446 2.868193 0
M  V30 30 C 1.126456 -4.236901 4.362247 0
M  V30 31 C 1.653719 -3.021825 5.048172 0 CFG=2
M  V30 32 N 1.124703 -3.000333 6.419096 0
M  V30 33 C 1.243183 -1.733361 4.411358 0
M  V30 34 C 1.795010 -1.765352 2.979813 0
M  V30 35 C 2.216210 -0.817551 -0.021506 0
M  V30 36 N 3.424039 -1.171546 0.458585 0
M  V30 37 H 5.247157 -1.912592 2.860980 0
M  V30 38 H 4.598116 -0.361324 3.462060 0
M  V30 39 H 6.166664 -0.989639 4.127877 0
M  V30 40 H 6.313464 0.865435 2.146506 0
M  V30 41 H 7.359220 -0.598018 2.168234 0
M  V30 42 H 6.274170 -1.121622 -0.020074 0
M  V30 43 H 3.042998 2.169057 -1.314006 0
M  V30 44 H 0.773466 1.775825 -1.685092 0
M  V30 45 H -1.364464 -0.468946 -3.463997 0
M  V30 46 H -3.628508 0.308202 -4.159641 0
M  V30 47 H -6.002272 2.650616 -0.935836 0
M  V30 48 H -8.831248 2.766511 -4.019517 0
M  V30 49 H -8.325958 1.818289 -6.069791 0
M  V30 50 H -6.557400 1.709808 -6.519466 0
M  V30 51 H -7.455278 0.288566 -5.876453 0
M  V30 52 H -4.170398 2.061199 -0.269969 0
M  V30 53 H 2.231770 -3.399320 0.579633 0
M  V30 54 H 0.456553 -3.580341 0.383366 0
M  V30 55 H -0.082746 -2.508607 2.401441 0
M  V30 56 H 0.272212 -4.802354 2.505702 0
M  V30 57 H 2.064919 -4.648007 2.454960 0
M  V30 58 H 1.793444 -5.087321 4.662538 0
M  V30 59 H 0.115486 -4.518918 4.770482 0
M  V30 60 H 2.759859 -2.999437 5.160002 0
M  V30 61 H 0.078956 -3.105697 6.406273 0
M  V30 62 H 1.342176 -2.034735 6.801491 0
M  V30 63 H 0.137836 -1.763562 4.284783 0
M  V30 64 H 1.598904 -0.889437 4.995667 0
M  V30 65 H 2.858712 -1.986981 3.084221 0
M  V30 66 H 1.562252 -0.795040 2.514321 0
M  V30 END ATOM
M  V30 BEGIN BOND
M  V30 1 1 1 2
M  V30 2 1 2 3
M  V30 3 1 3 4
M  V30 4 2 4 5
M  V30 5 1 5 6
M  V30 6 2 6 7
M  V30 7 1 7 8
M  V30 8 2 8 9
M  V30 9 1 9 10
M  V30 10 2 10 11
M  V30 11 1 11 12
M  V30 12 2 12 13
M  V30 13 1 13 14
M  V30 14 2 14 15
M  V30 15 1 15 16
M  V30 16 2 16 17
M  V30 17 1 17 18
M  V30 18 1 18 19
M  V30 19 2 18 20
M  V30 20 1 13 21
M  V30 21 2 21 22
M  V30 22 1 22 23
M  V30 23 1 9 24
M  V30 24 2 24 25
M  V30 25 1 24 26
M  V30 26 1 26 27
M  V30 27 1 27 28
M  V30 28 1 28 29
M  V30 29 1 29 30
M  V30 30 1 30 31
M  V30 31 1 31 32
M  V30 32 1 31 33
M  V30 33 1 33 34
M  V30 34 1 26 35
M  V30 35 2 35 36
M  V30 36 1 36 4
M  V30 37 1 35 7
M  V30 38 1 22 10
M  V30 39 1 34 28
M  V30 40 1 20 14
M  V30 41 1 1 37
M  V30 42 1 1 38
M  V30 43 1 1 39
M  V30 44 1 2 40
M  V30 45 1 2 41
M  V30 46 1 3 42
M  V30 47 1 6 43
M  V30 48 1 8 44
M  V30 49 1 11 45
M  V30 50 1 12 46
M  V30 51 1 15 47
M  V30 52 1 17 48
M  V30 53 1 19 49
M  V30 54 1 19 50
M  V30 55 1 19 51
M  V30 56 1 21 52
M  V30 57 1 27 53
M  V30 58 1 27 54
M  V30 59 1 28 55 CFG=3
M  V30 60 1 29 56
M  V30 61 1 29 57
M  V30 62 1 30 58
M  V30 63 1 30 59
M  V30 64 1 31 60 CFG=1
M  V30 65 1 32 61
M  V30 66 1 32 62
M  V30 67 1 33 63
M  V30 68 1 33 64
M  V30 69 1 34 65
M  V30 70 1 34 66
M  V30 END BOND
M  V30 END CTAB
M  END
>  <Dataset>  (321) 
ChEMBL_Kinases

>  <Ligand_Instance>  (321) 
nan

>  <PDB_ID>  (321) 
nan

>  <Standardized_SMILES>  (321) 
CCNc1ncc2cc(-c3ccc(-c4cncc(C)n4)cc3Cl)c(=O)n(C[C@H]3CC[C@H](N)CC3)c2n1

>  <Name>  (321) 
nan

>  <Pocket>  (321) 
nan

>  <ATP_Site>  (321) 
nan

>  <Peripheral>  (321) 
nan

>  <Num_H_Atoms_ProtBoundConf>  (321) 
nan

>  <Num_Resolved_Atoms>  (321) 
nan

>  <Num_Not_Resolved_Atoms>  (321) 
nan

$$$$
CHEMBL5084696
     RDKit          3D

  0  0  0  0  0  0  0  0  0  0999 V3000
M  V30 BEGIN CTAB
M  V30 COUNTS 58 62 0 0 0
M  V30 BEGIN ATOM
M  V30 1 C 7.613609 -1.204167 1.739363 0
M  V30 2 N 7.319693 0.129927 1.252122 0
M  V30 3 C 7.586662 0.237315 -0.156670 0
M  V30 4 C 6.305753 0.740617 -0.799190 0
M  V30 5 C 5.271631 0.161307 0.134011 0
M  V30 6 N 3.990505 0.805925 0.067770 0
M  V30 7 C 2.785459 0.105259 -0.243017 0
M  V30 8 O 2.717179 -1.144152 -0.491673 0
M  V30 9 C 1.444633 0.717806 -0.322933 0
M  V30 10 C 0.349720 0.144098 0.295776 0
M  V30 11 C -0.923975 0.658711 0.263368 0
M  V30 12 C -2.050853 0.015969 0.932545 0
M  V30 13 C -1.953407 -1.157319 1.654346 0
M  V30 14 C -3.065246 -1.714367 2.265182 0
M  V30 15 C -4.329624 -1.120828 2.181208 0
M  V30 16 N -5.444394 -1.719071 2.821635 0
M  V30 17 S -5.702066 -3.436281 2.659000 0
M  V30 18 O -6.944155 -3.847433 3.403493 0
M  V30 19 O -4.548212 -4.238005 3.133165 0
M  V30 20 C -5.949930 -3.810210 0.954298 0
M  V30 21 C -5.183441 -4.637306 0.168170 0
M  V30 22 C -5.506326 -4.826995 -1.150934 0
M  V30 23 C -6.602627 -4.193035 -1.708908 0
M  V30 24 C -7.384136 -3.351123 -0.911891 0
M  V30 25 Cl -8.765673 -2.559482 -1.637255 0
M  V30 26 C -7.064518 -3.152411 0.426704 0
M  V30 27 Cl -8.113200 -2.077009 1.328152 0
M  V30 28 C -4.402813 0.050716 1.454783 0
M  V30 29 C -3.296047 0.604767 0.847189 0
M  V30 30 N -1.101379 1.812662 -0.429397 0
M  V30 31 C -0.049064 2.407462 -1.051562 0
M  V30 32 N 0.074068 3.533665 -1.796383 0
M  V30 33 N 1.310365 3.713337 -2.197321 0
M  V30 34 C 2.078057 2.692852 -1.726336 0
M  V30 35 C 1.230054 1.893461 -1.021232 0
M  V30 36 C 5.915982 0.378307 1.476861 0
M  V30 37 H 8.486903 -1.639024 1.216409 0
M  V30 38 H 7.822761 -1.152065 2.841289 0
M  V30 39 H 6.705665 -1.873008 1.680276 0
M  V30 40 H 7.850346 -0.751340 -0.580521 0
M  V30 41 H 8.447559 0.916666 -0.396414 0
M  V30 42 H 6.309051 1.827739 -0.845464 0
M  V30 43 H 6.170909 0.240355 -1.787337 0
M  V30 44 H 5.145483 -0.903454 -0.063410 0
M  V30 45 H 3.895841 1.839773 0.251378 0
M  V30 46 H 0.575104 -0.767922 0.822995 0
M  V30 47 H -0.997860 -1.644298 1.740473 0
M  V30 48 H -2.890410 -2.638398 2.811681 0
M  V30 49 H -5.975056 -0.966613 3.330377 0
M  V30 50 H -4.331933 -5.100110 0.689680 0
M  V30 51 H -4.870942 -5.493831 -1.744685 0
M  V30 52 H -6.862005 -4.342352 -2.758077 0
M  V30 53 H -5.389290 0.517900 1.386703 0
M  V30 54 H -3.486519 1.519979 0.310630 0
M  V30 55 H -0.786727 4.126943 -1.974195 0
M  V30 56 H 3.149977 2.584758 -1.905769 0
M  V30 57 H 5.703452 1.397996 1.865624 0
M  V30 58 H 5.460017 -0.352516 2.181181 0
M  V30 END ATOM
M  V30 BEGIN BOND
M  V30 1 1 1 2
M  V30 2 1 2 3
M  V30 3 1 3 4
M  V30 4 1 4 5
M  V30 5 1 5 6
M  V30 6 1 6 7
M  V30 7 2 7 8
M  V30 8 1 7 9
M  V30 9 2 9 10
M  V30 10 1 10 11
M  V30 11 1 11 12
M  V30 12 2 12 13
M  V30 13 1 13 14
M  V30 14 2 14 15
M  V30 15 1 15 16
M  V30 16 1 16 17
M  V30 17 2 17 18
M  V30 18 2 17 19
M  V30 19 1 17 20
M  V30 20 2 20 21
M  V30 21 1 21 22
M  V30 22 2 22 23
M  V30 23 1 23 24
M  V30 24 1 24 25
M  V30 25 2 24 26
M  V30 26 1 26 27
M  V30 27 1 15 28
M  V30 28 2 28 29
M  V30 29 2 11 30
M  V30 30 1 30 31
M  V30 31 1 31 32
M  V30 32 1 32 33
M  V30 33 2 33 34
M  V30 34 1 34 35
M  V30 35 1 5 36
M  V30 36 1 36 2
M  V30 37 1 35 9
M  V30 38 1 29 12
M  V30 39 2 35 31
M  V30 40 1 26 20
M  V30 41 1 1 37
M  V30 42 1 1 38
M  V30 43 1 1 39
M  V30 44 1 3 40
M  V30 45 1 3 41
M  V30 46 1 4 42
M  V30 47 1 4 43
M  V30 48 1 5 44
M  V30 49 1 6 45
M  V30 50 1 10 46
M  V30 51 1 13 47
M  V30 52 1 14 48
M  V30 53 1 16 49
M  V30 54 1 21 50
M  V30 55 1 22 51
M  V30 56 1 23 52
M  V30 57 1 28 53
M  V30 58 1 29 54
M  V30 59 1 32 55
M  V30 60 1 34 56
M  V30 61 1 36 57
M  V30 62 1 36 58
M  V30 END BOND
M  V30 END CTAB
M  END
>  <Dataset>  (322) 
ChEMBL_Kinases

>  <Ligand_Instance>  (322) 
nan

>  <PDB_ID>  (322) 
nan

>  <Standardized_SMILES>  (322) 
CN1CCC(NC(=O)c2cc(-c3ccc(NS(=O)(=O)c4cccc(Cl)c4Cl)cc3)nc3[nH]ncc23)C1

>  <Name>  (322) 
nan

>  <Pocket>  (322) 
nan

>  <ATP_Site>  (322) 
nan

>  <Peripheral>  (322) 
nan

>  <Num_H_Atoms_ProtBoundConf>  (322) 
nan

>  <Num_Resolved_Atoms>  (322) 
nan

>  <Num_Not_Resolved_Atoms>  (322) 
nan

$$$$
CHEMBL5084730
     RDKit          3D

  0  0  0  0  0  0  0  0  0  0999 V3000
M  V30 BEGIN CTAB
M  V30 COUNTS 57 60 0 0 0
M  V30 BEGIN ATOM
M  V30 1 N 4.600055 0.185275 3.392518 0
M  V30 2 C 5.149990 1.480512 3.120111 0
M  V30 3 C 6.546858 1.489815 3.103325 0
M  V30 4 C 7.248453 2.663818 2.855555 0
M  V30 5 C 6.550167 3.823766 2.625563 0
M  V30 6 C 5.159365 3.814493 2.642272 0
M  V30 7 C 4.433795 2.651409 2.888043 0
M  V30 8 N 3.037642 2.540394 2.926979 0
M  V30 9 C 2.102527 1.780401 2.174117 0
M  V30 10 C 2.547855 0.965440 1.154671 0
M  V30 11 C 1.607083 0.234520 0.438412 0
M  V30 12 C 0.283057 0.374512 0.797854 0
M  V30 13 C -0.155545 1.196503 1.824492 0
M  V30 14 C 0.782870 1.931517 2.545910 0
M  V30 15 C -1.539632 1.412717 2.282132 0
M  V30 16 C -2.550448 1.537811 1.192885 0
M  V30 17 C -2.888041 0.318981 0.463488 0
M  V30 18 C -4.229622 0.023816 0.322680 0
M  V30 19 C -4.672866 -1.111161 -0.353030 0
M  V30 20 C -3.750512 -1.979027 -0.905629 0
M  V30 21 C -4.257468 -3.154564 -1.604249 0
M  V30 22 O -5.487934 -3.307211 -1.661686 0
M  V30 23 N -3.391266 -4.108361 -2.207591 0
M  V30 24 C -3.857235 -5.275482 -2.902405 0
M  V30 25 C -3.327586 -5.410245 -4.292912 0
M  V30 26 O -1.928863 -5.483718 -4.246057 0
M  V30 27 C -3.367249 -6.499456 -2.117180 0
M  V30 28 O -3.758521 -7.682368 -2.696172 0
M  V30 29 C -2.412232 -1.678331 -0.761362 0
M  V30 30 C -1.972485 -0.552923 -0.091362 0
M  V30 31 C -0.498546 -0.484844 -0.092043 0
M  V30 32 O 0.114915 -1.228896 -0.927570 0
M  V30 33 H 4.030466 0.347343 4.273331 0
M  V30 34 H 4.741700 -0.698251 2.837814 0
M  V30 35 H 7.151956 0.597397 3.279523 0
M  V30 36 H 8.340506 2.698684 2.836770 0
M  V30 37 H 7.088241 4.741909 2.431935 0
M  V30 38 H 4.576067 4.719638 2.463251 0
M  V30 39 H 2.808103 3.187664 3.689491 0
M  V30 40 H 3.586607 0.859324 0.875882 0
M  V30 41 H 1.913053 -0.416914 -0.369014 0
M  V30 42 H 0.454109 2.562880 3.333194 0
M  V30 43 H -1.890394 0.634353 2.997674 0
M  V30 44 H -1.588312 2.365416 2.868923 0
M  V30 45 H -2.143699 2.279223 0.447355 0
M  V30 46 H -3.436840 2.064660 1.615155 0
M  V30 47 H -4.945238 0.728428 0.770325 0
M  V30 48 H -5.739838 -1.272984 -0.420730 0
M  V30 49 H -2.354659 -3.994592 -2.168105 0
M  V30 50 H -4.964616 -5.363593 -2.924874 0
M  V30 51 H -3.693830 -4.645140 -4.995605 0
M  V30 52 H -3.707850 -6.384206 -4.687556 0
M  V30 53 H -1.514706 -4.745525 -4.788573 0
M  V30 54 H -2.267005 -6.485601 -2.000845 0
M  V30 55 H -3.785075 -6.412046 -1.077191 0
M  V30 56 H -3.028647 -8.011769 -3.306133 0
M  V30 57 H -1.686664 -2.339163 -1.182662 0
M  V30 END ATOM
M  V30 BEGIN BOND
M  V30 1 1 1 2
M  V30 2 2 2 3
M  V30 3 1 3 4
M  V30 4 2 4 5
M  V30 5 1 5 6
M  V30 6 2 6 7
M  V30 7 1 7 8
M  V30 8 1 8 9
M  V30 9 2 9 10
M  V30 10 1 10 11
M  V30 11 2 11 12
M  V30 12 1 12 13
M  V30 13 2 13 14
M  V30 14 1 13 15
M  V30 15 1 15 16
M  V30 16 1 16 17
M  V30 17 2 17 18
M  V30 18 1 18 19
M  V30 19 2 19 20
M  V30 20 1 20 21
M  V30 21 2 21 22
M  V30 22 1 21 23
M  V30 23 1 23 24
M  V30 24 1 24 25
M  V30 25 1 25 26
M  V30 26 1 24 27
M  V30 27 1 27 28
M  V30 28 1 20 29
M  V30 29 2 29 30
M  V30 30 1 30 31
M  V30 31 2 31 32
M  V30 32 1 7 2
M  V30 33 1 14 9
M  V30 34 1 30 17
M  V30 35 1 31 12
M  V30 36 1 1 33
M  V30 37 1 1 34
M  V30 38 1 3 35
M  V30 39 1 4 36
M  V30 40 1 5 37
M  V30 41 1 6 38
M  V30 42 1 8 39
M  V30 43 1 10 40
M  V30 44 1 11 41
M  V30 45 1 14 42
M  V30 46 1 15 43
M  V30 47 1 15 44
M  V30 48 1 16 45
M  V30 49 1 16 46
M  V30 50 1 18 47
M  V30 51 1 19 48
M  V30 52 1 23 49
M  V30 53 1 24 50
M  V30 54 1 25 51
M  V30 55 1 25 52
M  V30 56 1 26 53
M  V30 57 1 27 54
M  V30 58 1 27 55
M  V30 59 1 28 56
M  V30 60 1 29 57
M  V30 END BOND
M  V30 END CTAB
M  END
>  <Dataset>  (323) 
ChEMBL_Kinases

>  <Ligand_Instance>  (323) 
nan

>  <PDB_ID>  (323) 
nan

>  <Standardized_SMILES>  (323) 
Nc1ccccc1Nc1ccc2c(c1)CCc1ccc(C(=O)NC(CO)CO)cc1C2=O

>  <Name>  (323) 
nan

>  <Pocket>  (323) 
nan

>  <ATP_Site>  (323) 
nan

>  <Peripheral>  (323) 
nan

>  <Num_H_Atoms_ProtBoundConf>  (323) 
nan

>  <Num_Resolved_Atoms>  (323) 
nan

>  <Num_Not_Resolved_Atoms>  (323) 
nan

$$$$
CHEMBL377319
     RDKit          3D

  0  0  0  0  0  0  0  0  0  0999 V3000
M  V30 BEGIN CTAB
M  V30 COUNTS 40 44 0 0 0
M  V30 BEGIN ATOM
M  V30 1 C 1.470007 -2.251413 3.998678 0
M  V30 2 C 0.740540 -2.599728 2.723914 0
M  V30 3 C 1.546589 -2.583297 1.484705 0
M  V30 4 N 2.213515 -3.668658 1.005142 0
M  V30 5 N 2.833983 -3.337389 -0.106300 0
M  V30 6 C 2.543266 -2.037393 -0.307480 0
M  V30 7 C 2.967031 -1.229437 -1.355575 0
M  V30 8 C 2.578595 0.092102 -1.418486 0
M  V30 9 C 1.752233 0.563684 -0.390565 0
M  V30 10 C 1.292928 1.948655 -0.377988 0
M  V30 11 O 2.126111 2.987212 -0.315103 0
M  V30 12 C 1.418515 4.104924 -0.320438 0
M  V30 13 N 0.089131 3.835066 -0.387463 0
M  V30 14 C 0.012228 2.498748 -0.423105 0
M  V30 15 C -1.107925 1.563007 -0.496576 0
M  V30 16 C -1.387638 0.656926 -1.512488 0
M  V30 17 C -2.515225 -0.146909 -1.380105 0
M  V30 18 F -2.724203 -1.008530 -2.411539 0
M  V30 19 C -3.342206 -0.056233 -0.273683 0
M  V30 20 C -3.078111 0.843081 0.750486 0
M  V30 21 C -1.946440 1.643602 0.608461 0
M  V30 22 F -1.754839 2.501344 1.656396 0
M  V30 23 C 1.341143 -0.261783 0.646834 0
M  V30 24 N 1.741663 -1.546568 0.672716 0
M  V30 25 C -0.718725 -2.377833 2.706571 0
M  V30 26 C -0.201564 -3.807326 2.823698 0
M  V30 27 H 1.188861 -2.957508 4.825325 0
M  V30 28 H 2.572975 -2.309321 3.877541 0
M  V30 29 H 1.208865 -1.233059 4.378046 0
M  V30 30 H 3.603227 -1.583939 -2.151330 0
M  V30 31 H 2.897462 0.755167 -2.235006 0
M  V30 32 H 1.902271 5.092938 -0.274695 0
M  V30 33 H -0.686966 0.668462 -2.319088 0
M  V30 34 H -4.213485 -0.710973 -0.219946 0
M  V30 35 H -3.733422 0.896733 1.599966 0
M  V30 36 H 0.712512 0.058982 1.447033 0
M  V30 37 H -1.293292 -2.193992 1.787430 0
M  V30 38 H -1.169524 -1.920474 3.613901 0
M  V30 39 H -0.370058 -4.267011 3.824947 0
M  V30 40 H -0.306547 -4.470306 1.950996 0
M  V30 END ATOM
M  V30 BEGIN BOND
M  V30 1 1 1 2
M  V30 2 1 2 3
M  V30 3 2 3 4
M  V30 4 1 4 5
M  V30 5 2 5 6
M  V30 6 1 6 7
M  V30 7 2 7 8
M  V30 8 1 8 9
M  V30 9 1 9 10
M  V30 10 1 10 11
M  V30 11 1 11 12
M  V30 12 2 12 13
M  V30 13 1 13 14
M  V30 14 1 14 15
M  V30 15 2 15 16
M  V30 16 1 16 17
M  V30 17 1 17 18
M  V30 18 2 17 19
M  V30 19 1 19 20
M  V30 20 2 20 21
M  V30 21 1 21 22
M  V30 22 2 9 23
M  V30 23 1 23 24
M  V30 24 1 2 25
M  V30 25 1 25 26
M  V30 26 1 26 2
M  V30 27 1 24 3
M  V30 28 1 24 6
M  V30 29 2 14 10
M  V30 30 1 21 15
M  V30 31 1 1 27
M  V30 32 1 1 28
M  V30 33 1 1 29
M  V30 34 1 7 30
M  V30 35 1 8 31
M  V30 36 1 12 32
M  V30 37 1 16 33
M  V30 38 1 19 34
M  V30 39 1 20 35
M  V30 40 1 23 36
M  V30 41 1 25 37
M  V30 42 1 25 38
M  V30 43 1 26 39
M  V30 44 1 26 40
M  V30 END BOND
M  V30 END CTAB
M  END
>  <Dataset>  (324) 
ChEMBL_Kinases

>  <Ligand_Instance>  (324) 
nan

>  <PDB_ID>  (324) 
nan

>  <Standardized_SMILES>  (324) 
CC1(c2nnc3ccc(-c4ocnc4-c4cc(F)ccc4F)cn23)CC1

>  <Name>  (324) 
nan

>  <Pocket>  (324) 
nan

>  <ATP_Site>  (324) 
nan

>  <Peripheral>  (324) 
nan

>  <Num_H_Atoms_ProtBoundConf>  (324) 
nan

>  <Num_Resolved_Atoms>  (324) 
nan

>  <Num_Not_Resolved_Atoms>  (324) 
nan

$$$$
CHEMBL3764641
     RDKit          3D

  0  0  0  0  0  0  0  0  0  0999 V3000
M  V30 BEGIN CTAB
M  V30 COUNTS 79 83 0 0 0
M  V30 BEGIN ATOM
M  V30 1 C 5.350633 -3.384018 -3.442282 0
M  V30 2 N 6.678618 -3.515999 -3.981897 0
M  V30 3 C 7.490037 -4.182233 -3.009868 0
M  V30 4 C 8.715613 -3.336038 -2.729719 0
M  V30 5 N 8.373266 -2.006616 -2.326231 0
M  V30 6 C 9.005614 -1.480628 -1.239212 0
M  V30 7 C 8.769160 -0.109320 -0.747294 0
M  V30 8 C 7.369145 0.217114 -0.316557 0
M  V30 9 O 6.911927 -0.597823 0.727090 0
M  V30 10 C 5.608573 -0.419989 1.225248 0
M  V30 11 C 4.866393 0.584109 0.606235 0
M  V30 12 C 3.583604 0.725500 1.128932 0
M  V30 13 C 3.020059 -0.014515 2.159646 0
M  V30 14 N 1.655390 0.295283 2.528593 0
M  V30 15 C 0.684101 -0.490300 1.816659 0
M  V30 16 O 0.809900 -1.406159 0.932144 0
M  V30 17 C -0.721581 -0.187144 2.168086 0
M  V30 18 C -1.824633 -0.893854 2.038080 0
M  V30 19 C -3.131149 -0.397956 2.455217 0
M  V30 20 C -3.594997 0.910696 2.279959 0
M  V30 21 C -4.890099 1.189675 2.746044 0
M  V30 22 C -5.641423 0.199942 3.342872 0
M  V30 23 O -6.911670 0.671340 3.740362 0
M  V30 24 C -7.999850 0.528581 2.849100 0
M  V30 25 C -9.286649 0.963578 3.102080 0
M  V30 26 C -10.313437 0.807196 2.216592 0
M  V30 27 C -10.084739 0.184325 0.994031 0
M  V30 28 C -11.097722 -0.044786 -0.027115 0
M  V30 29 O -12.016238 -0.737644 0.478283 0
M  V30 30 N -10.854909 0.525091 -1.305589 0
M  V30 31 C -9.679504 1.318578 -1.669657 0
M  V30 32 C -11.764260 0.383499 -2.437241 0
M  V30 33 C -8.817192 -0.245652 0.740683 0
M  V30 34 C -7.782777 -0.088001 1.632903 0
M  V30 35 C -5.188339 -1.090531 3.518568 0
M  V30 36 C -3.898375 -1.375095 3.056132 0
M  V30 37 S -0.591725 1.475147 2.890708 0
M  V30 38 C 1.120963 1.235609 3.454418 0
M  V30 39 S 2.127922 1.756061 4.625363 0
M  V30 40 C 3.824433 -0.987411 2.716729 0
M  V30 41 C 5.108386 -1.190008 2.254345 0
M  V30 42 C 7.399815 -1.429494 -3.114461 0
M  V30 43 C 7.180671 -2.233727 -4.416075 0
M  V30 44 H 4.873826 -2.422111 -3.636961 0
M  V30 45 H 4.675360 -4.206256 -3.805825 0
M  V30 46 H 5.359326 -3.501737 -2.318365 0
M  V30 47 H 7.848792 -5.178321 -3.367983 0
M  V30 48 H 6.968042 -4.299186 -2.028595 0
M  V30 49 H 9.328127 -3.229972 -3.674592 0
M  V30 50 H 9.402952 -3.817655 -1.982589 0
M  V30 51 H 10.133001 -1.595888 -1.364690 0
M  V30 52 H 8.824350 -2.159485 -0.337910 0
M  V30 53 H 9.427464 0.015764 0.166034 0
M  V30 54 H 9.183422 0.686477 -1.432807 0
M  V30 55 H 6.728005 0.283182 -1.195806 0
M  V30 56 H 7.325107 1.268637 0.124046 0
M  V30 57 H 5.200292 1.208417 -0.191847 0
M  V30 58 H 2.980821 1.498980 0.667124 0
M  V30 59 H -1.712610 -1.887965 1.595109 0
M  V30 60 H -2.885618 1.538153 1.801894 0
M  V30 61 H -5.180494 2.211650 2.581012 0
M  V30 62 H -9.466744 1.447808 4.052224 0
M  V30 63 H -11.308652 1.149006 2.425293 0
M  V30 64 H -9.001609 0.657874 -2.212322 0
M  V30 65 H -9.982315 2.225280 -2.250192 0
M  V30 66 H -9.179551 1.695672 -0.730939 0
M  V30 67 H -11.147500 -0.033452 -3.267744 0
M  V30 68 H -12.643927 -0.216764 -2.207021 0
M  V30 69 H -12.138014 1.379102 -2.798852 0
M  V30 70 H -8.573872 -0.743103 -0.203454 0
M  V30 71 H -6.789421 -0.451308 1.378095 0
M  V30 72 H -5.864609 -1.778420 3.999544 0
M  V30 73 H -3.600732 -2.392483 3.223201 0
M  V30 74 H 3.368073 -1.550974 3.517147 0
M  V30 75 H 5.713979 -1.958672 2.711345 0
M  V30 76 H 6.398790 -1.565227 -2.596624 0
M  V30 77 H 7.472257 -0.376331 -3.364288 0
M  V30 78 H 6.356332 -1.741009 -4.983784 0
M  V30 79 H 8.064850 -2.262351 -5.046974 0
M  V30 END ATOM
M  V30 BEGIN BOND
M  V30 1 1 1 2
M  V30 2 1 2 3
M  V30 3 1 3 4
M  V30 4 1 4 5
M  V30 5 1 5 6
M  V30 6 1 6 7
M  V30 7 1 7 8
M  V30 8 1 8 9
M  V30 9 1 9 10
M  V30 10 2 10 11
M  V30 11 1 11 12
M  V30 12 2 12 13
M  V30 13 1 13 14
M  V30 14 1 14 15
M  V30 15 2 15 16
M  V30 16 1 15 17
M  V30 17 2 17 18
M  V30 18 1 18 19
M  V30 19 2 19 20
M  V30 20 1 20 21
M  V30 21 2 21 22
M  V30 22 1 22 23
M  V30 23 1 23 24
M  V30 24 2 24 25
M  V30 25 1 25 26
M  V30 26 2 26 27
M  V30 27 1 27 28
M  V30 28 2 28 29
M  V30 29 1 28 30
M  V30 30 1 30 31
M  V30 31 1 30 32
M  V30 32 1 27 33
M  V30 33 2 33 34
M  V30 34 1 22 35
M  V30 35 2 35 36
M  V30 36 1 17 37
M  V30 37 1 37 38
M  V30 38 2 38 39
M  V30 39 1 13 40
M  V30 40 2 40 41
M  V30 41 1 5 42
M  V30 42 1 42 43
M  V30 43 1 43 2
M  V30 44 1 41 10
M  V30 45 1 38 14
M  V30 46 1 36 19
M  V30 47 1 34 24
M  V30 48 1 1 44
M  V30 49 1 1 45
M  V30 50 1 1 46
M  V30 51 1 3 47
M  V30 52 1 3 48
M  V30 53 1 4 49
M  V30 54 1 4 50
M  V30 55 1 6 51
M  V30 56 1 6 52
M  V30 57 1 7 53
M  V30 58 1 7 54
M  V30 59 1 8 55
M  V30 60 1 8 56
M  V30 61 1 11 57
M  V30 62 1 12 58
M  V30 63 1 18 59
M  V30 64 1 20 60
M  V30 65 1 21 61
M  V30 66 1 25 62
M  V30 67 1 26 63
M  V30 68 1 31 64
M  V30 69 1 31 65
M  V30 70 1 31 66
M  V30 71 1 32 67
M  V30 72 1 32 68
M  V30 73 1 32 69
M  V30 74 1 33 70
M  V30 75 1 34 71
M  V30 76 1 35 72
M  V30 77 1 36 73
M  V30 78 1 40 74
M  V30 79 1 41 75
M  V30 80 1 42 76
M  V30 81 1 42 77
M  V30 82 1 43 78
M  V30 83 1 43 79
M  V30 END BOND
M  V30 END CTAB
M  END
>  <Dataset>  (325) 
ChEMBL_Kinases

>  <Ligand_Instance>  (325) 
nan

>  <PDB_ID>  (325) 
nan

>  <Standardized_SMILES>  (325) 
CN1CCN(CCCOc2ccc(N3C(=O)/C(=C/c4ccc(Oc5ccc(C(=O)N(C)C)cc5)cc4)SC3=S)cc2)CC1

>  <Name>  (325) 
nan

>  <Pocket>  (325) 
nan

>  <ATP_Site>  (325) 
nan

>  <Peripheral>  (325) 
nan

>  <Num_H_Atoms_ProtBoundConf>  (325) 
nan

>  <Num_Resolved_Atoms>  (325) 
nan

>  <Num_Not_Resolved_Atoms>  (325) 
nan

$$$$
CHEMBL3702314
     RDKit          3D

  0  0  0  0  0  0  0  0  0  0999 V3000
M  V30 BEGIN CTAB
M  V30 COUNTS 53 55 0 0 0
M  V30 BEGIN ATOM
M  V30 1 C 0.914889 -1.563354 7.359548 0
M  V30 2 O 1.164894 -0.907894 6.109466 0
M  V30 3 C 2.112927 0.071857 6.015483 0
M  V30 4 O 2.819258 0.470268 6.970291 0
M  V30 5 C 2.339745 0.722123 4.708578 0
M  V30 6 S 3.579478 2.033754 4.510976 0
M  V30 7 C 3.259952 2.275654 2.777706 0
M  V30 8 N 3.795275 3.111395 1.866195 0
M  V30 9 C 3.403816 3.134882 0.585690 0
M  V30 10 N 2.445159 2.263593 0.300722 0
M  V30 11 C 1.867095 1.405931 1.147517 0
M  V30 12 N 0.875535 0.617287 0.513458 0
M  V30 13 C -0.464422 1.142281 0.429259 0
M  V30 14 C -0.690442 2.387159 0.970771 0
M  V30 15 C -1.954937 2.929304 0.911095 0
M  V30 16 C -2.966898 2.210963 0.308987 0
M  V30 17 F -4.226744 2.696324 0.222544 0
M  V30 18 C -2.714747 0.968039 -0.224920 0
M  V30 19 C -1.467063 0.385306 -0.188910 0
M  V30 20 O -1.079206 -0.842815 -0.680849 0
M  V30 21 C -1.871241 -1.780352 -1.333852 0
M  V30 22 C -1.874287 -3.092932 -0.538068 0
M  V30 23 C -1.378673 -2.113589 -2.699305 0
M  V30 24 O -0.356841 -1.524702 -3.065068 0
M  V30 25 N -2.098325 -3.064395 -3.474082 0
M  V30 26 C -1.660508 -3.423440 -4.806951 0
M  V30 27 C -0.274765 -4.008871 -4.762199 0
M  V30 28 N -0.208726 -5.189179 -3.951364 0
M  V30 29 C 2.252249 1.363223 2.465222 0
M  V30 30 C 1.757621 0.553124 3.424851 0
M  V30 31 C 0.715133 -0.499765 3.394965 0
M  V30 32 H 1.009898 -2.658539 7.174953 0
M  V30 33 H 1.702186 -1.296755 8.088471 0
M  V30 34 H -0.113793 -1.376836 7.702529 0
M  V30 35 H 3.880972 3.829197 -0.071044 0
M  V30 36 H 1.095588 -0.337225 0.100922 0
M  V30 37 H 0.098829 2.960479 1.446336 0
M  V30 38 H -2.137393 3.907462 1.335246 0
M  V30 39 H -3.478468 0.386776 -0.697917 0
M  V30 40 H -2.902845 -1.412880 -1.444813 0
M  V30 41 H -1.535901 -2.882972 0.488353 0
M  V30 42 H -1.219870 -3.826547 -1.022211 0
M  V30 43 H -2.912621 -3.475321 -0.495507 0
M  V30 44 H -2.955874 -3.494692 -3.044772 0
M  V30 45 H -1.638863 -2.541239 -5.494297 0
M  V30 46 H -2.388779 -4.131039 -5.230302 0
M  V30 47 H 0.442310 -3.288107 -4.364803 0
M  V30 48 H 0.047331 -4.279519 -5.800491 0
M  V30 49 H -1.127906 -5.544685 -3.636539 0
M  V30 50 H 0.348762 -5.917814 -4.414129 0
M  V30 51 H 1.077505 -1.442071 3.862410 0
M  V30 52 H 0.491559 -0.747371 2.365197 0
M  V30 53 H -0.211766 -0.175467 3.952251 0
M  V30 END ATOM
M  V30 BEGIN BOND
M  V30 1 1 1 2
M  V30 2 1 2 3
M  V30 3 2 3 4
M  V30 4 1 3 5
M  V30 5 1 5 6
M  V30 6 1 6 7
M  V30 7 2 7 8
M  V30 8 1 8 9
M  V30 9 2 9 10
M  V30 10 1 10 11
M  V30 11 1 11 12
M  V30 12 1 12 13
M  V30 13 2 13 14
M  V30 14 1 14 15
M  V30 15 2 15 16
M  V30 16 1 16 17
M  V30 17 1 16 18
M  V30 18 2 18 19
M  V30 19 1 19 20
M  V30 20 1 20 21
M  V30 21 1 21 22
M  V30 22 1 21 23
M  V30 23 2 23 24
M  V30 24 1 23 25
M  V30 25 1 25 26
M  V30 26 1 26 27
M  V30 27 1 27 28
M  V30 28 2 11 29
M  V30 29 1 29 30
M  V30 30 1 30 31
M  V30 31 2 30 5
M  V30 32 1 29 7
M  V30 33 1 19 13
M  V30 34 1 1 32
M  V30 35 1 1 33
M  V30 36 1 1 34
M  V30 37 1 9 35
M  V30 38 1 12 36
M  V30 39 1 14 37
M  V30 40 1 15 38
M  V30 41 1 18 39
M  V30 42 1 21 40
M  V30 43 1 22 41
M  V30 44 1 22 42
M  V30 45 1 22 43
M  V30 46 1 25 44
M  V30 47 1 26 45
M  V30 48 1 26 46
M  V30 49 1 27 47
M  V30 50 1 27 48
M  V30 51 1 28 49
M  V30 52 1 28 50
M  V30 53 1 31 51
M  V30 54 1 31 52
M  V30 55 1 31 53
M  V30 END BOND
M  V30 END CTAB
M  END
>  <Dataset>  (326) 
ChEMBL_Kinases

>  <Ligand_Instance>  (326) 
nan

>  <PDB_ID>  (326) 
nan

>  <Standardized_SMILES>  (326) 
COC(=O)c1sc2ncnc(Nc3ccc(F)cc3OC(C)C(=O)NCCN)c2c1C

>  <Name>  (326) 
nan

>  <Pocket>  (326) 
nan

>  <ATP_Site>  (326) 
nan

>  <Peripheral>  (326) 
nan

>  <Num_H_Atoms_ProtBoundConf>  (326) 
nan

>  <Num_Resolved_Atoms>  (326) 
nan

>  <Num_Not_Resolved_Atoms>  (326) 
nan

$$$$
CHEMBL3764532
     RDKit          3D

  0  0  0  0  0  0  0  0  0  0999 V3000
M  V30 BEGIN CTAB
M  V30 COUNTS 65 68 0 0 0
M  V30 BEGIN ATOM
M  V30 1 O 0.506671 3.138269 -1.039624 0
M  V30 2 C 0.284140 1.898818 -0.771811 0
M  V30 3 C 0.910526 1.642623 0.501444 0
M  V30 4 C 1.054803 0.576823 1.269519 0
M  V30 5 O 0.506755 -0.606208 0.805642 0
M  V30 6 C 1.734794 0.577838 2.548163 0
M  V30 7 C 1.852600 -0.518805 3.236831 0
M  V30 8 C 2.491292 -0.706435 4.533173 0
M  V30 9 C 2.635328 -1.973197 5.098588 0
M  V30 10 C 3.229327 -2.073732 6.367258 0
M  V30 11 C 3.679031 -0.952759 7.079913 0
M  V30 12 O 4.192768 -1.407638 8.257451 0
M  V30 13 C 4.745668 -0.732333 9.327234 0
M  V30 14 C 3.781090 0.208267 9.986978 0
M  V30 15 C 3.677778 1.580719 9.946035 0
M  V30 16 C 2.698397 2.255350 10.641375 0
M  V30 17 C 1.756183 1.575701 11.425914 0
M  V30 18 F 0.792505 2.246463 12.107526 0
M  V30 19 C 1.842472 0.180697 11.482663 0
M  V30 20 C 2.837729 -0.469775 10.774015 0
M  V30 21 F 2.819479 -1.828517 10.909905 0
M  V30 22 C 3.508921 0.270220 6.465246 0
M  V30 23 C 2.930122 0.395182 5.222185 0
M  V30 24 C -0.481540 1.398527 -1.885825 0
M  V30 25 C -1.009625 0.207018 -2.142741 0
M  V30 26 C -1.773497 -0.202919 -3.305520 0
M  V30 27 C -2.395941 -1.425756 -3.387496 0
M  V30 28 C -3.107486 -1.803852 -4.503373 0
M  V30 29 C -3.235253 -0.963398 -5.618936 0
M  V30 30 O -3.982444 -1.515332 -6.622134 0
M  V30 31 C -4.299622 -1.025574 -7.873792 0
M  V30 32 C -3.142708 -0.771369 -8.771585 0
M  V30 33 C -2.513219 0.405210 -9.202323 0
M  V30 34 C -1.444611 0.302553 -10.060216 0
M  V30 35 C -0.933069 -0.880064 -10.538821 0
M  V30 36 F 0.127494 -0.752850 -11.370506 0
M  V30 37 C -1.546043 -2.043281 -10.120333 0
M  V30 38 C -2.620112 -1.966751 -9.260030 0
M  V30 39 F -3.097596 -3.208348 -8.960410 0
M  V30 40 C -2.605071 0.270752 -5.535900 0
M  V30 41 C -1.901867 0.615882 -4.401405 0
M  V30 42 H 1.408903 2.459431 1.028953 0
M  V30 43 H 0.895434 -1.187530 0.083505 0
M  V30 44 H 2.171870 1.465409 2.985507 0
M  V30 45 H 1.413569 -1.420481 2.790497 0
M  V30 46 H 2.275744 -2.798062 4.504731 0
M  V30 47 H 3.257863 -3.140511 6.643672 0
M  V30 48 H 5.651230 -0.160919 8.990288 0
M  V30 49 H 5.074625 -1.455392 10.081153 0
M  V30 50 H 4.437405 2.023721 9.322410 0
M  V30 51 H 2.668609 3.314677 10.572332 0
M  V30 52 H 1.113468 -0.373324 12.091106 0
M  V30 53 H 3.900820 1.046268 7.133843 0
M  V30 54 H 2.874401 1.415732 4.893687 0
M  V30 55 H -0.737801 2.017688 -2.730799 0
M  V30 56 H -0.860720 -0.548640 -1.409400 0
M  V30 57 H -2.308271 -2.101856 -2.527069 0
M  V30 58 H -3.558528 -2.802986 -4.444678 0
M  V30 59 H -4.952467 -0.107702 -7.846460 0
M  V30 60 H -4.973806 -1.791585 -8.354029 0
M  V30 61 H -3.012003 1.251863 -8.755004 0
M  V30 62 H -1.059659 1.288709 -10.305457 0
M  V30 63 H -1.118380 -2.950282 -10.512055 0
M  V30 64 H -2.730487 0.879830 -6.398488 0
M  V30 65 H -1.480622 1.602257 -4.511727 0
M  V30 END ATOM
M  V30 BEGIN BOND
M  V30 1 2 1 2
M  V30 2 1 2 3
M  V30 3 2 3 4
M  V30 4 1 4 5
M  V30 5 1 4 6
M  V30 6 2 6 7
M  V30 7 1 7 8
M  V30 8 2 8 9
M  V30 9 1 9 10
M  V30 10 2 10 11
M  V30 11 1 11 12
M  V30 12 1 12 13
M  V30 13 1 13 14
M  V30 14 2 14 15
M  V30 15 1 15 16
M  V30 16 2 16 17
M  V30 17 1 17 18
M  V30 18 1 17 19
M  V30 19 2 19 20
M  V30 20 1 20 21
M  V30 21 1 11 22
M  V30 22 2 22 23
M  V30 23 1 2 24
M  V30 24 2 24 25
M  V30 25 1 25 26
M  V30 26 2 26 27
M  V30 27 1 27 28
M  V30 28 2 28 29
M  V30 29 1 29 30
M  V30 30 1 30 31
M  V30 31 1 31 32
M  V30 32 2 32 33
M  V30 33 1 33 34
M  V30 34 2 34 35
M  V30 35 1 35 36
M  V30 36 1 35 37
M  V30 37 2 37 38
M  V30 38 1 38 39
M  V30 39 1 29 40
M  V30 40 2 40 41
M  V30 41 1 23 8
M  V30 42 1 41 26
M  V30 43 1 20 14
M  V30 44 1 38 32
M  V30 45 1 3 42
M  V30 46 1 5 43
M  V30 47 1 6 44
M  V30 48 1 7 45
M  V30 49 1 9 46
M  V30 50 1 10 47
M  V30 51 1 13 48
M  V30 52 1 13 49
M  V30 53 1 15 50
M  V30 54 1 16 51
M  V30 55 1 19 52
M  V30 56 1 22 53
M  V30 57 1 23 54
M  V30 58 1 24 55
M  V30 59 1 25 56
M  V30 60 1 27 57
M  V30 61 1 28 58
M  V30 62 1 31 59
M  V30 63 1 31 60
M  V30 64 1 33 61
M  V30 65 1 34 62
M  V30 66 1 37 63
M  V30 67 1 40 64
M  V30 68 1 41 65
M  V30 END BOND
M  V30 END CTAB
M  END
>  <Dataset>  (327) 
ChEMBL_Kinases

>  <Ligand_Instance>  (327) 
nan

>  <PDB_ID>  (327) 
nan

>  <Standardized_SMILES>  (327) 
O=C(/C=C(O)/C=C/c1ccc(OCc2ccc(F)cc2F)cc1)/C=C/c1ccc(OCc2ccc(F)cc2F)cc1

>  <Name>  (327) 
nan

>  <Pocket>  (327) 
nan

>  <ATP_Site>  (327) 
nan

>  <Peripheral>  (327) 
nan

>  <Num_H_Atoms_ProtBoundConf>  (327) 
nan

>  <Num_Resolved_Atoms>  (327) 
nan

>  <Num_Not_Resolved_Atoms>  (327) 
nan

$$$$
CHEMBL3764457
     RDKit          3D

  0  0  0  0  0  0  0  0  0  0999 V3000
M  V30 BEGIN CTAB
M  V30 COUNTS 28 29 0 0 0
M  V30 BEGIN ATOM
M  V30 1 N 0.678028 -1.122795 2.669776 0
M  V30 2 C 0.101730 -1.321977 1.560787 0
M  V30 3 N 0.510357 -0.605083 0.400248 0
M  V30 4 C 1.192227 0.639906 0.449480 0
M  V30 5 N 0.969342 1.250764 1.556173 0
M  V30 6 O 1.533993 2.463506 1.797207 0
M  V30 7 C 2.012874 1.069816 -0.667886 0
M  V30 8 N 2.159987 0.329645 -1.776923 0
M  V30 9 O 2.931019 0.891224 -2.648574 0
M  V30 10 N 3.351959 2.037902 -2.189735 0
M  V30 11 C 2.788478 2.162608 -0.957293 0
M  V30 12 N 2.979356 3.266103 -0.097715 0
M  V30 13 C -0.997019 -2.311338 1.470864 0
M  V30 14 C -1.755077 -2.489516 2.619870 0
M  V30 15 C -2.803972 -3.403305 2.607677 0
M  V30 16 C -3.105793 -4.137665 1.472328 0
M  V30 17 C -2.331610 -3.943794 0.327457 0
M  V30 18 C -1.290041 -3.038305 0.334962 0
M  V30 19 H 1.431643 -0.519405 2.957580 0
M  V30 20 H 0.269336 -1.069252 -0.515735 0
M  V30 21 H 1.923338 2.770007 2.658780 0
M  V30 22 H 3.868835 3.777799 -0.129729 0
M  V30 23 H 3.889856 3.778036 -0.140824 0
M  V30 24 H -1.534701 -1.917738 3.534288 0
M  V30 25 H -3.420679 -3.571291 3.487133 0
M  V30 26 H -3.926906 -4.860404 1.445034 0
M  V30 27 H -2.541456 -4.503476 -0.579808 0
M  V30 28 H -0.679500 -2.874956 -0.542813 0
M  V30 END ATOM
M  V30 BEGIN BOND
M  V30 1 2 1 2 CFG=2
M  V30 2 1 2 3
M  V30 3 1 3 4
M  V30 4 2 4 5
M  V30 5 1 5 6
M  V30 6 1 4 7
M  V30 7 2 7 8
M  V30 8 1 8 9
M  V30 9 1 9 10
M  V30 10 2 10 11
M  V30 11 1 11 12
M  V30 12 1 2 13
M  V30 13 2 13 14
M  V30 14 1 14 15
M  V30 15 2 15 16
M  V30 16 1 16 17
M  V30 17 2 17 18
M  V30 18 1 11 7
M  V30 19 1 18 13
M  V30 20 1 1 19
M  V30 21 1 3 20
M  V30 22 1 6 21
M  V30 23 1 12 22
M  V30 24 1 12 23
M  V30 25 1 14 24
M  V30 26 1 15 25
M  V30 27 1 16 26
M  V30 28 1 17 27
M  V30 29 1 18 28
M  V30 END BOND
M  V30 END CTAB
M  END
>  <Dataset>  (328) 
ChEMBL_Kinases

>  <Ligand_Instance>  (328) 
nan

>  <PDB_ID>  (328) 
nan

>  <Standardized_SMILES>  (328) 
N=C(N/C(=N/O)c1nonc1N)c1ccccc1

>  <Name>  (328) 
nan

>  <Pocket>  (328) 
nan

>  <ATP_Site>  (328) 
nan

>  <Peripheral>  (328) 
nan

>  <Num_H_Atoms_ProtBoundConf>  (328) 
nan

>  <Num_Resolved_Atoms>  (328) 
nan

>  <Num_Not_Resolved_Atoms>  (328) 
nan

$$$$
CHEMBL3764451
     RDKit          3D

  0  0  0  0  0  0  0  0  0  0999 V3000
M  V30 BEGIN CTAB
M  V30 COUNTS 41 43 0 0 0
M  V30 BEGIN ATOM
M  V30 1 C 0.649398 -8.069024 2.828285 0
M  V30 2 C 0.576106 -6.706151 2.248240 0
M  V30 3 C 0.211973 -6.587021 0.922495 0
M  V30 4 C 0.135696 -5.313716 0.352960 0
M  V30 5 C 0.406899 -4.152876 1.048247 0
M  V30 6 C 0.298753 -2.866609 0.362172 0
M  V30 7 O -0.043979 -2.921843 -0.846190 0
M  V30 8 N 0.560454 -1.646629 1.009474 0
M  V30 9 C 0.464574 -0.365127 0.368142 0
M  V30 10 S 1.675397 0.740485 -0.593183 0
M  V30 11 C 0.329675 2.055912 -0.858062 0
M  V30 12 N 0.578316 3.296541 -1.586578 0
M  V30 13 C 1.030262 4.409959 -0.816802 0
M  V30 14 C 1.306035 5.646012 -1.366686 0
M  V30 15 C 1.742901 6.731706 -0.639794 0
M  V30 16 C 1.919345 6.588676 0.718958 0
M  V30 17 C 1.662801 5.384736 1.329498 0
M  V30 18 C 1.227464 4.334153 0.547837 0
M  V30 19 N -0.590202 1.615216 -0.336957 0
M  V30 20 C -0.738923 0.481796 0.303935 0
M  V30 21 C -1.922838 -0.046505 0.954420 0
M  V30 22 N -3.138723 0.667131 0.963259 0
M  V30 23 O -2.037144 -1.125342 1.556580 0
M  V30 24 C 0.768339 -4.304064 2.371852 0
M  V30 25 C 0.850405 -5.552477 2.956223 0
M  V30 26 H -0.277284 -8.675790 2.610861 0
M  V30 27 H 1.509954 -8.663251 2.470352 0
M  V30 28 H 0.705235 -8.053600 3.935384 0
M  V30 29 H -0.011096 -7.465228 0.332720 0
M  V30 30 H -0.158329 -5.301972 -0.697828 0
M  V30 31 H 0.844673 -1.609156 2.013562 0
M  V30 32 H 0.461208 3.446714 -2.590960 0
M  V30 33 H 1.176369 5.787449 -2.431823 0
M  V30 34 H 1.954556 7.694228 -1.087154 0
M  V30 35 H 2.260096 7.394523 1.361028 0
M  V30 36 H 1.778948 5.192671 2.403225 0
M  V30 37 H 1.020663 3.372889 1.023173 0
M  V30 38 H -4.031614 1.183815 0.958420 0
M  V30 39 H -3.729449 1.364864 1.506488 0
M  V30 40 H 0.987102 -3.418890 2.944620 0
M  V30 41 H 1.138817 -5.640253 4.004688 0
M  V30 END ATOM
M  V30 BEGIN BOND
M  V30 1 1 1 2
M  V30 2 2 2 3
M  V30 3 1 3 4
M  V30 4 2 4 5
M  V30 5 1 5 6
M  V30 6 2 6 7
M  V30 7 1 6 8
M  V30 8 1 8 9
M  V30 9 1 9 10
M  V30 10 1 10 11
M  V30 11 1 11 12
M  V30 12 1 12 13
M  V30 13 2 13 14
M  V30 14 1 14 15
M  V30 15 2 15 16
M  V30 16 1 16 17
M  V30 17 2 17 18
M  V30 18 2 11 19
M  V30 19 1 19 20
M  V30 20 1 20 21
M  V30 21 1 21 22
M  V30 22 2 21 23
M  V30 23 1 5 24
M  V30 24 2 24 25
M  V30 25 1 25 2
M  V30 26 2 20 9
M  V30 27 1 18 13
M  V30 28 1 1 26
M  V30 29 1 1 27
M  V30 30 1 1 28
M  V30 31 1 3 29
M  V30 32 1 4 30
M  V30 33 1 8 31
M  V30 34 1 12 32
M  V30 35 1 14 33
M  V30 36 1 15 34
M  V30 37 1 16 35
M  V30 38 1 17 36
M  V30 39 1 18 37
M  V30 40 1 22 38
M  V30 41 1 22 39
M  V30 42 1 24 40
M  V30 43 1 25 41
M  V30 END BOND
M  V30 END CTAB
M  END
>  <Dataset>  (329) 
ChEMBL_Kinases

>  <Ligand_Instance>  (329) 
nan

>  <PDB_ID>  (329) 
nan

>  <Standardized_SMILES>  (329) 
Cc1ccc(C(=O)Nc2sc(Nc3ccccc3)nc2C(N)=O)cc1

>  <Name>  (329) 
nan

>  <Pocket>  (329) 
nan

>  <ATP_Site>  (329) 
nan

>  <Peripheral>  (329) 
nan

>  <Num_H_Atoms_ProtBoundConf>  (329) 
nan

>  <Num_Resolved_Atoms>  (329) 
nan

>  <Num_Not_Resolved_Atoms>  (329) 
nan

$$$$
CHEMBL5085025
     RDKit          3D

  0  0  0  0  0  0  0  0  0  0999 V3000
M  V30 BEGIN CTAB
M  V30 COUNTS 47 50 0 0 0
M  V30 BEGIN ATOM
M  V30 1 C 1.557054 -0.391614 3.120946 0
M  V30 2 N 1.397130 -0.806390 1.718536 0
M  V30 3 C 2.191065 -0.347517 0.638031 0
M  V30 4 N 3.024985 -1.302717 0.189190 0
M  V30 5 C 3.906660 -1.119044 -0.803869 0
M  V30 6 N 3.935008 0.117437 -1.370306 0
M  V30 7 C 3.139155 1.127147 -0.985460 0
M  V30 8 N 2.952155 2.408056 -1.356388 0
M  V30 9 C 1.978270 2.951703 -0.591359 0
M  V30 10 C 1.414660 4.211422 -0.573208 0
M  V30 11 C 0.408547 4.509392 0.323546 0
M  V30 12 C -0.038463 3.528623 1.215126 0
M  V30 13 Cl -1.320069 4.016151 2.309339 0
M  V30 14 C 0.527124 2.280221 1.190201 0
M  V30 15 C 1.518529 2.005840 0.299122 0
M  V30 16 C 2.253145 0.882905 0.037630 0
M  V30 17 C 0.321527 -1.764366 1.508246 0
M  V30 18 C 0.563634 -3.025318 2.320465 0
M  V30 19 C -0.594975 -3.944560 1.997573 0
M  V30 20 C -1.429963 -3.443514 0.854853 0
M  V30 21 N -1.993518 -2.154441 1.146418 0
M  V30 22 C -2.677818 -1.601741 0.016022 0
M  V30 23 C -3.931312 -2.418374 -0.282749 0
M  V30 24 C -4.859518 -2.433586 0.831852 0
M  V30 25 N -5.584609 -2.445101 1.721451 0
M  V30 26 C -1.046559 -1.219014 1.722557 0
M  V30 27 H 2.351333 -1.023356 3.563171 0
M  V30 28 H 1.962547 0.653012 3.164285 0
M  V30 29 H 0.622681 -0.486062 3.682889 0
M  V30 30 H 4.576153 -1.896791 -1.159867 0
M  V30 31 H 3.506690 2.853309 -2.122918 0
M  V30 32 H 1.809327 4.935862 -1.297599 0
M  V30 33 H -0.019895 5.495534 0.324842 0
M  V30 34 H 0.083601 1.633179 1.915607 0
M  V30 35 H 0.375714 -2.087746 0.446097 0
M  V30 36 H 1.526946 -3.429228 1.980101 0
M  V30 37 H 0.633283 -2.802045 3.405293 0
M  V30 38 H -1.256173 -3.920487 2.899765 0
M  V30 39 H -0.266841 -4.978845 1.831521 0
M  V30 40 H -0.947608 -3.538151 -0.126966 0
M  V30 41 H -2.309358 -4.150811 0.805251 0
M  V30 42 H -2.090015 -1.504077 -0.897956 0
M  V30 43 H -3.067571 -0.593390 0.340730 0
M  V30 44 H -3.601186 -3.439748 -0.603471 0
M  V30 45 H -4.474615 -1.988057 -1.154117 0
M  V30 46 H -1.138851 -0.277330 1.148471 0
M  V30 47 H -1.297919 -1.020643 2.778701 0
M  V30 END ATOM
M  V30 BEGIN BOND
M  V30 1 1 1 2
M  V30 2 1 2 3
M  V30 3 2 3 4
M  V30 4 1 4 5
M  V30 5 2 5 6
M  V30 6 1 6 7
M  V30 7 1 7 8
M  V30 8 1 8 9
M  V30 9 2 9 10
M  V30 10 1 10 11
M  V30 11 2 11 12
M  V30 12 1 12 13
M  V30 13 1 12 14
M  V30 14 2 14 15
M  V30 15 1 15 16
M  V30 16 1 2 17
M  V30 17 1 17 18
M  V30 18 1 18 19
M  V30 19 1 19 20
M  V30 20 1 20 21
M  V30 21 1 21 22
M  V30 22 1 22 23
M  V30 23 1 23 24
M  V30 24 3 24 25
M  V30 25 1 21 26
M  V30 26 1 16 3
M  V30 27 1 26 17
M  V30 28 2 16 7
M  V30 29 1 15 9
M  V30 30 1 1 27
M  V30 31 1 1 28
M  V30 32 1 1 29
M  V30 33 1 5 30
M  V30 34 1 8 31
M  V30 35 1 10 32
M  V30 36 1 11 33
M  V30 37 1 14 34
M  V30 38 1 17 35
M  V30 39 1 18 36
M  V30 40 1 18 37
M  V30 41 1 19 38
M  V30 42 1 19 39
M  V30 43 1 20 40
M  V30 44 1 20 41
M  V30 45 1 22 42
M  V30 46 1 22 43
M  V30 47 1 23 44
M  V30 48 1 23 45
M  V30 49 1 26 46
M  V30 50 1 26 47
M  V30 END BOND
M  V30 END CTAB
M  END
>  <Dataset>  (330) 
ChEMBL_Kinases

>  <Ligand_Instance>  (330) 
nan

>  <PDB_ID>  (330) 
nan

>  <Standardized_SMILES>  (330) 
CN(c1ncnc2[nH]c3ccc(Cl)cc3c12)C1CCCN(CCC#N)C1

>  <Name>  (330) 
nan

>  <Pocket>  (330) 
nan

>  <ATP_Site>  (330) 
nan

>  <Peripheral>  (330) 
nan

>  <Num_H_Atoms_ProtBoundConf>  (330) 
nan

>  <Num_Resolved_Atoms>  (330) 
nan

>  <Num_Not_Resolved_Atoms>  (330) 
nan

$$$$
CHEMBL376424
     RDKit          3D

  0  0  0  0  0  0  0  0  0  0999 V3000
M  V30 BEGIN CTAB
M  V30 COUNTS 41 43 0 0 0
M  V30 BEGIN ATOM
M  V30 1 C 1.734505 -6.200732 -0.345840 0
M  V30 2 N 0.674665 -5.457536 -0.998832 0
M  V30 3 C 0.615258 -4.453406 -2.002770 0
M  V30 4 N 0.509261 -4.815401 -3.300627 0
M  V30 5 C 0.454834 -3.871156 -4.243457 0
M  V30 6 C 0.501082 -2.528196 -3.965700 0
M  V30 7 C 0.609020 -2.184338 -2.637031 0
M  V30 8 C 0.673854 -0.797483 -2.128771 0
M  V30 9 C 0.643752 0.426294 -2.798802 0
M  V30 10 C 0.724987 1.534686 -2.015922 0
M  V30 11 C 0.825639 1.415900 -0.694998 0
M  V30 12 N 0.923657 2.491592 0.289345 0
M  V30 13 C 1.017621 2.120006 1.638210 0
M  V30 14 O 1.013119 0.905925 1.939873 0
M  V30 15 N 1.116851 3.084985 2.657318 0
M  V30 16 C 1.213682 2.699783 4.067671 0
M  V30 17 C 0.056290 1.929972 4.518072 0
M  V30 18 C 0.041380 0.566555 4.726623 0
M  V30 19 C -1.030106 -0.189905 5.150636 0
M  V30 20 C -2.198260 0.537787 5.380240 0
M  V30 21 Cl -3.594470 -0.397064 5.924537 0
M  V30 22 C -2.263703 1.903680 5.194684 0
M  V30 23 C -1.129140 2.597486 4.761808 0
M  V30 24 Cl -1.293816 4.334411 4.549137 0
M  V30 25 S 0.820802 -0.275983 -0.359677 0
M  V30 26 N 0.664583 -3.143385 -1.677630 0
M  V30 27 H 1.655613 -7.277050 -0.623985 0
M  V30 28 H 2.706037 -5.770452 -0.651288 0
M  V30 29 H 1.684314 -6.085972 0.776593 0
M  V30 30 H -0.303506 -5.677529 -0.692268 0
M  V30 31 H 0.370035 -4.074104 -5.314466 0
M  V30 32 H 0.470583 -1.662853 -4.583719 0
M  V30 33 H 0.558850 0.351386 -3.874254 0
M  V30 34 H 0.704812 2.525389 -2.500412 0
M  V30 35 H 0.919516 3.456622 -0.043787 0
M  V30 36 H 1.120332 4.097675 2.395511 0
M  V30 37 H 2.103558 2.014972 4.154951 0
M  V30 38 H 1.428973 3.582499 4.666424 0
M  V30 39 H 0.959735 0.012744 4.543780 0
M  V30 40 H -0.945067 -1.261009 5.285799 0
M  V30 41 H -3.206297 2.437154 5.388104 0
M  V30 END ATOM
M  V30 BEGIN BOND
M  V30 1 1 1 2
M  V30 2 1 2 3
M  V30 3 2 3 4
M  V30 4 1 4 5
M  V30 5 2 5 6
M  V30 6 1 6 7
M  V30 7 1 7 8
M  V30 8 2 8 9
M  V30 9 1 9 10
M  V30 10 2 10 11
M  V30 11 1 11 12
M  V30 12 1 12 13
M  V30 13 2 13 14
M  V30 14 1 13 15
M  V30 15 1 15 16
M  V30 16 1 16 17
M  V30 17 2 17 18
M  V30 18 1 18 19
M  V30 19 2 19 20
M  V30 20 1 20 21
M  V30 21 1 20 22
M  V30 22 2 22 23
M  V30 23 1 23 24
M  V30 24 1 11 25
M  V30 25 2 7 26
M  V30 26 1 26 3
M  V30 27 1 25 8
M  V30 28 1 23 17
M  V30 29 1 1 27
M  V30 30 1 1 28
M  V30 31 1 1 29
M  V30 32 1 2 30
M  V30 33 1 5 31
M  V30 34 1 6 32
M  V30 35 1 9 33
M  V30 36 1 10 34
M  V30 37 1 12 35
M  V30 38 1 15 36
M  V30 39 1 16 37
M  V30 40 1 16 38
M  V30 41 1 18 39
M  V30 42 1 19 40
M  V30 43 1 22 41
M  V30 END BOND
M  V30 END CTAB
M  END
>  <Dataset>  (331) 
ChEMBL_Kinases

>  <Ligand_Instance>  (331) 
nan

>  <PDB_ID>  (331) 
nan

>  <Standardized_SMILES>  (331) 
CNc1nccc(-c2ccc(NC(=O)NCc3ccc(Cl)cc3Cl)s2)n1

>  <Name>  (331) 
nan

>  <Pocket>  (331) 
nan

>  <ATP_Site>  (331) 
nan

>  <Peripheral>  (331) 
nan

>  <Num_H_Atoms_ProtBoundConf>  (331) 
nan

>  <Num_Resolved_Atoms>  (331) 
nan

>  <Num_Not_Resolved_Atoms>  (331) 
nan

$$$$
CHEMBL3702315
     RDKit          3D

  0  0  0  0  0  0  0  0  0  0999 V3000
M  V30 BEGIN CTAB
M  V30 COUNTS 58 60 0 0 0
M  V30 BEGIN ATOM
M  V30 1 C 0.910794 -0.032646 0.229378 0
M  V30 2 C 0.821163 1.446180 0.195831 0
M  V30 3 C 2.023174 2.100295 0.162240 0
M  V30 4 C 3.447709 1.856148 0.164179 0
M  V30 5 O 4.205924 2.883534 0.124267 0
M  V30 6 N 4.244078 0.683878 0.202433 0
M  V30 7 C 5.631338 0.442882 0.211979 0
M  V30 8 C 6.425714 0.975100 1.353786 0
M  V30 9 O 6.325611 2.342671 1.420096 0
M  V30 10 S 1.584380 3.807604 0.105007 0
M  V30 11 C -0.193407 3.600789 0.127934 0
M  V30 12 N -1.243511 4.456722 0.104423 0
M  V30 13 C -2.502860 3.996967 0.130948 0
M  V30 14 N -2.607838 2.668891 0.180690 0
M  V30 15 C -1.601959 1.791553 0.205475 0
M  V30 16 N -2.121555 0.478970 0.266316 0
M  V30 17 C -2.545213 -0.110048 1.493133 0
M  V30 18 C -2.442687 0.644234 2.670183 0
M  V30 19 C -2.824162 0.141636 3.884259 0
M  V30 20 C -3.317551 -1.139624 3.922796 0
M  V30 21 F -3.730501 -1.755608 5.058831 0
M  V30 22 C -3.418067 -1.879021 2.768256 0
M  V30 23 C -3.041149 -1.402133 1.521261 0
M  V30 24 O -3.098697 -2.053923 0.308622 0
M  V30 25 C -3.544089 -3.348544 0.059811 0
M  V30 26 C -4.825470 -3.295856 -0.777834 0
M  V30 27 C -2.549317 -4.213567 -0.626723 0
M  V30 28 O -2.722009 -5.433481 -0.964390 0
M  V30 29 N -1.245782 -3.745039 -0.991829 0
M  V30 30 C -0.339841 -4.661510 -1.659070 0
M  V30 31 C 0.983077 -3.980211 -1.962000 0
M  V30 32 N 1.624442 -3.526867 -0.761235 0
M  V30 33 C -0.298704 2.215791 0.178812 0
M  V30 34 H -0.045545 -0.562958 0.284339 0
M  V30 35 H 1.477615 -0.371078 1.130979 0
M  V30 36 H 1.505116 -0.415000 -0.656648 0
M  V30 37 H 3.627219 -0.182975 0.232724 0
M  V30 38 H 5.807990 -0.674099 0.212826 0
M  V30 39 H 6.065409 0.749413 -0.782547 0
M  V30 40 H 7.514513 0.707201 1.254474 0
M  V30 41 H 6.123625 0.470348 2.303647 0
M  V30 42 H 6.882399 2.782632 2.094183 0
M  V30 43 H -3.270001 4.748000 0.108889 0
M  V30 44 H -2.198300 -0.069545 -0.618560 0
M  V30 45 H -2.050220 1.657155 2.621257 0
M  V30 46 H -2.771216 0.662646 4.815064 0
M  V30 47 H -3.803862 -2.886123 2.780148 0
M  V30 48 H -3.842787 -3.852453 1.000657 0
M  V30 49 H -4.838925 -4.189874 -1.438296 0
M  V30 50 H -5.706818 -3.286875 -0.114951 0
M  V30 51 H -4.847719 -2.409918 -1.450570 0
M  V30 52 H -0.959510 -2.760347 -0.777047 0
M  V30 53 H -0.173926 -5.523582 -1.014383 0
M  V30 54 H -0.776729 -4.934357 -2.649352 0
M  V30 55 H 0.801630 -3.155346 -2.691490 0
M  V30 56 H 1.630097 -4.726850 -2.457004 0
M  V30 57 H 1.035605 -3.770651 0.062635 0
M  V30 58 H 2.545911 -3.998987 -0.671573 0
M  V30 END ATOM
M  V30 BEGIN BOND
M  V30 1 1 1 2
M  V30 2 2 2 3
M  V30 3 1 3 4
M  V30 4 2 4 5
M  V30 5 1 4 6
M  V30 6 1 6 7
M  V30 7 1 7 8
M  V30 8 1 8 9
M  V30 9 1 3 10
M  V30 10 1 10 11
M  V30 11 2 11 12
M  V30 12 1 12 13
M  V30 13 2 13 14
M  V30 14 1 14 15
M  V30 15 1 15 16
M  V30 16 1 16 17
M  V30 17 2 17 18
M  V30 18 1 18 19
M  V30 19 2 19 20
M  V30 20 1 20 21
M  V30 21 1 20 22
M  V30 22 2 22 23
M  V30 23 1 23 24
M  V30 24 1 24 25
M  V30 25 1 25 26
M  V30 26 1 25 27
M  V30 27 2 27 28
M  V30 28 1 27 29
M  V30 29 1 29 30
M  V30 30 1 30 31
M  V30 31 1 31 32
M  V30 32 2 15 33
M  V30 33 1 33 2
M  V30 34 1 33 11
M  V30 35 1 23 17
M  V30 36 1 1 34
M  V30 37 1 1 35
M  V30 38 1 1 36
M  V30 39 1 6 37
M  V30 40 1 7 38
M  V30 41 1 7 39
M  V30 42 1 8 40
M  V30 43 1 8 41
M  V30 44 1 9 42
M  V30 45 1 13 43
M  V30 46 1 16 44
M  V30 47 1 18 45
M  V30 48 1 19 46
M  V30 49 1 22 47
M  V30 50 1 25 48
M  V30 51 1 26 49
M  V30 52 1 26 50
M  V30 53 1 26 51
M  V30 54 1 29 52
M  V30 55 1 30 53
M  V30 56 1 30 54
M  V30 57 1 31 55
M  V30 58 1 31 56
M  V30 59 1 32 57
M  V30 60 1 32 58
M  V30 END BOND
M  V30 END CTAB
M  END
>  <Dataset>  (332) 
ChEMBL_Kinases

>  <Ligand_Instance>  (332) 
nan

>  <PDB_ID>  (332) 
nan

>  <Standardized_SMILES>  (332) 
Cc1c(C(=O)NCCO)sc2ncnc(Nc3ccc(F)cc3OC(C)C(=O)NCCN)c12

>  <Name>  (332) 
nan

>  <Pocket>  (332) 
nan

>  <ATP_Site>  (332) 
nan

>  <Peripheral>  (332) 
nan

>  <Num_H_Atoms_ProtBoundConf>  (332) 
nan

>  <Num_Resolved_Atoms>  (332) 
nan

>  <Num_Not_Resolved_Atoms>  (332) 
nan

$$$$
CHEMBL3764107
     RDKit          3D

  0  0  0  0  0  0  0  0  0  0999 V3000
M  V30 BEGIN CTAB
M  V30 COUNTS 60 64 0 0 0
M  V30 BEGIN ATOM
M  V30 1 F 5.114442 -0.667719 4.498462 0
M  V30 2 C 4.369230 -0.901677 3.345563 0
M  V30 3 F 3.068574 -0.534009 3.681466 0
M  V30 4 F 4.353315 -2.237017 3.105801 0
M  V30 5 O 4.906188 -0.099330 2.336849 0
M  V30 6 C 4.453955 -0.038876 1.036692 0
M  V30 7 C 4.841769 -0.781623 -0.037439 0
M  V30 8 C 4.308261 -0.626186 -1.297991 0
M  V30 9 C 3.337115 0.300424 -1.556755 0
M  V30 10 C 2.937415 1.058074 -0.471897 0
M  V30 11 N 1.919806 2.041738 -0.617369 0
M  V30 12 C 1.397916 3.010072 0.287580 0
M  V30 13 N 1.736420 4.332793 0.322407 0
M  V30 14 N 1.181810 5.140188 1.212783 0
M  V30 15 N 0.288206 4.744778 2.107688 0
M  V30 16 C -0.115485 3.460548 2.160586 0
M  V30 17 C -1.043193 3.006411 3.086550 0
M  V30 18 C -1.370611 1.652532 3.042727 0
M  V30 19 C -0.787602 0.818520 2.113812 0
M  V30 20 N -1.084524 -0.568915 2.019552 0
M  V30 21 C -2.216619 -1.246988 2.619059 0
M  V30 22 C -3.105256 -1.726651 1.484510 0
M  V30 23 C -2.397897 -1.694594 0.166485 0
M  V30 24 N -3.133438 -2.351174 -0.848050 0
M  V30 25 C -3.419057 -3.723570 -0.624694 0
M  V30 26 C -3.095356 -4.660527 -1.736672 0
M  V30 27 C -1.790513 -4.296985 -2.411067 0
M  V30 28 C -1.859285 -2.884334 -2.912428 0
M  V30 29 C -2.780933 -1.980910 -2.185686 0
M  V30 30 C -0.985598 -2.230568 0.260629 0
M  V30 31 C -0.172859 -1.441780 1.263336 0
M  V30 32 N 0.106892 1.335047 1.244455 0
M  V30 33 C 0.462009 2.618639 1.233319 0
M  V30 34 C 3.461851 0.921585 0.816103 0
M  V30 35 H 5.623789 -1.529577 0.167580 0
M  V30 36 H 4.647073 -1.238925 -2.129930 0
M  V30 37 H 2.900486 0.444842 -2.539121 0
M  V30 38 H 1.426022 2.122100 -1.534985 0
M  V30 39 H -1.478779 3.699028 3.803929 0
M  V30 40 H -2.087835 1.255933 3.748729 0
M  V30 41 H -2.740857 -0.642234 3.371019 0
M  V30 42 H -1.810921 -2.163020 3.109766 0
M  V30 43 H -3.530623 -2.730029 1.737381 0
M  V30 44 H -3.981695 -1.030846 1.458136 0
M  V30 45 H -2.338264 -0.606526 -0.124079 0
M  V30 46 H -2.966618 -4.101447 0.334931 0
M  V30 47 H -4.529482 -3.832978 -0.442092 0
M  V30 48 H -3.008641 -5.692726 -1.349989 0
M  V30 49 H -3.910013 -4.602440 -2.501775 0
M  V30 50 H -0.968654 -4.469325 -1.694639 0
M  V30 51 H -1.644816 -5.013081 -3.247251 0
M  V30 52 H -0.823006 -2.492254 -3.055109 0
M  V30 53 H -2.256111 -2.953568 -3.969361 0
M  V30 54 H -3.704279 -1.720701 -2.739020 0
M  V30 55 H -2.231980 -0.992783 -2.087957 0
M  V30 56 H -0.505950 -2.092522 -0.710914 0
M  V30 57 H -0.994021 -3.296147 0.508399 0
M  V30 58 H 0.606920 -0.835712 0.793610 0
M  V30 59 H 0.288773 -2.139116 1.981556 0
M  V30 60 H 3.089207 1.561176 1.629691 0
M  V30 END ATOM
M  V30 BEGIN BOND
M  V30 1 1 1 2
M  V30 2 1 2 3
M  V30 3 1 2 4
M  V30 4 1 2 5
M  V30 5 1 5 6
M  V30 6 2 6 7
M  V30 7 1 7 8
M  V30 8 2 8 9
M  V30 9 1 9 10
M  V30 10 1 10 11
M  V30 11 1 11 12
M  V30 12 2 12 13
M  V30 13 1 13 14
M  V30 14 2 14 15
M  V30 15 1 15 16
M  V30 16 2 16 17
M  V30 17 1 17 18
M  V30 18 2 18 19
M  V30 19 1 19 20
M  V30 20 1 20 21
M  V30 21 1 21 22
M  V30 22 1 22 23
M  V30 23 1 23 24
M  V30 24 1 24 25
M  V30 25 1 25 26
M  V30 26 1 26 27
M  V30 27 1 27 28
M  V30 28 1 28 29
M  V30 29 1 23 30
M  V30 30 1 30 31
M  V30 31 1 19 32
M  V30 32 2 32 33
M  V30 33 2 10 34
M  V30 34 1 34 6
M  V30 35 1 33 12
M  V30 36 1 33 16
M  V30 37 1 31 20
M  V30 38 1 29 24
M  V30 39 1 7 35
M  V30 40 1 8 36
M  V30 41 1 9 37
M  V30 42 1 11 38
M  V30 43 1 17 39
M  V30 44 1 18 40
M  V30 45 1 21 41
M  V30 46 1 21 42
M  V30 47 1 22 43
M  V30 48 1 22 44
M  V30 49 1 23 45
M  V30 50 1 25 46
M  V30 51 1 25 47
M  V30 52 1 26 48
M  V30 53 1 26 49
M  V30 54 1 27 50
M  V30 55 1 27 51
M  V30 56 1 28 52
M  V30 57 1 28 53
M  V30 58 1 29 54
M  V30 59 1 29 55
M  V30 60 1 30 56
M  V30 61 1 30 57
M  V30 62 1 31 58
M  V30 63 1 31 59
M  V30 64 1 34 60
M  V30 END BOND
M  V30 END CTAB
M  END
>  <Dataset>  (333) 
ChEMBL_Kinases

>  <Ligand_Instance>  (333) 
nan

>  <PDB_ID>  (333) 
nan

>  <Standardized_SMILES>  (333) 
FC(F)(F)Oc1cccc(Nc2nnnc3ccc(N4CCC(N5CCCCC5)CC4)nc23)c1

>  <Name>  (333) 
nan

>  <Pocket>  (333) 
nan

>  <ATP_Site>  (333) 
nan

>  <Peripheral>  (333) 
nan

>  <Num_H_Atoms_ProtBoundConf>  (333) 
nan

>  <Num_Resolved_Atoms>  (333) 
nan

>  <Num_Not_Resolved_Atoms>  (333) 
nan

$$$$
CHEMBL3764036
     RDKit          3D

  0  0  0  0  0  0  0  0  0  0999 V3000
M  V30 BEGIN CTAB
M  V30 COUNTS 47 50 0 0 0
M  V30 BEGIN ATOM
M  V30 1 C -1.575799 -1.670370 -0.638342 0
M  V30 2 N -0.633632 -2.666292 -0.212067 0
M  V30 3 C 0.195202 -3.181383 -1.227732 0
M  V30 4 C 1.680914 -2.962322 -1.068803 0
M  V30 5 N 1.780679 -1.803697 -0.166463 0
M  V30 6 C 2.231735 -0.486970 -0.510264 0
M  V30 7 C 3.391456 -0.055890 -1.118251 0
M  V30 8 C 3.556996 1.282592 -1.348312 0
M  V30 9 C 2.548071 2.141242 -0.960475 0
M  V30 10 N 2.731453 3.446077 -1.188131 0
M  V30 11 N 1.790317 4.306948 -0.826131 0
M  V30 12 N 0.657246 3.947734 -0.241299 0
M  V30 13 C 0.385060 2.647802 0.026749 0
M  V30 14 N -0.745331 2.036572 0.615312 0
M  V30 15 C -0.875439 1.394119 1.875337 0
M  V30 16 C 0.221802 1.407258 2.694571 0
M  V30 17 C 0.075289 0.749826 3.894565 0
M  V30 18 C -1.128461 0.122770 4.221615 0
M  V30 19 C -2.209914 0.155050 3.326875 0
M  V30 20 O -3.282799 -0.533092 3.877958 0
M  V30 21 C -3.479592 -1.923515 3.673420 0
M  V30 22 F -4.616369 -2.283785 4.366705 0
M  V30 23 F -3.686031 -2.242532 2.358431 0
M  V30 24 F -2.440078 -2.694800 4.139930 0
M  V30 25 C -2.068119 0.809701 2.127450 0
M  V30 26 C 1.378798 1.738006 -0.353418 0
M  V30 27 N 1.297224 0.399444 -0.160643 0
M  V30 28 C 1.356164 -2.214054 1.185395 0
M  V30 29 C -0.106912 -2.490910 1.081933 0
M  V30 30 H -2.288770 -1.462864 0.187062 0
M  V30 31 H -2.164724 -2.060902 -1.506094 0
M  V30 32 H -1.132530 -0.699226 -0.914135 0
M  V30 33 H -0.042652 -4.244838 -1.405036 0
M  V30 34 H -0.096290 -2.643695 -2.180073 0
M  V30 35 H 2.188507 -2.773077 -2.017851 0
M  V30 36 H 2.114061 -3.842916 -0.588761 0
M  V30 37 H 4.046416 -0.889613 -1.342275 0
M  V30 38 H 4.470580 1.555891 -1.816950 0
M  V30 39 H -1.527206 2.155256 -0.088052 0
M  V30 40 H 1.126608 1.920672 2.373632 0
M  V30 41 H 0.946540 0.747035 4.560748 0
M  V30 42 H -1.072696 -0.345243 5.193406 0
M  V30 43 H -2.962853 0.761143 1.538668 0
M  V30 44 H 1.931623 -3.109642 1.492354 0
M  V30 45 H 1.609551 -1.410529 1.890204 0
M  V30 46 H -0.362286 -3.356116 1.726447 0
M  V30 47 H -0.623721 -1.621137 1.572387 0
M  V30 END ATOM
M  V30 BEGIN BOND
M  V30 1 1 1 2
M  V30 2 1 2 3
M  V30 3 1 3 4
M  V30 4 1 4 5
M  V30 5 1 5 6
M  V30 6 2 6 7
M  V30 7 1 7 8
M  V30 8 2 8 9
M  V30 9 1 9 10
M  V30 10 2 10 11
M  V30 11 1 11 12
M  V30 12 2 12 13
M  V30 13 1 13 14
M  V30 14 1 14 15
M  V30 15 2 15 16
M  V30 16 1 16 17
M  V30 17 2 17 18
M  V30 18 1 18 19
M  V30 19 1 19 20
M  V30 20 1 20 21
M  V30 21 1 21 22
M  V30 22 1 21 23
M  V30 23 1 21 24
M  V30 24 2 19 25
M  V30 25 1 13 26
M  V30 26 2 26 27
M  V30 27 1 5 28
M  V30 28 1 28 29
M  V30 29 1 29 2
M  V30 30 1 27 6
M  V30 31 1 26 9
M  V30 32 1 25 15
M  V30 33 1 1 30
M  V30 34 1 1 31
M  V30 35 1 1 32
M  V30 36 1 3 33
M  V30 37 1 3 34
M  V30 38 1 4 35
M  V30 39 1 4 36
M  V30 40 1 7 37
M  V30 41 1 8 38
M  V30 42 1 14 39
M  V30 43 1 16 40
M  V30 44 1 17 41
M  V30 45 1 18 42
M  V30 46 1 25 43
M  V30 47 1 28 44
M  V30 48 1 28 45
M  V30 49 1 29 46
M  V30 50 1 29 47
M  V30 END BOND
M  V30 END CTAB
M  END
>  <Dataset>  (334) 
ChEMBL_Kinases

>  <Ligand_Instance>  (334) 
nan

>  <PDB_ID>  (334) 
nan

>  <Standardized_SMILES>  (334) 
CN1CCN(c2ccc3nnnc(Nc4cccc(OC(F)(F)F)c4)c3n2)CC1

>  <Name>  (334) 
nan

>  <Pocket>  (334) 
nan

>  <ATP_Site>  (334) 
nan

>  <Peripheral>  (334) 
nan

>  <Num_H_Atoms_ProtBoundConf>  (334) 
nan

>  <Num_Resolved_Atoms>  (334) 
nan

>  <Num_Not_Resolved_Atoms>  (334) 
nan

$$$$
CHEMBL3765468
     RDKit          3D

  0  0  0  0  0  0  0  0  0  0999 V3000
M  V30 BEGIN CTAB
M  V30 COUNTS 43 46 0 0 0
M  V30 BEGIN ATOM
M  V30 1 F 5.017123 -0.518270 5.126783 0
M  V30 2 C 4.028198 -0.568635 4.156137 0
M  V30 3 F 2.989097 0.228326 4.589013 0
M  V30 4 F 3.640781 -1.906548 4.085261 0
M  V30 5 O 4.526758 -0.097264 2.926933 0
M  V30 6 C 3.732248 -0.044016 1.797465 0
M  V30 7 C 3.689678 -1.136265 0.965326 0
M  V30 8 C 2.886493 -1.075884 -0.175722 0
M  V30 9 C 2.155968 0.086388 -0.433736 0
M  V30 10 C 2.208698 1.189558 0.422031 0
M  V30 11 N 1.406522 2.277658 0.032023 0
M  V30 12 C 0.134175 2.545016 -0.468174 0
M  V30 13 N -0.158089 3.766154 -0.928592 0
M  V30 14 N -1.327543 4.077441 -1.404739 0
M  V30 15 N -2.335210 3.226367 -1.480349 0
M  V30 16 C -2.157392 1.964630 -1.043383 0
M  V30 17 C -3.171268 1.033308 -1.081499 0
M  V30 18 C -2.946784 -0.248413 -0.607167 0
M  V30 19 C -1.676935 -0.552762 -0.098287 0
M  V30 20 N -1.295405 -1.834557 0.424527 0
M  V30 21 C -0.116980 -1.953291 1.290156 0
M  V30 22 C -0.610718 -2.523621 2.613856 0
M  V30 23 O -1.483888 -3.590437 2.424706 0
M  V30 24 C -1.416212 -4.109932 1.137454 0
M  V30 25 C -1.976963 -3.077844 0.162644 0
M  V30 26 N -0.761623 0.404471 -0.101495 0
M  V30 27 C -0.910000 1.649314 -0.540523 0
M  V30 28 C 3.010517 1.093107 1.535746 0
M  V30 29 H 4.285095 -2.015083 1.223647 0
M  V30 30 H 2.917404 -1.971405 -0.761491 0
M  V30 31 H 1.613226 -0.064123 -1.362770 0
M  V30 32 H 2.042304 3.109119 0.204413 0
M  V30 33 H -4.149264 1.283172 -1.477644 0
M  V30 34 H -3.669906 -1.027761 -0.597597 0
M  V30 35 H 0.343225 -0.988598 1.508195 0
M  V30 36 H 0.613055 -2.665418 0.881052 0
M  V30 37 H 0.250203 -2.838003 3.233708 0
M  V30 38 H -1.092712 -1.686818 3.179380 0
M  V30 39 H -2.090727 -4.970920 1.076856 0
M  V30 40 H -0.394794 -4.434276 0.838047 0
M  V30 41 H -1.734450 -3.416509 -0.875079 0
M  V30 42 H -3.055971 -2.972508 0.327196 0
M  V30 43 H 3.017028 1.975748 2.164482 0
M  V30 END ATOM
M  V30 BEGIN BOND
M  V30 1 1 1 2
M  V30 2 1 2 3
M  V30 3 1 2 4
M  V30 4 1 2 5
M  V30 5 1 5 6
M  V30 6 2 6 7
M  V30 7 1 7 8
M  V30 8 2 8 9
M  V30 9 1 9 10
M  V30 10 1 10 11
M  V30 11 1 11 12
M  V30 12 2 12 13
M  V30 13 1 13 14
M  V30 14 2 14 15
M  V30 15 1 15 16
M  V30 16 2 16 17
M  V30 17 1 17 18
M  V30 18 2 18 19
M  V30 19 1 19 20
M  V30 20 1 20 21
M  V30 21 1 21 22
M  V30 22 1 22 23
M  V30 23 1 23 24
M  V30 24 1 24 25
M  V30 25 1 19 26
M  V30 26 2 26 27
M  V30 27 2 10 28
M  V30 28 1 28 6
M  V30 29 1 27 12
M  V30 30 1 27 16
M  V30 31 1 25 20
M  V30 32 1 7 29
M  V30 33 1 8 30
M  V30 34 1 9 31
M  V30 35 1 11 32
M  V30 36 1 17 33
M  V30 37 1 18 34
M  V30 38 1 21 35
M  V30 39 1 21 36
M  V30 40 1 22 37
M  V30 41 1 22 38
M  V30 42 1 24 39
M  V30 43 1 24 40
M  V30 44 1 25 41
M  V30 45 1 25 42
M  V30 46 1 28 43
M  V30 END BOND
M  V30 END CTAB
M  END
>  <Dataset>  (335) 
ChEMBL_Kinases

>  <Ligand_Instance>  (335) 
nan

>  <PDB_ID>  (335) 
nan

>  <Standardized_SMILES>  (335) 
FC(F)(F)Oc1cccc(Nc2nnnc3ccc(N4CCOCC4)nc23)c1

>  <Name>  (335) 
nan

>  <Pocket>  (335) 
nan

>  <ATP_Site>  (335) 
nan

>  <Peripheral>  (335) 
nan

>  <Num_H_Atoms_ProtBoundConf>  (335) 
nan

>  <Num_Resolved_Atoms>  (335) 
nan

>  <Num_Not_Resolved_Atoms>  (335) 
nan

$$$$
CHEMBL4063921
     RDKit          3D

  0  0  0  0  0  0  0  0  0  0999 V3000
M  V30 BEGIN CTAB
M  V30 COUNTS 55 59 0 0 0
M  V30 BEGIN ATOM
M  V30 1 C 7.920072 -0.244847 5.141895 0
M  V30 2 N 7.004274 -0.272232 4.022946 0
M  V30 3 C 7.172249 -0.560098 2.649107 0
M  V30 4 O 8.312046 -0.866453 2.205623 0
M  V30 5 C 6.059613 -0.514371 1.717685 0
M  V30 6 C 6.326939 -0.807682 0.397154 0
M  V30 7 C 5.284018 -0.770725 -0.524443 0
M  V30 8 C 3.998862 -0.448620 -0.142566 0
M  V30 9 N 2.814672 -0.334021 -0.804429 0
M  V30 10 C 1.829090 0.014930 0.039608 0
M  V30 11 C 0.404750 0.260969 -0.181041 0
M  V30 12 C -0.469152 0.623780 0.825916 0
M  V30 13 C -1.807411 0.847205 0.557637 0
M  V30 14 C -2.328768 0.715359 -0.739145 0
M  V30 15 O -3.679661 0.986542 -0.761741 0
M  V30 16 C -4.705105 0.104623 -0.588864 0
M  V30 17 C -6.024691 0.517796 -0.633859 0
M  V30 18 N -6.636712 1.805366 -0.844005 0 CHG=1 VAL=4
M  V30 19 O -6.693539 2.407513 -1.952934 0
M  V30 20 O -7.236161 2.521789 0.182147 0 CHG=-1 VAL=1
M  V30 21 C -6.843204 -0.570976 -0.429388 0
M  V30 22 C -8.302908 -0.824384 -0.356285 0
M  V30 23 N -6.011306 -1.633690 -0.262465 0
M  V30 24 N -4.757863 -1.219566 -0.359108 0
M  V30 25 C -3.609035 -2.044544 -0.240279 0
M  V30 26 C -2.954261 -2.318316 0.944281 0
M  V30 27 C -1.842958 -3.126965 1.019804 0
M  V30 28 C -1.403571 -3.662975 -0.167235 0
M  V30 29 C -2.016747 -3.425278 -1.382187 0
M  V30 30 C -3.145934 -2.599969 -1.438182 0
M  V30 31 C -1.426333 0.352170 -1.714079 0
M  V30 32 C -0.091711 0.125274 -1.469296 0
M  V30 33 N 2.392908 0.127243 1.272757 0
M  V30 34 C 3.706517 -0.147793 1.192919 0
M  V30 35 C 4.768073 -0.195240 2.076637 0
M  V30 36 H 7.645539 -1.005848 5.926030 0
M  V30 37 H 8.960427 -0.505515 4.846770 0
M  V30 38 H 7.914936 0.736871 5.684745 0
M  V30 39 H 6.079105 -0.014252 4.433604 0
M  V30 40 H 7.307525 -1.067977 0.023406 0
M  V30 41 H 5.446697 -0.994908 -1.578890 0
M  V30 42 H 2.659544 -0.489744 -1.827859 0
M  V30 43 H -0.042301 0.718081 1.817144 0
M  V30 44 H -2.378630 1.127937 1.450886 0
M  V30 45 H -8.552228 -1.520940 0.477872 0
M  V30 46 H -8.676315 -1.320809 -1.291933 0
M  V30 47 H -8.898059 0.088199 -0.168606 0
M  V30 48 H -3.416940 -1.821730 1.809153 0
M  V30 49 H -1.388251 -3.291769 1.985219 0
M  V30 50 H -0.530462 -4.303352 -0.138666 0
M  V30 51 H -1.656047 -3.856028 -2.303612 0
M  V30 52 H -3.640268 -2.400744 -2.378522 0
M  V30 53 H -1.937155 0.277349 -2.688238 0
M  V30 54 H 0.499515 -0.154652 -2.335607 0
M  V30 55 H 4.541400 0.037083 3.109764 0
M  V30 END ATOM
M  V30 BEGIN BOND
M  V30 1 1 1 2
M  V30 2 1 2 3
M  V30 3 2 3 4
M  V30 4 1 3 5
M  V30 5 2 5 6
M  V30 6 1 6 7
M  V30 7 2 7 8
M  V30 8 1 8 9
M  V30 9 1 9 10
M  V30 10 1 10 11
M  V30 11 2 11 12
M  V30 12 1 12 13
M  V30 13 2 13 14
M  V30 14 1 14 15
M  V30 15 1 15 16
M  V30 16 2 16 17
M  V30 17 1 17 18
M  V30 18 2 18 19
M  V30 19 1 18 20
M  V30 20 1 17 21
M  V30 21 1 21 22
M  V30 22 2 21 23
M  V30 23 1 23 24
M  V30 24 1 24 25
M  V30 25 2 25 26
M  V30 26 1 26 27
M  V30 27 2 27 28
M  V30 28 1 28 29
M  V30 29 2 29 30
M  V30 30 1 14 31
M  V30 31 2 31 32
M  V30 32 2 10 33
M  V30 33 1 33 34
M  V30 34 2 34 35
M  V30 35 1 35 5
M  V30 36 1 34 8
M  V30 37 1 32 11
M  V30 38 1 24 16
M  V30 39 1 30 25
M  V30 40 1 1 36
M  V30 41 1 1 37
M  V30 42 1 1 38
M  V30 43 1 2 39
M  V30 44 1 6 40
M  V30 45 1 7 41
M  V30 46 1 9 42
M  V30 47 1 12 43
M  V30 48 1 13 44
M  V30 49 1 22 45
M  V30 50 1 22 46
M  V30 51 1 22 47
M  V30 52 1 26 48
M  V30 53 1 27 49
M  V30 54 1 28 50
M  V30 55 1 29 51
M  V30 56 1 30 52
M  V30 57 1 31 53
M  V30 58 1 32 54
M  V30 59 1 35 55
M  V30 END BOND
M  V30 END CTAB
M  END
>  <Dataset>  (336) 
ChEMBL_Kinases

>  <Ligand_Instance>  (336) 
nan

>  <PDB_ID>  (336) 
nan

>  <Standardized_SMILES>  (336) 
CNC(=O)c1ccc2[nH]c(-c3ccc(Oc4c([N+](=O)[O-])c(C)nn4-c4ccccc4)cc3)nc2c1

>  <Name>  (336) 
nan

>  <Pocket>  (336) 
nan

>  <ATP_Site>  (336) 
nan

>  <Peripheral>  (336) 
nan

>  <Num_H_Atoms_ProtBoundConf>  (336) 
nan

>  <Num_Resolved_Atoms>  (336) 
nan

>  <Num_Not_Resolved_Atoms>  (336) 
nan

$$$$
CHEMBL3763975
     RDKit          3D

  0  0  0  0  0  0  0  0  0  0999 V3000
M  V30 BEGIN CTAB
M  V30 COUNTS 48 51 0 0 0
M  V30 BEGIN ATOM
M  V30 1 C 0.502840 -1.720051 0.379331 0
M  V30 2 C 1.877604 -1.907753 0.984774 0
M  V30 3 C 1.663403 -2.714422 2.241652 0
M  V30 4 C 2.816261 -2.745321 3.178798 0
M  V30 5 C 3.456412 -1.375199 3.286817 0
M  V30 6 C 3.839039 -0.996348 1.870625 0
M  V30 7 N 2.616628 -0.703762 1.159029 0
M  V30 8 C 2.203209 0.566802 0.701840 0
M  V30 9 C 2.920297 1.726019 0.892682 0
M  V30 10 C 2.529375 2.975699 0.450655 0
M  V30 11 C 1.328539 3.077335 -0.235864 0
M  V30 12 N 0.848848 4.232764 -0.710360 0
M  V30 13 N -0.322207 4.248351 -1.364845 0
M  V30 14 N -1.025215 3.119893 -1.553359 0
M  V30 15 C -0.561426 1.927280 -1.081035 0
M  V30 16 N -1.405103 0.820002 -1.351613 0
M  V30 17 C -2.463357 0.292109 -0.575746 0
M  V30 18 C -2.741031 0.919030 0.618885 0
M  V30 19 C -3.792204 0.360305 1.345184 0
M  V30 20 C -4.480944 -0.738364 0.872570 0
M  V30 21 C -4.152438 -1.331057 -0.347856 0
M  V30 22 O -4.862080 -2.437042 -0.801126 0
M  V30 23 C -4.372729 -3.711701 -0.418111 0
M  V30 24 F -3.078127 -3.931011 -0.870155 0
M  V30 25 F -4.316271 -3.752221 0.971304 0
M  V30 26 F -5.159672 -4.730755 -0.898902 0
M  V30 27 C -3.102774 -0.792333 -1.097970 0
M  V30 28 C 0.643200 1.895392 -0.404941 0
M  V30 29 N 1.049438 0.714147 0.033312 0
M  V30 30 H -0.158011 -1.092235 0.982074 0
M  V30 31 H 0.020681 -2.744094 0.404686 0
M  V30 32 H 0.526489 -1.478002 -0.704158 0
M  V30 33 H 2.459815 -2.551295 0.275810 0
M  V30 34 H 0.777899 -2.304228 2.767636 0
M  V30 35 H 1.417698 -3.761129 1.955660 0
M  V30 36 H 3.552574 -3.532142 2.944170 0
M  V30 37 H 2.415599 -2.971225 4.196139 0
M  V30 38 H 2.663416 -0.678601 3.626912 0
M  V30 39 H 4.307852 -1.409871 3.965345 0
M  V30 40 H 4.518824 -0.138025 1.928471 0
M  V30 41 H 4.377715 -1.888271 1.433256 0
M  V30 42 H 3.862343 1.705992 1.420893 0
M  V30 43 H 3.121105 3.868403 0.619594 0
M  V30 44 H -1.081006 0.453587 -2.273267 0
M  V30 45 H -2.230067 1.766046 1.010863 0
M  V30 46 H -4.133120 0.736084 2.301873 0
M  V30 47 H -5.311777 -1.205448 1.413667 0
M  V30 48 H -2.823519 -1.230550 -2.050470 0
M  V30 END ATOM
M  V30 BEGIN BOND
M  V30 1 1 1 2
M  V30 2 1 2 3
M  V30 3 1 3 4
M  V30 4 1 4 5
M  V30 5 1 5 6
M  V30 6 1 6 7
M  V30 7 1 7 8
M  V30 8 2 8 9
M  V30 9 1 9 10
M  V30 10 2 10 11
M  V30 11 1 11 12
M  V30 12 2 12 13
M  V30 13 1 13 14
M  V30 14 2 14 15
M  V30 15 1 15 16
M  V30 16 1 16 17
M  V30 17 2 17 18
M  V30 18 1 18 19
M  V30 19 2 19 20
M  V30 20 1 20 21
M  V30 21 1 21 22
M  V30 22 1 22 23
M  V30 23 1 23 24
M  V30 24 1 23 25
M  V30 25 1 23 26
M  V30 26 2 21 27
M  V30 27 1 15 28
M  V30 28 2 28 29
M  V30 29 1 7 2
M  V30 30 1 29 8
M  V30 31 1 28 11
M  V30 32 1 27 17
M  V30 33 1 1 30
M  V30 34 1 1 31
M  V30 35 1 1 32
M  V30 36 1 2 33
M  V30 37 1 3 34
M  V30 38 1 3 35
M  V30 39 1 4 36
M  V30 40 1 4 37
M  V30 41 1 5 38
M  V30 42 1 5 39
M  V30 43 1 6 40
M  V30 44 1 6 41
M  V30 45 1 9 42
M  V30 46 1 10 43
M  V30 47 1 16 44
M  V30 48 1 18 45
M  V30 49 1 19 46
M  V30 50 1 20 47
M  V30 51 1 27 48
M  V30 END BOND
M  V30 END CTAB
M  END
>  <Dataset>  (337) 
ChEMBL_Kinases

>  <Ligand_Instance>  (337) 
nan

>  <PDB_ID>  (337) 
nan

>  <Standardized_SMILES>  (337) 
CC1CCCCN1c1ccc2nnnc(Nc3cccc(OC(F)(F)F)c3)c2n1

>  <Name>  (337) 
nan

>  <Pocket>  (337) 
nan

>  <ATP_Site>  (337) 
nan

>  <Peripheral>  (337) 
nan

>  <Num_H_Atoms_ProtBoundConf>  (337) 
nan

>  <Num_Resolved_Atoms>  (337) 
nan

>  <Num_Not_Resolved_Atoms>  (337) 
nan

$$$$
CHEMBL3763944
     RDKit          3D

  0  0  0  0  0  0  0  0  0  0999 V3000
M  V30 BEGIN CTAB
M  V30 COUNTS 56 58 0 0 0
M  V30 BEGIN ATOM
M  V30 1 C 4.165925 -3.245697 -4.863656 0
M  V30 2 O 5.486926 -2.770530 -4.991158 0
M  V30 3 C 6.069065 -1.823351 -4.163825 0
M  V30 4 C 5.462204 -1.197778 -3.094592 0
M  V30 5 C 6.136121 -0.268217 -2.337022 0
M  V30 6 C 5.517057 0.407694 -1.201483 0
M  V30 7 C 4.283037 0.217971 -0.782004 0
M  V30 8 C 3.742745 0.954070 0.384837 0
M  V30 9 O 4.583013 1.847578 1.027161 0
M  V30 10 C 2.505074 0.728325 0.753422 0
M  V30 11 C 1.967895 1.445768 1.898862 0
M  V30 12 O 2.772042 2.247175 2.453005 0
M  V30 13 C 0.618436 1.308472 2.429466 0
M  V30 14 C -0.307799 0.505902 1.934672 0
M  V30 15 C -1.659221 0.331751 2.422016 0
M  V30 16 C -2.078160 1.062209 3.524650 0
M  V30 17 C -3.380523 0.815526 3.898200 0
M  V30 18 C -4.252065 -0.046750 3.302474 0
M  V30 19 O -5.440652 -0.217489 3.709022 0
M  V30 20 C -6.663030 -0.375853 4.148070 0
M  V30 21 C -7.511533 -1.370999 3.379779 0
M  V30 22 C -7.536103 -2.692076 3.742459 0
M  V30 23 C -8.274252 -3.675116 3.110253 0
M  V30 24 C -9.036503 -3.271546 2.034882 0
M  V30 25 C -9.028831 -1.954359 1.652129 0
M  V30 26 C -8.291437 -0.980678 2.286232 0
M  V30 27 C -3.768025 -0.746159 2.204227 0
M  V30 28 C -2.470365 -0.561928 1.757224 0
M  V30 29 C 7.441975 0.033032 -2.665030 0
M  V30 30 C 8.075818 -0.580455 -3.734195 0
M  V30 31 C 7.387476 -1.510725 -4.484968 0
M  V30 32 O 8.072199 -2.100971 -5.552715 0
M  V30 33 H 3.502945 -2.434638 -4.480699 0
M  V30 34 H 3.764374 -3.596294 -5.852678 0
M  V30 35 H 4.100017 -4.120066 -4.174306 0
M  V30 36 H 4.454900 -1.477262 -2.896199 0
M  V30 37 H 6.072754 1.122817 -0.637848 0
M  V30 38 H 3.662093 -0.493736 -1.310704 0
M  V30 39 H 4.551424 2.838482 0.897965 0
M  V30 40 H 1.910722 0.014349 0.198568 0
M  V30 41 H 0.345980 1.902589 3.291184 0
M  V30 42 H 0.068424 -0.044110 1.073567 0
M  V30 43 H -1.486768 1.765934 4.072106 0
M  V30 44 H -3.743926 1.377830 4.767985 0
M  V30 45 H -7.294111 0.555980 4.203146 0
M  V30 46 H -6.736760 -0.771304 5.216340 0
M  V30 47 H -6.931023 -3.004588 4.592962 0
M  V30 48 H -8.240150 -4.706460 3.460935 0
M  V30 49 H -9.637334 -3.986374 1.495428 0
M  V30 50 H -9.605860 -1.572233 0.814754 0
M  V30 51 H -8.246487 0.065319 2.031305 0
M  V30 52 H -4.384172 -1.451938 1.666168 0
M  V30 53 H -2.099918 -1.119155 0.890849 0
M  V30 54 H 7.978653 0.763526 -2.072914 0
M  V30 55 H 9.117585 -0.333808 -3.988217 0
M  V30 56 H 8.911639 -2.615520 -5.319243 0
M  V30 END ATOM
M  V30 BEGIN BOND
M  V30 1 1 1 2
M  V30 2 1 2 3
M  V30 3 2 3 4
M  V30 4 1 4 5
M  V30 5 1 5 6
M  V30 6 2 6 7
M  V30 7 1 7 8
M  V30 8 1 8 9
M  V30 9 2 8 10
M  V30 10 1 10 11
M  V30 11 2 11 12
M  V30 12 1 11 13
M  V30 13 2 13 14
M  V30 14 1 14 15
M  V30 15 2 15 16
M  V30 16 1 16 17
M  V30 17 2 17 18
M  V30 18 1 18 19
M  V30 19 1 19 20
M  V30 20 1 20 21
M  V30 21 2 21 22
M  V30 22 1 22 23
M  V30 23 2 23 24
M  V30 24 1 24 25
M  V30 25 2 25 26
M  V30 26 1 18 27
M  V30 27 2 27 28
M  V30 28 2 5 29
M  V30 29 1 29 30
M  V30 30 2 30 31
M  V30 31 1 31 32
M  V30 32 1 31 3
M  V30 33 1 28 15
M  V30 34 1 26 21
M  V30 35 1 1 33
M  V30 36 1 1 34
M  V30 37 1 1 35
M  V30 38 1 4 36
M  V30 39 1 6 37
M  V30 40 1 7 38
M  V30 41 1 9 39
M  V30 42 1 10 40
M  V30 43 1 13 41
M  V30 44 1 14 42
M  V30 45 1 16 43
M  V30 46 1 17 44
M  V30 47 1 20 45
M  V30 48 1 20 46
M  V30 49 1 22 47
M  V30 50 1 23 48
M  V30 51 1 24 49
M  V30 52 1 25 50
M  V30 53 1 26 51
M  V30 54 1 27 52
M  V30 55 1 28 53
M  V30 56 1 29 54
M  V30 57 1 30 55
M  V30 58 1 32 56
M  V30 END BOND
M  V30 END CTAB
M  END
>  <Dataset>  (338) 
ChEMBL_Kinases

>  <Ligand_Instance>  (338) 
nan

>  <PDB_ID>  (338) 
nan

>  <Standardized_SMILES>  (338) 
COc1cc(/C=C/C(O)=C/C(=O)/C=C/c2ccc(OCc3ccccc3)cc2)ccc1O

>  <Name>  (338) 
nan

>  <Pocket>  (338) 
nan

>  <ATP_Site>  (338) 
nan

>  <Peripheral>  (338) 
nan

>  <Num_H_Atoms_ProtBoundConf>  (338) 
nan

>  <Num_Resolved_Atoms>  (338) 
nan

>  <Num_Not_Resolved_Atoms>  (338) 
nan

$$$$
CHEMBL376394
     RDKit          3D

  0  0  0  0  0  0  0  0  0  0999 V3000
M  V30 BEGIN CTAB
M  V30 COUNTS 52 55 0 0 0
M  V30 BEGIN ATOM
M  V30 1 C 1.985687 -2.260059 1.449575 0
M  V30 2 C 2.362658 -0.977496 2.089187 0
M  V30 3 C 1.809523 -0.839799 3.350574 0
M  V30 4 C 2.050918 0.291732 4.100642 0
M  V30 5 F 1.535110 0.493718 5.356294 0
M  V30 6 C 2.849562 1.294677 3.591217 0
M  V30 7 C 3.383007 1.119882 2.328916 0
M  V30 8 C 3.166163 0.001183 1.543404 0
M  V30 9 C 3.712739 -0.225511 0.197518 0
M  V30 10 C 2.720549 -0.021453 -0.923952 0 CFG=2
M  V30 11 N 3.439364 -0.295741 -2.187306 0
M  V30 12 C 2.185594 1.362401 -1.020108 0
M  V30 13 O 1.483291 1.786040 0.075454 0
M  V30 14 C 0.345739 1.341966 0.678497 0
M  V30 15 C 0.112738 2.184537 1.783018 0
M  V30 16 N -0.956441 2.026545 2.622522 0
M  V30 17 C -1.830717 1.020479 2.387641 0
M  V30 18 C -1.649465 0.165723 1.318803 0
M  V30 19 C -2.525787 -0.950529 0.975849 0
M  V30 20 C -3.177732 -1.627025 1.986451 0
M  V30 21 C -4.004845 -2.682066 1.658135 0
M  V30 22 C -4.202403 -3.083001 0.361448 0
M  V30 23 N -4.935873 -4.051677 -0.200032 0
M  V30 24 N -4.791854 -4.032887 -1.495371 0
M  V30 25 C -3.944370 -3.033205 -1.826169 0
M  V30 26 C -3.419147 -2.546157 -3.126889 0
M  V30 27 C -3.545880 -2.399922 -0.642819 0
M  V30 28 C -2.714364 -1.342154 -0.336978 0
M  V30 29 C -0.582464 0.338774 0.496844 0
M  V30 30 H 2.607589 -2.462382 0.582415 0
M  V30 31 H 2.066493 -3.114233 2.158527 0
M  V30 32 H 0.920937 -2.125534 1.125491 0
M  V30 33 H 1.170925 -1.549363 3.858288 0
M  V30 34 H 3.038774 2.179591 4.176919 0
M  V30 35 H 4.011339 1.896159 1.914157 0
M  V30 36 H 4.144306 -1.243179 0.068370 0
M  V30 37 H 4.595927 0.450548 -0.011050 0
M  V30 38 H 1.889373 -0.743485 -0.925174 0
M  V30 39 H 4.200475 0.381262 -2.342012 0
M  V30 40 H 2.744737 -0.225566 -2.980442 0
M  V30 41 H 3.045466 2.065315 -1.250829 0
M  V30 42 H 1.582756 1.393793 -1.978385 0
M  V30 43 H 0.679814 3.043022 2.151513 0
M  V30 44 H -2.694157 0.828949 2.998546 0
M  V30 45 H -3.047338 -1.342319 3.005356 0
M  V30 46 H -4.510001 -3.200480 2.488180 0
M  V30 47 H -5.547225 -4.743975 0.280186 0
M  V30 48 H -2.296315 -2.640662 -3.158598 0
M  V30 49 H -3.806962 -3.224720 -3.913180 0
M  V30 50 H -3.750274 -1.519100 -3.377868 0
M  V30 51 H -2.213683 -0.823877 -1.125094 0
M  V30 52 H -0.329916 -0.235283 -0.353992 0
M  V30 END ATOM
M  V30 BEGIN BOND
M  V30 1 1 1 2
M  V30 2 2 2 3
M  V30 3 1 3 4
M  V30 4 1 4 5
M  V30 5 2 4 6
M  V30 6 1 6 7
M  V30 7 2 7 8
M  V30 8 1 8 9
M  V30 9 1 9 10
M  V30 10 1 10 11
M  V30 11 1 10 12
M  V30 12 1 12 13
M  V30 13 1 13 14
M  V30 14 2 14 15
M  V30 15 1 15 16
M  V30 16 2 16 17
M  V30 17 1 17 18
M  V30 18 1 18 19
M  V30 19 2 19 20
M  V30 20 1 20 21
M  V30 21 2 21 22
M  V30 22 1 22 23
M  V30 23 1 23 24
M  V30 24 2 24 25
M  V30 25 1 25 26
M  V30 26 1 25 27
M  V30 27 2 27 28
M  V30 28 2 18 29
M  V30 29 1 8 2
M  V30 30 1 29 14
M  V30 31 1 28 19
M  V30 32 1 27 22
M  V30 33 1 1 30
M  V30 34 1 1 31
M  V30 35 1 1 32
M  V30 36 1 3 33
M  V30 37 1 6 34
M  V30 38 1 7 35
M  V30 39 1 9 36
M  V30 40 1 9 37
M  V30 41 1 10 38 CFG=1
M  V30 42 1 11 39
M  V30 43 1 11 40
M  V30 44 1 12 41
M  V30 45 1 12 42
M  V30 46 1 15 43
M  V30 47 1 17 44
M  V30 48 1 20 45
M  V30 49 1 21 46
M  V30 50 1 23 47
M  V30 51 1 26 48
M  V30 52 1 26 49
M  V30 53 1 26 50
M  V30 54 1 28 51
M  V30 55 1 29 52
M  V30 END BOND
M  V30 END CTAB
M  END
>  <Dataset>  (339) 
ChEMBL_Kinases

>  <Ligand_Instance>  (339) 
nan

>  <PDB_ID>  (339) 
nan

>  <Standardized_SMILES>  (339) 
Cc1cc(F)ccc1C[C@H](N)COc1cncc(-c2ccc3[nH]nc(C)c3c2)c1

>  <Name>  (339) 
nan

>  <Pocket>  (339) 
nan

>  <ATP_Site>  (339) 
nan

>  <Peripheral>  (339) 
nan

>  <Num_H_Atoms_ProtBoundConf>  (339) 
nan

>  <Num_Resolved_Atoms>  (339) 
nan

>  <Num_Not_Resolved_Atoms>  (339) 
nan

$$$$
CHEMBL3763907
     RDKit          3D

  0  0  0  0  0  0  0  0  0  0999 V3000
M  V30 BEGIN CTAB
M  V30 COUNTS 30 31 0 0 0
M  V30 BEGIN ATOM
M  V30 1 N -0.630225 -1.176133 2.368155 0
M  V30 2 C -0.529500 -0.584766 1.226491 0
M  V30 3 N 0.795883 -0.356139 0.739072 0
M  V30 4 C 1.965512 -0.851758 1.338101 0
M  V30 5 N 1.736071 -1.221946 2.551848 0
M  V30 6 O 2.715622 -1.741944 3.351038 0
M  V30 7 C 3.236751 -0.920630 0.641060 0
M  V30 8 N 3.320726 -0.493858 -0.625272 0
M  V30 9 O 4.511631 -0.627306 -1.088184 0
M  V30 10 N 5.299487 -1.143051 -0.186640 0
M  V30 11 C 4.512733 -1.330116 0.896877 0
M  V30 12 N 4.918021 -1.870984 2.125407 0
M  V30 13 C -1.665523 -0.146955 0.420441 0
M  V30 14 C -1.492779 0.980835 -0.361554 0
M  V30 15 C -2.486348 1.495181 -1.169534 0
M  V30 16 C -3.736725 0.862055 -1.216873 0
M  V30 17 C -3.875653 -0.264435 -0.422091 0
M  V30 18 C -2.890520 -0.783812 0.386999 0
M  V30 19 N -3.074400 -1.943627 1.182251 0
M  V30 20 H -1.486522 -1.419676 2.866880 0
M  V30 21 H 0.871868 0.224147 -0.130565 0
M  V30 22 H 2.852192 -1.548909 4.327929 0
M  V30 23 H 5.626146 -2.641083 2.242440 0
M  V30 24 H 5.426826 -2.474725 2.790475 0
M  V30 25 H -0.597841 1.585008 -0.439311 0
M  V30 26 H -2.406721 2.371026 -1.797247 0
M  V30 27 H -4.548915 1.226465 -1.832541 0
M  V30 28 H -4.835669 -0.762183 -0.446876 0
M  V30 29 H -2.452737 -2.781254 1.022938 0
M  V30 30 H -3.876515 -1.676567 1.821187 0
M  V30 END ATOM
M  V30 BEGIN BOND
M  V30 1 2 1 2 CFG=2
M  V30 2 1 2 3
M  V30 3 1 3 4
M  V30 4 2 4 5
M  V30 5 1 5 6
M  V30 6 1 4 7
M  V30 7 2 7 8
M  V30 8 1 8 9
M  V30 9 1 9 10
M  V30 10 2 10 11
M  V30 11 1 11 12
M  V30 12 1 2 13
M  V30 13 2 13 14
M  V30 14 1 14 15
M  V30 15 2 15 16
M  V30 16 1 16 17
M  V30 17 2 17 18
M  V30 18 1 18 19
M  V30 19 1 11 7
M  V30 20 1 18 13
M  V30 21 1 1 20
M  V30 22 1 3 21
M  V30 23 1 6 22
M  V30 24 1 12 23
M  V30 25 1 12 24
M  V30 26 1 14 25
M  V30 27 1 15 26
M  V30 28 1 16 27
M  V30 29 1 17 28
M  V30 30 1 19 29
M  V30 31 1 19 30
M  V30 END BOND
M  V30 END CTAB
M  END
>  <Dataset>  (340) 
ChEMBL_Kinases

>  <Ligand_Instance>  (340) 
nan

>  <PDB_ID>  (340) 
nan

>  <Standardized_SMILES>  (340) 
N=C(N/C(=N/O)c1nonc1N)c1ccccc1N

>  <Name>  (340) 
nan

>  <Pocket>  (340) 
nan

>  <ATP_Site>  (340) 
nan

>  <Peripheral>  (340) 
nan

>  <Num_H_Atoms_ProtBoundConf>  (340) 
nan

>  <Num_Resolved_Atoms>  (340) 
nan

>  <Num_Not_Resolved_Atoms>  (340) 
nan

$$$$
CHEMBL589603
     RDKit          3D

  0  0  0  0  0  0  0  0  0  0999 V3000
M  V30 BEGIN CTAB
M  V30 COUNTS 62 66 0 0 0
M  V30 BEGIN ATOM
M  V30 1 C 4.679595 0.137103 3.999117 0
M  V30 2 C 3.224678 0.215963 3.733225 0
M  V30 3 C 2.670308 1.370408 3.223407 0
M  V30 4 C 1.326707 1.513300 2.949275 0
M  V30 5 C 0.880560 2.797510 2.471201 0
M  V30 6 N 1.627714 3.906874 2.583774 0
M  V30 7 C 0.996321 4.961447 2.069682 0
M  V30 8 C 1.435340 6.377250 1.977177 0
M  V30 9 F 0.785574 6.999151 0.942399 0
M  V30 10 F 2.781527 6.492055 1.756021 0
M  V30 11 F 1.091404 7.052068 3.154872 0
M  V30 12 N -0.174990 4.509190 1.620603 0
M  V30 13 C -0.282463 3.163870 1.850399 0
M  V30 14 C -1.409766 2.431614 1.338335 0
M  V30 15 O -2.509511 3.070606 1.346345 0
M  V30 16 N -1.596357 1.158995 0.813526 0
M  V30 17 C -2.709250 0.454139 0.320618 0
M  V30 18 C -3.992844 0.931745 0.242221 0
M  V30 19 C -5.043454 0.195727 -0.249245 0
M  V30 20 C -4.819389 -1.086575 -0.690498 0
M  V30 21 C -5.949463 -1.880458 -1.220088 0
M  V30 22 C -3.548943 -1.612375 -0.633283 0
M  V30 23 N -3.392195 -2.933879 -1.121610 0
M  V30 24 C -2.288241 -3.805898 -1.303071 0
M  V30 25 C -2.313296 -5.184326 -1.050814 0
M  V30 26 C -1.213283 -5.982796 -1.265025 0
M  V30 27 C -0.033631 -5.454701 -1.740113 0
M  V30 28 N 1.017056 -6.269674 -1.934989 0
M  V30 29 C 2.203552 -5.782395 -2.404915 0
M  V30 30 N 2.296181 -4.466618 -2.668410 0
M  V30 31 C 3.523275 -3.851162 -3.174064 0
M  V30 32 C 1.239228 -3.644975 -2.472695 0
M  V30 33 O 1.347306 -2.412665 -2.726352 0
M  V30 34 C 0.026865 -4.102054 -1.999773 0
M  V30 35 C -1.081038 -3.307693 -1.782514 0
M  V30 36 C -2.543692 -0.834205 -0.134379 0
M  V30 37 C 0.620332 0.376970 3.245611 0
M  V30 38 C 1.117629 -0.782308 3.747396 0
M  V30 39 C 2.454157 -0.886520 4.005381 0
M  V30 40 F 3.038255 -1.999434 4.504400 0
M  V30 41 H 5.035861 -0.909275 4.056452 0
M  V30 42 H 4.869102 0.585797 5.007581 0
M  V30 43 H 5.271623 0.712873 3.249057 0
M  V30 44 H 3.386059 2.177569 3.048459 0
M  V30 45 H 2.592635 4.052384 3.000048 0
M  V30 46 H -0.662017 0.661605 0.774761 0
M  V30 47 H -4.246601 1.912409 0.562832 0
M  V30 48 H -6.056211 0.588996 -0.304575 0
M  V30 49 H -5.719757 -2.329475 -2.213806 0
M  V30 50 H -6.800120 -1.196157 -1.393233 0
M  V30 51 H -6.293328 -2.674721 -0.540707 0
M  V30 52 H -4.216655 -3.468807 -1.447780 0
M  V30 53 H -3.277981 -5.530356 -0.677638 0
M  V30 54 H -1.348360 -7.041631 -1.033671 0
M  V30 55 H 3.066986 -6.399419 -2.574538 0
M  V30 56 H 3.403734 -3.587999 -4.263131 0
M  V30 57 H 3.732139 -2.883437 -2.672095 0
M  V30 58 H 4.381815 -4.534088 -3.137312 0
M  V30 59 H -0.887164 -2.297015 -2.039425 0
M  V30 60 H -1.575799 -1.265492 -0.088180 0
M  V30 61 H -0.434111 0.397870 3.095887 0
M  V30 62 H 0.495213 -1.629145 3.951576 0
M  V30 END ATOM
M  V30 BEGIN BOND
M  V30 1 1 1 2
M  V30 2 2 2 3
M  V30 3 1 3 4
M  V30 4 1 4 5
M  V30 5 1 5 6
M  V30 6 1 6 7
M  V30 7 1 7 8
M  V30 8 1 8 9
M  V30 9 1 8 10
M  V30 10 1 8 11
M  V30 11 2 7 12
M  V30 12 1 12 13
M  V30 13 1 13 14
M  V30 14 2 14 15
M  V30 15 1 14 16
M  V30 16 1 16 17
M  V30 17 2 17 18
M  V30 18 1 18 19
M  V30 19 2 19 20
M  V30 20 1 20 21
M  V30 21 1 20 22
M  V30 22 1 22 23
M  V30 23 1 23 24
M  V30 24 2 24 25
M  V30 25 1 25 26
M  V30 26 2 26 27
M  V30 27 1 27 28
M  V30 28 2 28 29
M  V30 29 1 29 30
M  V30 30 1 30 31
M  V30 31 1 30 32
M  V30 32 2 32 33
M  V30 33 1 32 34
M  V30 34 2 34 35
M  V30 35 2 22 36
M  V30 36 2 4 37
M  V30 37 1 37 38
M  V30 38 2 38 39
M  V30 39 1 39 40
M  V30 40 1 39 2
M  V30 41 2 13 5
M  V30 42 1 36 17
M  V30 43 1 35 24
M  V30 44 1 34 27
M  V30 45 1 1 41
M  V30 46 1 1 42
M  V30 47 1 1 43
M  V30 48 1 3 44
M  V30 49 1 6 45
M  V30 50 1 16 46
M  V30 51 1 18 47
M  V30 52 1 19 48
M  V30 53 1 21 49
M  V30 54 1 21 50
M  V30 55 1 21 51
M  V30 56 1 23 52
M  V30 57 1 25 53
M  V30 58 1 26 54
M  V30 59 1 29 55
M  V30 60 1 31 56
M  V30 61 1 31 57
M  V30 62 1 31 58
M  V30 63 1 35 59
M  V30 64 1 36 60
M  V30 65 1 37 61
M  V30 66 1 38 62
M  V30 END BOND
M  V30 END CTAB
M  END
>  <Dataset>  (341) 
ChEMBL_Kinases

>  <Ligand_Instance>  (341) 
nan

>  <PDB_ID>  (341) 
nan

>  <Standardized_SMILES>  (341) 
Cc1cc(-c2[nH]c(C(F)(F)F)nc2C(=O)Nc2ccc(C)c(Nc3ccc4ncn(C)c(=O)c4c3)c2)ccc1F

>  <Name>  (341) 
nan

>  <Pocket>  (341) 
nan

>  <ATP_Site>  (341) 
nan

>  <Peripheral>  (341) 
nan

>  <Num_H_Atoms_ProtBoundConf>  (341) 
nan

>  <Num_Resolved_Atoms>  (341) 
nan

>  <Num_Not_Resolved_Atoms>  (341) 
nan

$$$$
CHEMBL376388
     RDKit          3D

  0  0  0  0  0  0  0  0  0  0999 V3000
M  V30 BEGIN CTAB
M  V30 COUNTS 31 33 0 0 0
M  V30 BEGIN ATOM
M  V30 1 C -3.104286 -3.017212 2.016388 0
M  V30 2 N -2.056819 -3.571469 2.817428 0
M  V30 3 C -0.940598 -4.056090 2.027629 0
M  V30 4 C -0.409261 -2.901678 1.268319 0
M  V30 5 C 0.593724 -2.102121 1.814023 0
M  V30 6 C 1.184629 -0.996842 1.225714 0
M  V30 7 C 0.708877 -0.677938 -0.034668 0
M  V30 8 C 1.313347 0.484189 -0.681633 0
M  V30 9 N 1.707734 0.507590 -1.968042 0
M  V30 10 C 2.265022 1.613252 -2.524201 0
M  V30 11 N 2.466374 2.769624 -1.834876 0
M  V30 12 C 2.063500 2.733013 -0.535721 0
M  V30 13 N 2.149856 3.736519 0.356888 0
M  V30 14 C 1.637571 3.280763 1.527525 0
M  V30 15 N 1.234628 1.990059 1.351838 0
M  V30 16 C 1.493516 1.630133 0.066003 0
M  V30 17 C -0.282642 -1.420445 -0.642864 0
M  V30 18 C -0.834734 -2.513257 -0.006932 0
M  V30 19 H -2.873907 -2.050811 1.534439 0
M  V30 20 H -3.292546 -3.722282 1.167192 0
M  V30 21 H -4.036294 -2.934187 2.573757 0
M  V30 22 H -1.715666 -2.916093 3.543526 0
M  V30 23 H -1.210747 -4.885648 1.373003 0
M  V30 24 H -0.120037 -4.385957 2.696109 0
M  V30 25 H 0.936643 -2.391066 2.807256 0
M  V30 26 H 1.955389 -0.473144 1.775212 0
M  V30 27 H 2.568250 1.575620 -3.578693 0
M  V30 28 H 2.508402 4.729388 0.330190 0
M  V30 29 H 1.483251 3.697032 2.531274 0
M  V30 30 H -0.625511 -1.135194 -1.630677 0
M  V30 31 H -1.613026 -3.120059 -0.449942 0
M  V30 END ATOM
M  V30 BEGIN BOND
M  V30 1 1 1 2
M  V30 2 1 2 3
M  V30 3 1 3 4
M  V30 4 2 4 5
M  V30 5 1 5 6
M  V30 6 2 6 7
M  V30 7 1 7 8
M  V30 8 2 8 9
M  V30 9 1 9 10
M  V30 10 2 10 11
M  V30 11 1 11 12
M  V30 12 1 12 13
M  V30 13 1 13 14
M  V30 14 2 14 15
M  V30 15 1 15 16
M  V30 16 1 7 17
M  V30 17 2 17 18
M  V30 18 1 18 4
M  V30 19 1 16 8
M  V30 20 2 16 12
M  V30 21 1 1 19
M  V30 22 1 1 20
M  V30 23 1 1 21
M  V30 24 1 2 22
M  V30 25 1 3 23
M  V30 26 1 3 24
M  V30 27 1 5 25
M  V30 28 1 6 26
M  V30 29 1 10 27
M  V30 30 1 13 28
M  V30 31 1 14 29
M  V30 32 1 17 30
M  V30 33 1 18 31
M  V30 END BOND
M  V30 END CTAB
M  END
>  <Dataset>  (342) 
ChEMBL_Kinases

>  <Ligand_Instance>  (342) 
nan

>  <PDB_ID>  (342) 
nan

>  <Standardized_SMILES>  (342) 
CNCc1ccc(-c2ncnc3[nH]cnc23)cc1

>  <Name>  (342) 
nan

>  <Pocket>  (342) 
nan

>  <ATP_Site>  (342) 
nan

>  <Peripheral>  (342) 
nan

>  <Num_H_Atoms_ProtBoundConf>  (342) 
nan

>  <Num_Resolved_Atoms>  (342) 
nan

>  <Num_Not_Resolved_Atoms>  (342) 
nan

$$$$
CHEMBL376384
     RDKit          3D

  0  0  0  0  0  0  0  0  0  0999 V3000
M  V30 BEGIN CTAB
M  V30 COUNTS 57 61 0 0 0
M  V30 BEGIN ATOM
M  V30 1 C 4.850184 4.128066 -0.719716 0
M  V30 2 N 4.097234 2.893287 -0.828700 0
M  V30 3 C 4.835002 1.653982 -0.913290 0
M  V30 4 C 5.127325 1.025108 0.377176 0
M  V30 5 C 6.324999 1.382383 1.008605 0
M  V30 6 C 6.648847 0.816291 2.230570 0
M  V30 7 C 5.830386 -0.091055 2.851218 0
M  V30 8 C 4.644724 -0.460400 2.250921 0
M  V30 9 C 4.329449 0.109480 1.031399 0
M  V30 10 C 2.686112 3.087062 -0.836669 0
M  V30 11 O 2.388366 4.306328 -0.746652 0
M  V30 12 C 1.595787 2.124192 -0.929326 0
M  V30 13 C 0.987062 1.490881 0.134663 0
M  V30 14 C -0.041613 0.591034 -0.048963 0
M  V30 15 C -0.513468 0.278986 -1.306226 0
M  V30 16 C -1.589777 -0.650640 -1.631519 0
M  V30 17 C -2.253419 -1.326368 -0.628718 0
M  V30 18 C -3.276523 -2.213623 -0.891786 0
M  V30 19 C -3.982393 -2.931674 0.174016 0
M  V30 20 C -3.715337 -2.808590 1.523910 0
M  V30 21 C -4.580182 -3.637537 2.233181 0
M  V30 22 C -5.352793 -4.241907 1.260763 0
M  V30 23 N -4.981354 -3.808474 0.042559 0
M  V30 24 C -6.410537 -5.210546 1.599290 0
M  V30 25 C -6.219945 -5.849385 2.951623 0
M  V30 26 N -5.847461 -4.912482 3.979869 0
M  V30 27 C -4.825977 -3.975773 3.644738 0
M  V30 28 O -4.090243 -3.392914 4.486390 0
M  V30 29 C -3.666548 -2.448206 -2.206231 0
M  V30 30 C -2.953464 -1.733903 -3.146847 0
M  V30 31 N -1.954137 -0.865628 -2.909345 0
M  V30 32 C 0.130098 0.941778 -2.353377 0
M  V30 33 C 1.161577 1.847663 -2.209676 0
M  V30 34 H 4.990231 4.567448 -1.741933 0
M  V30 35 H 5.837658 3.971640 -0.241452 0
M  V30 36 H 4.319280 4.876535 -0.096442 0
M  V30 37 H 5.785383 1.863514 -1.438538 0
M  V30 38 H 4.238110 0.914136 -1.498718 0
M  V30 39 H 7.047934 2.084523 0.618023 0
M  V30 40 H 7.580392 1.085672 2.734691 0
M  V30 41 H 6.124827 -0.501919 3.796883 0
M  V30 42 H 4.004157 -1.175637 2.744809 0
M  V30 43 H 3.416697 -0.166291 0.555008 0
M  V30 44 H 1.348109 1.727799 1.116471 0
M  V30 45 H -0.520404 0.093919 0.775513 0
M  V30 46 H -2.031093 -1.216875 0.407107 0
M  V30 47 H -2.980607 -2.196564 2.011803 0
M  V30 48 H -5.375680 -4.078660 -0.901340 0
M  V30 49 H -6.430063 -6.024684 0.845722 0
M  V30 50 H -7.433752 -4.740144 1.547530 0
M  V30 51 H -5.495956 -6.675244 2.946688 0
M  V30 52 H -7.231132 -6.253610 3.242667 0
M  V30 53 H -6.217559 -4.811473 4.952030 0
M  V30 54 H -4.455547 -3.125172 -2.491061 0
M  V30 55 H -3.217519 -1.879178 -4.191297 0
M  V30 56 H -0.212928 0.723978 -3.376679 0
M  V30 57 H 1.589493 2.305121 -3.100243 0
M  V30 END ATOM
M  V30 BEGIN BOND
M  V30 1 1 1 2
M  V30 2 1 2 3
M  V30 3 1 3 4
M  V30 4 2 4 5
M  V30 5 1 5 6
M  V30 6 2 6 7
M  V30 7 1 7 8
M  V30 8 2 8 9
M  V30 9 1 2 10
M  V30 10 2 10 11
M  V30 11 1 10 12
M  V30 12 2 12 13
M  V30 13 1 13 14
M  V30 14 2 14 15
M  V30 15 1 15 16
M  V30 16 2 16 17
M  V30 17 1 17 18
M  V30 18 1 18 19
M  V30 19 2 19 20
M  V30 20 1 20 21
M  V30 21 2 21 22
M  V30 22 1 22 23
M  V30 23 1 22 24
M  V30 24 1 24 25
M  V30 25 1 25 26
M  V30 26 1 26 27
M  V30 27 2 27 28
M  V30 28 2 18 29
M  V30 29 1 29 30
M  V30 30 2 30 31
M  V30 31 1 15 32
M  V30 32 2 32 33
M  V30 33 1 9 4
M  V30 34 1 33 12
M  V30 35 1 31 16
M  V30 36 1 23 19
M  V30 37 1 27 21
M  V30 38 1 1 34
M  V30 39 1 1 35
M  V30 40 1 1 36
M  V30 41 1 3 37
M  V30 42 1 3 38
M  V30 43 1 5 39
M  V30 44 1 6 40
M  V30 45 1 7 41
M  V30 46 1 8 42
M  V30 47 1 9 43
M  V30 48 1 13 44
M  V30 49 1 14 45
M  V30 50 1 17 46
M  V30 51 1 20 47
M  V30 52 1 23 48
M  V30 53 1 24 49
M  V30 54 1 24 50
M  V30 55 1 25 51
M  V30 56 1 25 52
M  V30 57 1 26 53
M  V30 58 1 29 54
M  V30 59 1 30 55
M  V30 60 1 32 56
M  V30 61 1 33 57
M  V30 END BOND
M  V30 END CTAB
M  END
>  <Dataset>  (343) 
ChEMBL_Kinases

>  <Ligand_Instance>  (343) 
nan

>  <PDB_ID>  (343) 
nan

>  <Standardized_SMILES>  (343) 
CN(Cc1ccccc1)C(=O)c1ccc(-c2cc(-c3cc4c([nH]3)CCNC4=O)ccn2)cc1

>  <Name>  (343) 
nan

>  <Pocket>  (343) 
nan

>  <ATP_Site>  (343) 
nan

>  <Peripheral>  (343) 
nan

>  <Num_H_Atoms_ProtBoundConf>  (343) 
nan

>  <Num_Resolved_Atoms>  (343) 
nan

>  <Num_Not_Resolved_Atoms>  (343) 
nan

$$$$
CHEMBL3763815
     RDKit          3D

  0  0  0  0  0  0  0  0  0  0999 V3000
M  V30 BEGIN CTAB
M  V30 COUNTS 55 57 0 0 0
M  V30 BEGIN ATOM
M  V30 1 C -0.905575 9.397473 3.137181 0
M  V30 2 O -0.624359 9.423626 1.748328 0
M  V30 3 C -0.445444 8.296626 0.991280 0
M  V30 4 C -0.540307 7.055883 1.596408 0
M  V30 5 C -0.361156 5.917375 0.839338 0
M  V30 6 C -0.087770 5.948941 -0.512102 0
M  V30 7 C 0.087616 4.714887 -1.241946 0
M  V30 8 C 0.353428 4.609686 -2.530915 0
M  V30 9 C 0.536935 3.385156 -3.303754 0
M  V30 10 O 0.789755 3.384472 -4.533803 0
M  V30 11 C 0.438758 2.062696 -2.697113 0
M  V30 12 C 0.596896 0.909480 -3.357483 0
M  V30 13 O 0.871981 1.039758 -4.709644 0
M  V30 14 C 0.474801 -0.357236 -2.646792 0
M  V30 15 C 0.622745 -1.520921 -3.247252 0
M  V30 16 C 0.519600 -2.832940 -2.623884 0
M  V30 17 C 0.246849 -2.939023 -1.279440 0
M  V30 18 C 0.151533 -4.167800 -0.720660 0
M  V30 19 C 0.304703 -5.361287 -1.383145 0
M  V30 20 O 0.268087 -6.688685 -1.113227 0
M  V30 21 C 0.020786 -7.306977 0.087567 0
M  V30 22 C -1.304571 -7.060480 0.703964 0
M  V30 23 C -1.801733 -6.199976 1.657623 0
M  V30 24 C -3.113465 -6.204573 2.003873 0
M  V30 25 C -4.029422 -7.057339 1.436179 0
M  V30 26 C -3.572664 -7.939791 0.473117 0
M  V30 27 C -2.226719 -7.939299 0.113279 0
M  V30 28 C 0.584150 -5.234181 -2.760061 0
M  V30 29 C 0.690277 -3.973721 -3.373836 0
M  V30 30 C -0.001727 7.194359 -1.074408 0
M  V30 31 C -0.174075 8.383684 -0.356430 0
M  V30 32 H -1.069698 10.389703 3.556941 0
M  V30 33 H -0.109504 8.881286 3.682631 0
M  V30 34 H -1.837581 8.772880 3.245424 0
M  V30 35 H -0.756607 6.967325 2.670967 0
M  V30 36 H -0.438533 4.962554 1.326029 0
M  V30 37 H 0.001865 3.770002 -0.724283 0
M  V30 38 H 0.446399 5.541577 -3.080353 0
M  V30 39 H 0.223261 1.971614 -1.639367 0
M  V30 40 H 1.822104 1.207297 -5.014448 0
M  V30 41 H 0.257616 -0.352933 -1.598843 0
M  V30 42 H 0.841855 -1.444704 -4.311362 0
M  V30 43 H 0.099251 -2.106819 -0.615828 0
M  V30 44 H -0.049852 -4.357445 0.316992 0
M  V30 45 H 0.763246 -6.897888 0.848378 0
M  V30 46 H 0.266004 -8.398512 0.078169 0
M  V30 47 H -1.018692 -5.592814 2.041548 0
M  V30 48 H -3.318022 -5.453653 2.773830 0
M  V30 49 H -5.052254 -6.988749 1.774879 0
M  V30 50 H -4.337019 -8.581638 0.066065 0
M  V30 51 H -2.061999 -8.699590 -0.655215 0
M  V30 52 H 0.747637 -6.008553 -3.503992 0
M  V30 53 H 0.902442 -3.815951 -4.422798 0
M  V30 54 H 0.205146 7.309356 -2.107665 0
M  V30 55 H -0.097833 9.354663 -0.840900 0
M  V30 END ATOM
M  V30 BEGIN BOND
M  V30 1 1 1 2
M  V30 2 1 2 3
M  V30 3 2 3 4
M  V30 4 1 4 5
M  V30 5 2 5 6
M  V30 6 1 6 7
M  V30 7 2 7 8
M  V30 8 1 8 9
M  V30 9 2 9 10
M  V30 10 1 9 11
M  V30 11 2 11 12
M  V30 12 1 12 13
M  V30 13 1 12 14
M  V30 14 2 14 15
M  V30 15 1 15 16
M  V30 16 2 16 17
M  V30 17 1 17 18
M  V30 18 2 18 19
M  V30 19 1 19 20
M  V30 20 1 20 21
M  V30 21 1 21 22
M  V30 22 2 22 23
M  V30 23 1 23 24
M  V30 24 2 24 25
M  V30 25 1 25 26
M  V30 26 2 26 27
M  V30 27 1 19 28
M  V30 28 2 28 29
M  V30 29 1 6 30
M  V30 30 2 30 31
M  V30 31 1 31 3
M  V30 32 1 29 16
M  V30 33 1 27 22
M  V30 34 1 1 32
M  V30 35 1 1 33
M  V30 36 1 1 34
M  V30 37 1 4 35
M  V30 38 1 5 36
M  V30 39 1 7 37
M  V30 40 1 8 38
M  V30 41 1 11 39
M  V30 42 1 13 40
M  V30 43 1 14 41
M  V30 44 1 15 42
M  V30 45 1 17 43
M  V30 46 1 18 44
M  V30 47 1 21 45
M  V30 48 1 21 46
M  V30 49 1 23 47
M  V30 50 1 24 48
M  V30 51 1 25 49
M  V30 52 1 26 50
M  V30 53 1 27 51
M  V30 54 1 28 52
M  V30 55 1 29 53
M  V30 56 1 30 54
M  V30 57 1 31 55
M  V30 END BOND
M  V30 END CTAB
M  END
>  <Dataset>  (344) 
ChEMBL_Kinases

>  <Ligand_Instance>  (344) 
nan

>  <PDB_ID>  (344) 
nan

>  <Standardized_SMILES>  (344) 
COc1ccc(/C=C/C(=O)/C=C(O)/C=C/c2ccc(OCc3ccccc3)cc2)cc1

>  <Name>  (344) 
nan

>  <Pocket>  (344) 
nan

>  <ATP_Site>  (344) 
nan

>  <Peripheral>  (344) 
nan

>  <Num_H_Atoms_ProtBoundConf>  (344) 
nan

>  <Num_Resolved_Atoms>  (344) 
nan

>  <Num_Not_Resolved_Atoms>  (344) 
nan

$$$$
CHEMBL3763728
     RDKit          3D

  0  0  0  0  0  0  0  0  0  0999 V3000
M  V30 BEGIN CTAB
M  V30 COUNTS 65 68 0 0 0
M  V30 BEGIN ATOM
M  V30 1 O 1.954644 -3.135532 3.609876 0
M  V30 2 C 1.249960 -2.655414 2.712627 0
M  V30 3 C 1.378008 -1.289175 2.228426 0
M  V30 4 C 2.256967 -0.426143 2.679060 0
M  V30 5 O 3.113830 -0.852926 3.677282 0
M  V30 6 C 2.307676 0.934812 2.129868 0
M  V30 7 C 3.132102 1.889304 2.478368 0
M  V30 8 C 3.184642 3.235234 1.939777 0
M  V30 9 C 2.278321 3.632387 0.990447 0
M  V30 10 C 2.262859 4.875493 0.425963 0
M  V30 11 C 3.200379 5.834529 0.798385 0
M  V30 12 O 3.495232 7.112957 0.479400 0
M  V30 13 C 2.953663 8.011171 -0.398363 0
M  V30 14 C 3.052805 7.527820 -1.794462 0
M  V30 15 C 2.171889 6.869862 -2.603303 0
M  V30 16 C 2.497529 6.494508 -3.900606 0
M  V30 17 C 3.729851 6.772584 -4.428850 0
M  V30 18 C 4.632360 7.434921 -3.632405 0
M  V30 19 C 4.300212 7.799937 -2.354300 0
M  V30 20 C 4.127908 5.419720 1.773805 0
M  V30 21 C 4.139085 4.141002 2.351401 0
M  V30 22 C 0.222205 -3.503201 2.091635 0
M  V30 23 C -0.038575 -4.746994 2.403926 0
M  V30 24 C -1.041181 -5.627191 1.819505 0
M  V30 25 C -1.788982 -5.082446 0.804132 0
M  V30 26 C -2.735614 -5.929652 0.234517 0
M  V30 27 C -2.963075 -7.227700 0.607796 0
M  V30 28 O -3.786578 -8.237131 0.237523 0
M  V30 29 C -4.775730 -8.312030 -0.730066 0
M  V30 30 C -5.872257 -7.357836 -0.466293 0
M  V30 31 C -6.769707 -7.964549 0.436869 0
M  V30 32 C -7.924785 -7.291109 0.849162 0
M  V30 33 C -8.210891 -6.006264 0.375136 0
M  V30 34 C -7.329781 -5.423577 -0.505421 0
M  V30 35 C -6.207114 -6.117851 -0.885744 0
M  V30 36 C -2.168390 -7.733068 1.653713 0
M  V30 37 C -1.194559 -6.918500 2.265885 0
M  V30 38 H 0.710409 -0.930564 1.437878 0
M  V30 39 H 3.120389 -0.515251 4.612378 0
M  V30 40 H 1.602465 1.190217 1.357721 0
M  V30 41 H 3.848679 1.620281 3.260497 0
M  V30 42 H 1.488065 3.023207 0.588796 0
M  V30 43 H 1.603120 5.271345 -0.300687 0
M  V30 44 H 1.851319 8.193381 -0.241972 0
M  V30 45 H 3.499995 8.995071 -0.274126 0
M  V30 46 H 1.221508 6.694784 -2.125150 0
M  V30 47 H 1.670088 5.981555 -4.386080 0
M  V30 48 H 3.924749 6.455884 -5.446479 0
M  V30 49 H 5.593910 7.635662 -4.082598 0
M  V30 50 H 5.116585 8.318584 -1.841027 0
M  V30 51 H 4.953323 5.997232 2.222557 0
M  V30 52 H 4.818883 3.778971 3.089501 0
M  V30 53 H -0.395599 -3.074542 1.289469 0
M  V30 54 H 0.585232 -5.124251 3.202984 0
M  V30 55 H -1.788179 -4.109258 0.351538 0
M  V30 56 H -3.383793 -5.643133 -0.567030 0
M  V30 57 H -4.351859 -8.051881 -1.757866 0
M  V30 58 H -5.155095 -9.348788 -0.887221 0
M  V30 59 H -6.731343 -8.929960 0.907285 0
M  V30 60 H -8.667844 -7.662535 1.527664 0
M  V30 61 H -9.081430 -5.426025 0.646668 0
M  V30 62 H -7.406807 -4.437842 -0.963565 0
M  V30 63 H -5.477014 -5.733895 -1.576782 0
M  V30 64 H -2.147634 -8.712636 2.133170 0
M  V30 65 H -0.538094 -7.211374 3.072594 0
M  V30 END ATOM
M  V30 BEGIN BOND
M  V30 1 2 1 2
M  V30 2 1 2 3
M  V30 3 2 3 4
M  V30 4 1 4 5
M  V30 5 1 4 6
M  V30 6 2 6 7
M  V30 7 1 7 8
M  V30 8 2 8 9
M  V30 9 1 9 10
M  V30 10 2 10 11
M  V30 11 1 11 12
M  V30 12 1 12 13
M  V30 13 1 13 14
M  V30 14 2 14 15
M  V30 15 1 15 16
M  V30 16 2 16 17
M  V30 17 1 17 18
M  V30 18 2 18 19
M  V30 19 1 11 20
M  V30 20 2 20 21
M  V30 21 1 2 22
M  V30 22 2 22 23
M  V30 23 1 23 24
M  V30 24 2 24 25
M  V30 25 1 25 26
M  V30 26 2 26 27
M  V30 27 1 27 28
M  V30 28 1 28 29
M  V30 29 1 29 30
M  V30 30 2 30 31
M  V30 31 1 31 32
M  V30 32 2 32 33
M  V30 33 1 33 34
M  V30 34 2 34 35
M  V30 35 1 27 36
M  V30 36 2 36 37
M  V30 37 1 21 8
M  V30 38 1 37 24
M  V30 39 1 19 14
M  V30 40 1 35 30
M  V30 41 1 3 38
M  V30 42 1 5 39
M  V30 43 1 6 40
M  V30 44 1 7 41
M  V30 45 1 9 42
M  V30 46 1 10 43
M  V30 47 1 13 44
M  V30 48 1 13 45
M  V30 49 1 15 46
M  V30 50 1 16 47
M  V30 51 1 17 48
M  V30 52 1 18 49
M  V30 53 1 19 50
M  V30 54 1 20 51
M  V30 55 1 21 52
M  V30 56 1 22 53
M  V30 57 1 23 54
M  V30 58 1 25 55
M  V30 59 1 26 56
M  V30 60 1 29 57
M  V30 61 1 29 58
M  V30 62 1 31 59
M  V30 63 1 32 60
M  V30 64 1 33 61
M  V30 65 1 34 62
M  V30 66 1 35 63
M  V30 67 1 36 64
M  V30 68 1 37 65
M  V30 END BOND
M  V30 END CTAB
M  END
>  <Dataset>  (345) 
ChEMBL_Kinases

>  <Ligand_Instance>  (345) 
nan

>  <PDB_ID>  (345) 
nan

>  <Standardized_SMILES>  (345) 
O=C(/C=C(O)/C=C/c1ccc(OCc2ccccc2)cc1)/C=C/c1ccc(OCc2ccccc2)cc1

>  <Name>  (345) 
nan

>  <Pocket>  (345) 
nan

>  <ATP_Site>  (345) 
nan

>  <Peripheral>  (345) 
nan

>  <Num_H_Atoms_ProtBoundConf>  (345) 
nan

>  <Num_Resolved_Atoms>  (345) 
nan

>  <Num_Not_Resolved_Atoms>  (345) 
nan

$$$$
CHEMBL3702316
     RDKit          3D

  0  0  0  0  0  0  0  0  0  0999 V3000
M  V30 BEGIN CTAB
M  V30 COUNTS 49 51 0 0 0
M  V30 BEGIN ATOM
M  V30 1 C 2.602016 -1.239549 0.996176 0
M  V30 2 C 3.354053 -0.100093 0.408719 0
M  V30 3 C 4.760166 -0.162776 0.267986 0
M  V30 4 C 5.733741 -1.137079 0.588981 0
M  V30 5 N 5.504696 -2.394186 1.195193 0
M  V30 6 O 6.958666 -1.009995 0.372788 0
M  V30 7 S 5.267250 1.369128 -0.471495 0
M  V30 8 C 3.529429 2.042242 -0.560630 0
M  V30 9 N 3.151923 3.295924 -1.066348 0
M  V30 10 C 1.834778 3.523354 -1.004000 0
M  V30 11 N 1.021596 2.592894 -0.493634 0
M  V30 12 C 1.412451 1.405269 -0.018917 0
M  V30 13 N 0.387172 0.572518 0.480879 0
M  V30 14 C -0.187085 0.332749 1.739712 0
M  V30 15 C 0.284152 1.010083 2.815247 0
M  V30 16 C -0.283887 0.772387 4.070220 0
M  V30 17 C -1.312472 -0.149185 4.177132 0
M  V30 18 F -1.906931 -0.423840 5.376179 0
M  V30 19 C -1.746728 -0.801641 3.061094 0
M  V30 20 C -1.208096 -0.594690 1.789264 0
M  V30 21 O -1.617316 -1.233147 0.629696 0
M  V30 22 C -2.615399 -2.184210 0.496239 0
M  V30 23 C -2.135224 -3.471977 -0.142836 0
M  V30 24 C -3.776357 -1.684241 -0.377006 0
M  V30 25 C -4.405240 -0.498578 0.331705 0
M  V30 26 C -3.350879 -1.325361 -1.760426 0
M  V30 27 O -4.700016 -2.738239 -0.432352 0
M  V30 28 C 2.726425 1.013597 -0.008727 0
M  V30 29 H 3.196477 -2.164802 0.849513 0
M  V30 30 H 1.660767 -1.449508 0.448664 0
M  V30 31 H 2.478342 -1.137013 2.094335 0
M  V30 32 H 5.324182 -3.286387 1.664700 0
M  V30 33 H 5.707379 -3.365534 0.833126 0
M  V30 34 H 1.552279 4.484281 -1.393033 0
M  V30 35 H 0.086197 0.094597 -0.422399 0
M  V30 36 H 1.079379 1.721992 2.730814 0
M  V30 37 H 0.054777 1.287171 4.967793 0
M  V30 38 H -2.544632 -1.516106 3.148120 0
M  V30 39 H -3.116174 -2.463270 1.448328 0
M  V30 40 H -1.407907 -3.994643 0.500285 0
M  V30 41 H -1.645156 -3.284467 -1.123728 0
M  V30 42 H -2.971499 -4.159653 -0.363062 0
M  V30 43 H -4.311329 -0.710489 1.417420 0
M  V30 44 H -5.469391 -0.472399 0.021836 0
M  V30 45 H -3.846545 0.402650 0.013504 0
M  V30 46 H -2.288159 -1.107052 -1.892164 0
M  V30 47 H -3.920783 -0.416339 -2.087234 0
M  V30 48 H -3.600133 -2.121579 -2.514052 0
M  V30 49 H -4.708056 -3.230259 0.441995 0
M  V30 END ATOM
M  V30 BEGIN BOND
M  V30 1 1 1 2
M  V30 2 2 2 3
M  V30 3 1 3 4
M  V30 4 1 4 5
M  V30 5 2 4 6
M  V30 6 1 3 7
M  V30 7 1 7 8
M  V30 8 2 8 9
M  V30 9 1 9 10
M  V30 10 2 10 11
M  V30 11 1 11 12
M  V30 12 1 12 13
M  V30 13 1 13 14
M  V30 14 2 14 15
M  V30 15 1 15 16
M  V30 16 2 16 17
M  V30 17 1 17 18
M  V30 18 1 17 19
M  V30 19 2 19 20
M  V30 20 1 20 21
M  V30 21 1 21 22
M  V30 22 1 22 23
M  V30 23 1 22 24
M  V30 24 1 24 25
M  V30 25 1 24 26
M  V30 26 1 24 27
M  V30 27 2 12 28
M  V30 28 1 28 2
M  V30 29 1 28 8
M  V30 30 1 20 14
M  V30 31 1 1 29
M  V30 32 1 1 30
M  V30 33 1 1 31
M  V30 34 1 5 32
M  V30 35 1 5 33
M  V30 36 1 10 34
M  V30 37 1 13 35
M  V30 38 1 15 36
M  V30 39 1 16 37
M  V30 40 1 19 38
M  V30 41 1 22 39
M  V30 42 1 23 40
M  V30 43 1 23 41
M  V30 44 1 23 42
M  V30 45 1 25 43
M  V30 46 1 25 44
M  V30 47 1 25 45
M  V30 48 1 26 46
M  V30 49 1 26 47
M  V30 50 1 26 48
M  V30 51 1 27 49
M  V30 END BOND
M  V30 END CTAB
M  END
>  <Dataset>  (346) 
ChEMBL_Kinases

>  <Ligand_Instance>  (346) 
nan

>  <PDB_ID>  (346) 
nan

>  <Standardized_SMILES>  (346) 
Cc1c(C(N)=O)sc2ncnc(Nc3ccc(F)cc3OC(C)C(C)(C)O)c12

>  <Name>  (346) 
nan

>  <Pocket>  (346) 
nan

>  <ATP_Site>  (346) 
nan

>  <Peripheral>  (346) 
nan

>  <Num_H_Atoms_ProtBoundConf>  (346) 
nan

>  <Num_Resolved_Atoms>  (346) 
nan

>  <Num_Not_Resolved_Atoms>  (346) 
nan

$$$$
CHEMBL3763983
     RDKit          3D

  0  0  0  0  0  0  0  0  0  0999 V3000
M  V30 BEGIN CTAB
M  V30 COUNTS 76 80 0 0 0
M  V30 BEGIN ATOM
M  V30 1 C 10.383299 -1.086690 8.664717 0
M  V30 2 C 9.697708 -0.269217 7.616178 0
M  V30 3 O 8.742160 0.420533 8.033801 0
M  V30 4 N 10.060545 -0.239872 6.238792 0
M  V30 5 C 9.198617 0.643475 5.523326 0
M  V30 6 C 8.023427 0.127624 4.957907 0
M  V30 7 C 7.121271 0.908065 4.249157 0
M  V30 8 C 7.454794 2.251505 4.129488 0
M  V30 9 O 6.543847 3.046556 3.412555 0
M  V30 10 C 5.393546 2.449345 2.905911 0
M  V30 11 C 5.290126 1.871050 1.655910 0
M  V30 12 C 4.109825 1.299819 1.232968 0
M  V30 13 C 2.971392 1.283690 2.053138 0
M  V30 14 C 1.688677 0.700288 1.686104 0
M  V30 15 C 1.199862 0.791341 0.493180 0
M  V30 16 S 1.910277 1.602332 -0.943623 0
M  V30 17 C 0.568653 1.124048 -2.058137 0
M  V30 18 S 0.700656 1.570744 -3.623128 0
M  V30 19 N -0.389541 0.410575 -1.285839 0
M  V30 20 C -1.526260 -0.008897 -2.029618 0
M  V30 21 C -2.733544 0.647067 -2.250813 0
M  V30 22 C -3.710550 0.055246 -3.018350 0
M  V30 23 C -3.447128 -1.187614 -3.546450 0
M  V30 24 O -4.443650 -1.786168 -4.328616 0
M  V30 25 C -4.277717 -3.053443 -4.921898 0
M  V30 26 C -5.435528 -3.524991 -5.717825 0
M  V30 27 C -6.677233 -3.786143 -4.955402 0
M  V30 28 N -7.144380 -2.685567 -4.156758 0
M  V30 29 C -8.616776 -2.840029 -4.032079 0
M  V30 30 C -9.155488 -2.565666 -2.682775 0
M  V30 31 N -8.484348 -1.555367 -1.894270 0
M  V30 32 C -8.847888 -1.848504 -0.498300 0
M  V30 33 C -7.022472 -1.749334 -1.959078 0
M  V30 34 C -6.718302 -2.979571 -2.753474 0
M  V30 35 C -2.288069 -1.890067 -3.372087 0
M  V30 36 C -1.324763 -1.273756 -2.597797 0
M  V30 37 C -0.061169 0.228229 0.079332 0
M  V30 38 O -0.893393 -0.409488 0.819464 0
M  V30 39 C 3.053554 1.864695 3.323777 0
M  V30 40 C 4.270283 2.430728 3.706966 0
M  V30 41 C 8.594181 2.808553 4.664064 0
M  V30 42 C 9.485415 2.001909 5.372983 0
M  V30 43 H 10.605282 -0.455092 9.559866 0
M  V30 44 H 9.754540 -1.927193 9.032893 0
M  V30 45 H 11.360178 -1.491310 8.310794 0
M  V30 46 H 10.867427 -0.839728 5.955780 0
M  V30 47 H 7.804715 -0.928330 5.075148 0
M  V30 48 H 6.230259 0.515292 3.818277 0
M  V30 49 H 6.161929 1.876815 1.017291 0
M  V30 50 H 4.012070 0.837908 0.256700 0
M  V30 51 H 1.127853 0.165185 2.466301 0
M  V30 52 H -2.764814 1.617350 -1.758099 0
M  V30 53 H -4.623066 0.626252 -3.150566 0
M  V30 54 H -3.936582 -3.840856 -4.199345 0
M  V30 55 H -3.365118 -2.924592 -5.591040 0
M  V30 56 H -5.639850 -2.775018 -6.559370 0
M  V30 57 H -5.139068 -4.446960 -6.334297 0
M  V30 58 H -6.573920 -4.714366 -4.309468 0
M  V30 59 H -7.510068 -4.110608 -5.669028 0
M  V30 60 H -9.002093 -2.136449 -4.827292 0
M  V30 61 H -8.904525 -3.864099 -4.345287 0
M  V30 62 H -9.296095 -3.480851 -2.062991 0
M  V30 63 H -10.207818 -2.168829 -2.824076 0
M  V30 64 H -8.916496 -0.933255 0.122045 0
M  V30 65 H -9.836786 -2.387190 -0.464947 0
M  V30 66 H -8.106225 -2.593567 -0.116259 0
M  V30 67 H -6.665183 -0.846980 -2.519200 0
M  V30 68 H -6.549500 -1.720331 -0.969995 0
M  V30 69 H -7.335690 -3.850264 -2.388446 0
M  V30 70 H -5.693787 -3.260265 -2.739778 0
M  V30 71 H -2.140982 -2.871422 -3.814231 0
M  V30 72 H -0.410841 -1.871392 -2.483483 0
M  V30 73 H 2.192424 1.869439 3.974383 0
M  V30 74 H 4.284919 2.863003 4.697366 0
M  V30 75 H 8.803541 3.866995 4.536023 0
M  V30 76 H 10.382057 2.423851 5.798383 0
M  V30 END ATOM
M  V30 BEGIN BOND
M  V30 1 1 1 2
M  V30 2 2 2 3
M  V30 3 1 2 4
M  V30 4 1 4 5
M  V30 5 2 5 6
M  V30 6 1 6 7
M  V30 7 2 7 8
M  V30 8 1 8 9
M  V30 9 1 9 10
M  V30 10 2 10 11
M  V30 11 1 11 12
M  V30 12 2 12 13
M  V30 13 1 13 14
M  V30 14 2 14 15
M  V30 15 1 15 16
M  V30 16 1 16 17
M  V30 17 2 17 18
M  V30 18 1 17 19
M  V30 19 1 19 20
M  V30 20 2 20 21
M  V30 21 1 21 22
M  V30 22 2 22 23
M  V30 23 1 23 24
M  V30 24 1 24 25
M  V30 25 1 25 26
M  V30 26 1 26 27
M  V30 27 1 27 28
M  V30 28 1 28 29
M  V30 29 1 29 30
M  V30 30 1 30 31
M  V30 31 1 31 32
M  V30 32 1 31 33
M  V30 33 1 33 34
M  V30 34 1 23 35
M  V30 35 2 35 36
M  V30 36 1 19 37
M  V30 37 2 37 38
M  V30 38 1 13 39
M  V30 39 2 39 40
M  V30 40 1 8 41
M  V30 41 2 41 42
M  V30 42 1 42 5
M  V30 43 1 40 10
M  V30 44 1 37 15
M  V30 45 1 36 20
M  V30 46 1 34 28
M  V30 47 1 1 43
M  V30 48 1 1 44
M  V30 49 1 1 45
M  V30 50 1 4 46
M  V30 51 1 6 47
M  V30 52 1 7 48
M  V30 53 1 11 49
M  V30 54 1 12 50
M  V30 55 1 14 51
M  V30 56 1 21 52
M  V30 57 1 22 53
M  V30 58 1 25 54
M  V30 59 1 25 55
M  V30 60 1 26 56
M  V30 61 1 26 57
M  V30 62 1 27 58
M  V30 63 1 27 59
M  V30 64 1 29 60
M  V30 65 1 29 61
M  V30 66 1 30 62
M  V30 67 1 30 63
M  V30 68 1 32 64
M  V30 69 1 32 65
M  V30 70 1 32 66
M  V30 71 1 33 67
M  V30 72 1 33 68
M  V30 73 1 34 69
M  V30 74 1 34 70
M  V30 75 1 35 71
M  V30 76 1 36 72
M  V30 77 1 39 73
M  V30 78 1 40 74
M  V30 79 1 41 75
M  V30 80 1 42 76
M  V30 END BOND
M  V30 END CTAB
M  END
>  <Dataset>  (347) 
ChEMBL_Kinases

>  <Ligand_Instance>  (347) 
nan

>  <PDB_ID>  (347) 
nan

>  <Standardized_SMILES>  (347) 
CC(=O)Nc1ccc(Oc2ccc(/C=C3\SC(=S)N(c4ccc(OCCCN5CCN(C)CC5)cc4)C3=O)cc2)cc1

>  <Name>  (347) 
nan

>  <Pocket>  (347) 
nan

>  <ATP_Site>  (347) 
nan

>  <Peripheral>  (347) 
nan

>  <Num_H_Atoms_ProtBoundConf>  (347) 
nan

>  <Num_Resolved_Atoms>  (347) 
nan

>  <Num_Not_Resolved_Atoms>  (347) 
nan

$$$$
CHEMBL3765460
     RDKit          3D

  0  0  0  0  0  0  0  0  0  0999 V3000
M  V30 BEGIN CTAB
M  V30 COUNTS 39 41 0 0 0
M  V30 BEGIN ATOM
M  V30 1 O 0.875199 -4.125891 2.903511 0
M  V30 2 C 0.738573 -3.088999 1.986703 0
M  V30 3 C 0.123111 -3.648785 0.724124 0
M  V30 4 N -0.072525 -2.674558 -0.307946 0
M  V30 5 C 0.608818 -1.766216 -1.157182 0
M  V30 6 C 1.000858 -2.066693 -2.449412 0
M  V30 7 C 1.664982 -1.155540 -3.244329 0
M  V30 8 C 1.902771 0.066803 -2.648592 0
M  V30 9 N 2.546247 1.002365 -3.346252 0
M  V30 10 N 2.787455 2.187085 -2.775689 0
M  V30 11 N 2.417413 2.480015 -1.545719 0
M  V30 12 C 1.763914 1.602280 -0.766699 0
M  V30 13 N 1.421529 1.971632 0.541753 0
M  V30 14 C 0.669882 1.417878 1.605017 0
M  V30 15 C 1.173403 1.340348 2.911381 0
M  V30 16 C 0.449392 0.821621 3.960177 0
M  V30 17 C -0.822365 0.363748 3.698480 0
M  V30 18 C -1.357529 0.420789 2.430141 0
M  V30 19 O -2.642500 -0.086661 2.376318 0
M  V30 20 C -3.770968 0.745441 2.586173 0
M  V30 21 F -3.855899 1.779606 1.675361 0
M  V30 22 F -3.520735 1.374054 3.815689 0
M  V30 23 F -4.923898 0.011094 2.696796 0
M  V30 24 C -0.611367 0.940768 1.416816 0
M  V30 25 C 1.520378 0.385195 -1.363968 0
M  V30 26 N 0.877922 -0.551831 -0.649621 0
M  V30 27 H 1.814802 -4.302295 3.139393 0
M  V30 28 H 1.704228 -2.636479 1.713069 0
M  V30 29 H 0.026591 -2.329319 2.403677 0
M  V30 30 H 0.785546 -4.485894 0.353658 0
M  V30 31 H -0.847882 -4.119501 0.937755 0
M  V30 32 H -1.044862 -2.440860 -0.676927 0
M  V30 33 H 0.779458 -3.042114 -2.842080 0
M  V30 34 H 1.981346 -1.363594 -4.253967 0
M  V30 35 H 1.776015 2.888528 0.900417 0
M  V30 36 H 2.195297 1.734105 3.002169 0
M  V30 37 H 0.899103 0.791117 4.944430 0
M  V30 38 H -1.327037 -0.032187 4.584369 0
M  V30 39 H -1.119704 0.952143 0.467122 0
M  V30 END ATOM
M  V30 BEGIN BOND
M  V30 1 1 1 2
M  V30 2 1 2 3
M  V30 3 1 3 4
M  V30 4 1 4 5
M  V30 5 2 5 6
M  V30 6 1 6 7
M  V30 7 2 7 8
M  V30 8 1 8 9
M  V30 9 2 9 10
M  V30 10 1 10 11
M  V30 11 2 11 12
M  V30 12 1 12 13
M  V30 13 1 13 14
M  V30 14 2 14 15
M  V30 15 1 15 16
M  V30 16 2 16 17
M  V30 17 1 17 18
M  V30 18 1 18 19
M  V30 19 1 19 20
M  V30 20 1 20 21
M  V30 21 1 20 22
M  V30 22 1 20 23
M  V30 23 2 18 24
M  V30 24 1 12 25
M  V30 25 2 25 26
M  V30 26 1 26 5
M  V30 27 1 25 8
M  V30 28 1 24 14
M  V30 29 1 1 27
M  V30 30 1 2 28
M  V30 31 1 2 29
M  V30 32 1 3 30
M  V30 33 1 3 31
M  V30 34 1 4 32
M  V30 35 1 6 33
M  V30 36 1 7 34
M  V30 37 1 13 35
M  V30 38 1 15 36
M  V30 39 1 16 37
M  V30 40 1 17 38
M  V30 41 1 24 39
M  V30 END BOND
M  V30 END CTAB
M  END
>  <Dataset>  (348) 
ChEMBL_Kinases

>  <Ligand_Instance>  (348) 
nan

>  <PDB_ID>  (348) 
nan

>  <Standardized_SMILES>  (348) 
OCCNc1ccc2nnnc(Nc3cccc(OC(F)(F)F)c3)c2n1

>  <Name>  (348) 
nan

>  <Pocket>  (348) 
nan

>  <ATP_Site>  (348) 
nan

>  <Peripheral>  (348) 
nan

>  <Num_H_Atoms_ProtBoundConf>  (348) 
nan

>  <Num_Resolved_Atoms>  (348) 
nan

>  <Num_Not_Resolved_Atoms>  (348) 
nan

$$$$
CHEMBL3765339
     RDKit          3D

  0  0  0  0  0  0  0  0  0  0999 V3000
M  V30 BEGIN CTAB
M  V30 COUNTS 57 61 0 0 0
M  V30 BEGIN ATOM
M  V30 1 F 5.574265 -2.269950 3.358948 0
M  V30 2 C 5.481789 -2.188589 1.965437 0
M  V30 3 F 4.109367 -2.099720 1.702595 0
M  V30 4 F 6.067052 -3.228155 1.318719 0
M  V30 5 O 6.023680 -0.961335 1.487893 0
M  V30 6 C 5.467644 0.264009 1.904486 0
M  V30 7 C 5.803019 1.038894 2.993287 0
M  V30 8 C 5.174843 2.221884 3.292974 0
M  V30 9 C 4.155844 2.691637 2.489753 0
M  V30 10 C 3.751309 1.980503 1.372950 0
M  V30 11 N 2.693729 2.328135 0.485865 0
M  V30 12 C 1.594314 3.194845 0.851800 0
M  V30 13 N 1.627037 4.405967 1.436948 0
M  V30 14 N 0.509195 5.058263 1.722529 0
M  V30 15 N -0.666480 4.533151 1.437947 0
M  V30 16 C -0.755887 3.333509 0.855640 0
M  V30 17 C -2.031475 2.880724 0.597929 0
M  V30 18 C -2.117211 1.630707 -0.011971 0
M  V30 19 C -0.963274 0.897603 -0.333522 0
M  V30 20 N -1.134395 -0.373161 -0.994313 0
M  V30 21 C -0.307389 -1.557065 -0.791624 0
M  V30 22 C -1.070173 -2.759724 -1.284733 0
M  V30 23 C -2.506584 -2.622415 -0.876409 0
M  V30 24 N -3.206036 -3.898114 -0.961441 0
M  V30 25 C -4.631629 -3.707051 -0.701432 0
M  V30 26 C -5.070732 -5.026432 -0.118750 0
M  V30 27 C -3.809513 -5.861342 0.052592 0
M  V30 28 C -2.781431 -4.717511 0.159573 0
M  V30 29 C -3.166096 -1.587029 -1.737322 0
M  V30 30 C -2.207787 -0.452887 -1.963715 0
M  V30 31 N 0.259454 1.373201 -0.065754 0
M  V30 32 C 0.381010 2.570702 0.518067 0
M  V30 33 C 4.428103 0.800603 1.135776 0
M  V30 34 H 6.620229 0.607159 3.593753 0
M  V30 35 H 5.513454 2.756589 4.172970 0
M  V30 36 H 3.653962 3.607382 2.700443 0
M  V30 37 H 2.729140 1.926220 -0.496279 0
M  V30 38 H -2.953096 3.403566 0.827059 0
M  V30 39 H -3.139605 1.273808 -0.203570 0
M  V30 40 H 0.699222 -1.471175 -1.252691 0
M  V30 41 H -0.154343 -1.619754 0.306430 0
M  V30 42 H -1.034982 -2.797680 -2.415552 0
M  V30 43 H -0.635461 -3.703651 -0.885985 0
M  V30 44 H -2.529067 -2.219962 0.178458 0
M  V30 45 H -4.832894 -2.910176 0.014855 0
M  V30 46 H -5.171021 -3.581119 -1.671573 0
M  V30 47 H -5.726758 -5.584070 -0.846601 0
M  V30 48 H -5.634824 -4.931881 0.832994 0
M  V30 49 H -3.780445 -6.460987 0.957264 0
M  V30 50 H -3.549264 -6.401108 -0.873063 0
M  V30 51 H -1.763359 -5.099294 0.028183 0
M  V30 52 H -2.951451 -4.151383 1.079666 0
M  V30 53 H -3.533090 -2.027393 -2.689710 0
M  V30 54 H -4.091771 -1.160931 -1.258629 0
M  V30 55 H -2.757725 0.512279 -2.010957 0
M  V30 56 H -1.729145 -0.596834 -2.964273 0
M  V30 57 H 4.138744 0.222783 0.267173 0
M  V30 END ATOM
M  V30 BEGIN BOND
M  V30 1 1 1 2
M  V30 2 1 2 3
M  V30 3 1 2 4
M  V30 4 1 2 5
M  V30 5 1 5 6
M  V30 6 2 6 7
M  V30 7 1 7 8
M  V30 8 2 8 9
M  V30 9 1 9 10
M  V30 10 1 10 11
M  V30 11 1 11 12
M  V30 12 2 12 13
M  V30 13 1 13 14
M  V30 14 2 14 15
M  V30 15 1 15 16
M  V30 16 2 16 17
M  V30 17 1 17 18
M  V30 18 2 18 19
M  V30 19 1 19 20
M  V30 20 1 20 21
M  V30 21 1 21 22
M  V30 22 1 22 23
M  V30 23 1 23 24
M  V30 24 1 24 25
M  V30 25 1 25 26
M  V30 26 1 26 27
M  V30 27 1 27 28
M  V30 28 1 23 29
M  V30 29 1 29 30
M  V30 30 1 19 31
M  V30 31 2 31 32
M  V30 32 2 10 33
M  V30 33 1 33 6
M  V30 34 1 32 12
M  V30 35 1 32 16
M  V30 36 1 30 20
M  V30 37 1 28 24
M  V30 38 1 7 34
M  V30 39 1 8 35
M  V30 40 1 9 36
M  V30 41 1 11 37
M  V30 42 1 17 38
M  V30 43 1 18 39
M  V30 44 1 21 40
M  V30 45 1 21 41
M  V30 46 1 22 42
M  V30 47 1 22 43
M  V30 48 1 23 44
M  V30 49 1 25 45
M  V30 50 1 25 46
M  V30 51 1 26 47
M  V30 52 1 26 48
M  V30 53 1 27 49
M  V30 54 1 27 50
M  V30 55 1 28 51
M  V30 56 1 28 52
M  V30 57 1 29 53
M  V30 58 1 29 54
M  V30 59 1 30 55
M  V30 60 1 30 56
M  V30 61 1 33 57
M  V30 END BOND
M  V30 END CTAB
M  END
>  <Dataset>  (349) 
ChEMBL_Kinases

>  <Ligand_Instance>  (349) 
nan

>  <PDB_ID>  (349) 
nan

>  <Standardized_SMILES>  (349) 
FC(F)(F)Oc1cccc(Nc2nnnc3ccc(N4CCC(N5CCCC5)CC4)nc23)c1

>  <Name>  (349) 
nan

>  <Pocket>  (349) 
nan

>  <ATP_Site>  (349) 
nan

>  <Peripheral>  (349) 
nan

>  <Num_H_Atoms_ProtBoundConf>  (349) 
nan

>  <Num_Resolved_Atoms>  (349) 
nan

>  <Num_Not_Resolved_Atoms>  (349) 
nan

$$$$
CHEMBL3765319
     RDKit          3D

  0  0  0  0  0  0  0  0  0  0999 V3000
M  V30 BEGIN CTAB
M  V30 COUNTS 65 68 0 0 0
M  V30 BEGIN ATOM
M  V30 1 O -0.423479 -4.042026 6.690361 0
M  V30 2 C 0.060992 -3.720465 5.551956 0
M  V30 3 C 0.616743 -2.398621 5.287324 0
M  V30 4 C 1.129036 -1.995303 4.143072 0
M  V30 5 C 1.680757 -0.681923 3.881317 0
M  V30 6 C 1.757116 0.346453 4.794267 0
M  V30 7 C 2.308703 1.568803 4.416016 0
M  V30 8 C 2.804727 1.820812 3.123378 0
M  V30 9 O 3.266079 3.092134 3.086764 0
M  V30 10 C 3.835610 3.803020 2.053928 0
M  V30 11 C 3.013697 4.011125 0.850050 0
M  V30 12 C 2.150085 5.113491 0.952626 0
M  V30 13 C 1.303784 5.496840 -0.064661 0
M  V30 14 C 1.265038 4.805079 -1.249060 0
M  V30 15 C 2.100236 3.730188 -1.363017 0
M  V30 16 C 2.943906 3.349608 -0.346691 0
M  V30 17 C 2.704213 0.761802 2.254052 0
M  V30 18 C 2.165965 -0.438623 2.614693 0
M  V30 19 C -0.012940 -4.828350 4.568002 0
M  V30 20 C -1.337180 -4.866626 3.890161 0
M  V30 21 O -2.353481 -5.236710 4.527082 0
M  V30 22 C -1.435188 -4.467809 2.477725 0
M  V30 23 C -2.555031 -4.473733 1.817680 0
M  V30 24 C -2.758775 -4.099216 0.424495 0
M  V30 25 C -1.688603 -3.683831 -0.334249 0
M  V30 26 C -1.885791 -3.328997 -1.646619 0
M  V30 27 C -3.103973 -3.356343 -2.281448 0
M  V30 28 O -3.602343 -3.077930 -3.511143 0
M  V30 29 C -3.017160 -2.622433 -4.665882 0
M  V30 30 C -2.385043 -1.287669 -4.529122 0
M  V30 31 C -3.264229 -0.212226 -4.687794 0
M  V30 32 C -2.903170 1.116229 -4.617703 0
M  V30 33 C -1.600993 1.434673 -4.377407 0
M  V30 34 C -0.711020 0.412633 -4.216924 0
M  V30 35 C -1.084187 -0.907658 -4.289460 0
M  V30 36 C -4.183045 -3.784666 -1.484656 0
M  V30 37 C -4.014832 -4.154511 -0.139949 0
M  V30 38 H 0.595103 -1.703560 6.121658 0
M  V30 39 H 1.101234 -2.752665 3.389332 0
M  V30 40 H 1.370603 0.123002 5.771473 0
M  V30 41 H 2.283163 2.256628 5.270828 0
M  V30 42 H 4.136553 4.810890 2.475591 0
M  V30 43 H 4.840524 3.348493 1.765101 0
M  V30 44 H 2.084292 5.747606 1.842648 0
M  V30 45 H 0.639565 6.349866 0.022213 0
M  V30 46 H 0.650737 5.005359 -2.112622 0
M  V30 47 H 2.129098 3.128067 -2.272902 0
M  V30 48 H 3.614645 2.519044 -0.410110 0
M  V30 49 H 3.095111 1.004265 1.303276 0
M  V30 50 H 2.164764 -1.152120 1.817464 0
M  V30 51 H 0.207298 -5.805686 5.072908 0
M  V30 52 H 0.817675 -4.704328 3.845732 0
M  V30 53 H -0.545029 -4.153843 1.952452 0
M  V30 54 H -3.416123 -4.803313 2.410799 0
M  V30 55 H -0.679158 -3.608174 0.014437 0
M  V30 56 H -1.123178 -2.998383 -2.323465 0
M  V30 57 H -3.813725 -2.548590 -5.457273 0
M  V30 58 H -2.270335 -3.330238 -5.109274 0
M  V30 59 H -4.336964 -0.368366 -4.885830 0
M  V30 60 H -3.619903 1.914893 -4.747138 0
M  V30 61 H -1.273174 2.458630 -4.314133 0
M  V30 62 H 0.341008 0.591149 -4.022803 0
M  V30 63 H -0.417290 -1.750796 -4.179268 0
M  V30 64 H -5.238924 -3.893452 -1.750361 0
M  V30 65 H -4.804856 -4.489408 0.514896 0
M  V30 END ATOM
M  V30 BEGIN BOND
M  V30 1 2 1 2
M  V30 2 1 2 3
M  V30 3 2 3 4
M  V30 4 1 4 5
M  V30 5 2 5 6
M  V30 6 1 6 7
M  V30 7 2 7 8
M  V30 8 1 8 9
M  V30 9 1 9 10
M  V30 10 1 10 11
M  V30 11 2 11 12
M  V30 12 1 12 13
M  V30 13 2 13 14
M  V30 14 1 14 15
M  V30 15 2 15 16
M  V30 16 1 8 17
M  V30 17 2 17 18
M  V30 18 1 2 19
M  V30 19 1 19 20
M  V30 20 2 20 21
M  V30 21 1 20 22
M  V30 22 2 22 23
M  V30 23 1 23 24
M  V30 24 2 24 25
M  V30 25 1 25 26
M  V30 26 2 26 27
M  V30 27 1 27 28
M  V30 28 1 28 29
M  V30 29 1 29 30
M  V30 30 2 30 31
M  V30 31 1 31 32
M  V30 32 2 32 33
M  V30 33 1 33 34
M  V30 34 2 34 35
M  V30 35 1 27 36
M  V30 36 2 36 37
M  V30 37 1 18 5
M  V30 38 1 37 24
M  V30 39 1 16 11
M  V30 40 1 35 30
M  V30 41 1 3 38
M  V30 42 1 4 39
M  V30 43 1 6 40
M  V30 44 1 7 41
M  V30 45 1 10 42
M  V30 46 1 10 43
M  V30 47 1 12 44
M  V30 48 1 13 45
M  V30 49 1 14 46
M  V30 50 1 15 47
M  V30 51 1 16 48
M  V30 52 1 17 49
M  V30 53 1 18 50
M  V30 54 1 19 51
M  V30 55 1 19 52
M  V30 56 1 22 53
M  V30 57 1 23 54
M  V30 58 1 25 55
M  V30 59 1 26 56
M  V30 60 1 29 57
M  V30 61 1 29 58
M  V30 62 1 31 59
M  V30 63 1 32 60
M  V30 64 1 33 61
M  V30 65 1 34 62
M  V30 66 1 35 63
M  V30 67 1 36 64
M  V30 68 1 37 65
M  V30 END BOND
M  V30 END CTAB
M  END
>  <Dataset>  (350) 
ChEMBL_Kinases

>  <Ligand_Instance>  (350) 
nan

>  <PDB_ID>  (350) 
nan

>  <Standardized_SMILES>  (350) 
O=C(/C=C/c1ccc(OCc2ccccc2)cc1)CC(=O)/C=C/c1ccc(OCc2ccccc2)cc1

>  <Name>  (350) 
nan

>  <Pocket>  (350) 
nan

>  <ATP_Site>  (350) 
nan

>  <Peripheral>  (350) 
nan

>  <Num_H_Atoms_ProtBoundConf>  (350) 
nan

>  <Num_Resolved_Atoms>  (350) 
nan

>  <Num_Not_Resolved_Atoms>  (350) 
nan

$$$$
CHEMBL376526
     RDKit          3D

  0  0  0  0  0  0  0  0  0  0999 V3000
M  V30 BEGIN CTAB
M  V30 COUNTS 54 56 0 0 0
M  V30 BEGIN ATOM
M  V30 1 C 0.225144 4.665960 5.134886 0
M  V30 2 C 1.610012 4.441719 4.574125 0
M  V30 3 C 2.110480 5.565312 3.728005 0
M  V30 4 O 2.458836 4.358263 5.701899 0
M  V30 5 C 1.685604 3.215238 3.778061 0
M  V30 6 C 1.767205 2.203610 3.130818 0
M  V30 7 C 1.841575 0.999207 2.348625 0
M  V30 8 C 0.878985 0.596779 1.411774 0
M  V30 9 C 0.953406 -0.581414 0.650349 0
M  V30 10 C 2.079060 -1.329623 0.905711 0
M  V30 11 C 3.027447 -0.945228 1.820102 0
M  V30 12 C 2.952722 0.213189 2.567539 0
M  V30 13 Cl 4.183786 0.669205 3.724386 0
M  V30 14 N 2.426989 -2.568175 0.301023 0
M  V30 15 C 1.805605 -3.765045 -0.121127 0
M  V30 16 O 0.954889 -2.979708 0.367532 0
M  V30 17 N 0.876555 -4.793535 -0.417933 0
M  V30 18 C -0.498498 -5.132924 -0.352626 0
M  V30 19 C -1.075736 -6.131542 0.378654 0
M  V30 20 N -2.406077 -6.139567 0.196081 0
M  V30 21 C -3.018145 -5.236501 -0.627099 0
M  V30 22 C -4.465743 -5.444603 -0.663083 0
M  V30 23 N -5.612737 -5.593388 -0.704019 0
M  V30 24 C -2.346350 -4.233782 -1.349173 0
M  V30 25 N -1.020140 -4.217352 -1.173351 0
M  V30 26 O -3.251586 -3.504799 -2.075211 0
M  V30 27 C -3.209124 -3.043325 -3.359064 0
M  V30 28 C -2.186308 -2.062456 -3.794013 0
M  V30 29 C -2.231001 -0.719591 -3.166383 0
M  V30 30 C -1.857569 -0.576512 -1.743722 0
M  V30 31 C -0.357789 -0.769074 -1.475423 0
M  V30 32 O -0.162572 -0.574355 -0.109771 0
M  V30 33 H 0.316076 5.320426 6.010326 0
M  V30 34 H -0.460619 5.042334 4.355520 0
M  V30 35 H -0.111093 3.660372 5.523186 0
M  V30 36 H 2.153383 6.471192 4.369041 0
M  V30 37 H 3.147867 5.339053 3.452293 0
M  V30 38 H 1.464018 5.769135 2.854584 0
M  V30 39 H 2.919634 3.482506 5.649411 0
M  V30 40 H 0.091518 1.357846 1.397151 0
M  V30 41 H 3.918316 -1.531002 2.026204 0
M  V30 42 H 3.438267 -2.773904 0.038567 0
M  V30 43 H 1.308677 -5.629732 -0.853048 0
M  V30 44 H -0.296872 -6.630206 0.891538 0
M  V30 45 H -4.231436 -2.658915 -3.633760 0
M  V30 46 H -3.085268 -3.940137 -4.044041 0
M  V30 47 H -1.163783 -2.507992 -3.768662 0
M  V30 48 H -2.358893 -1.895399 -4.901345 0
M  V30 49 H -3.297565 -0.347951 -3.304158 0
M  V30 50 H -1.615059 -0.026609 -3.830114 0
M  V30 51 H -2.415841 -1.306722 -1.123225 0
M  V30 52 H -2.154647 0.418578 -1.356687 0
M  V30 53 H 0.208907 0.015599 -2.055516 0
M  V30 54 H -0.023556 -1.737908 -1.876136 0
M  V30 END ATOM
M  V30 BEGIN BOND
M  V30 1 1 1 2
M  V30 2 1 2 3
M  V30 3 1 2 4
M  V30 4 1 2 5
M  V30 5 3 5 6
M  V30 6 1 6 7
M  V30 7 2 7 8
M  V30 8 1 8 9
M  V30 9 2 9 10
M  V30 10 1 10 11
M  V30 11 2 11 12
M  V30 12 1 12 13
M  V30 13 1 10 14
M  V30 14 1 14 15
M  V30 15 2 15 16
M  V30 16 1 15 17
M  V30 17 1 17 18
M  V30 18 1 18 19
M  V30 19 2 19 20
M  V30 20 1 20 21
M  V30 21 1 21 22
M  V30 22 3 22 23
M  V30 23 2 21 24
M  V30 24 1 24 25
M  V30 25 1 24 26
M  V30 26 1 26 27
M  V30 27 1 27 28
M  V30 28 1 28 29
M  V30 29 1 29 30
M  V30 30 1 30 31
M  V30 31 1 31 32
M  V30 32 1 12 7
M  V30 33 2 25 18
M  V30 34 1 32 9
M  V30 35 1 1 33
M  V30 36 1 1 34
M  V30 37 1 1 35
M  V30 38 1 3 36
M  V30 39 1 3 37
M  V30 40 1 3 38
M  V30 41 1 4 39
M  V30 42 1 8 40
M  V30 43 1 11 41
M  V30 44 1 14 42
M  V30 45 1 17 43
M  V30 46 1 19 44
M  V30 47 1 27 45
M  V30 48 1 27 46
M  V30 49 1 28 47
M  V30 50 1 28 48
M  V30 51 1 29 49
M  V30 52 1 29 50
M  V30 53 1 30 51
M  V30 54 1 30 52
M  V30 55 1 31 53
M  V30 56 1 31 54
M  V30 END BOND
M  V30 END CTAB
M  END
>  <Dataset>  (351) 
ChEMBL_Kinases

>  <Ligand_Instance>  (351) 
nan

>  <PDB_ID>  (351) 
nan

>  <Standardized_SMILES>  (351) 
CC(C)(O)C#Cc1cc2c(cc1Cl)NC(=O)Nc1cnc(C#N)c(n1)OCCCCCO2

>  <Name>  (351) 
nan

>  <Pocket>  (351) 
nan

>  <ATP_Site>  (351) 
nan

>  <Peripheral>  (351) 
nan

>  <Num_H_Atoms_ProtBoundConf>  (351) 
nan

>  <Num_Resolved_Atoms>  (351) 
nan

>  <Num_Not_Resolved_Atoms>  (351) 
nan

$$$$
CHEMBL3765195
     RDKit          3D

  0  0  0  0  0  0  0  0  0  0999 V3000
M  V30 BEGIN CTAB
M  V30 COUNTS 65 68 0 0 0
M  V30 BEGIN ATOM
M  V30 1 O -2.214617 -4.860658 3.241520 0
M  V30 2 C -1.568403 -5.372503 2.287234 0
M  V30 3 C -1.954485 -4.838035 0.978888 0
M  V30 4 C -2.863255 -3.933452 0.766557 0
M  V30 5 C -3.277220 -3.371725 -0.528394 0
M  V30 6 C -4.292683 -2.406842 -0.549834 0
M  V30 7 C -4.691088 -1.861050 -1.748386 0
M  V30 8 C -4.138501 -2.214467 -2.959089 0
M  V30 9 O -4.371706 -1.813179 -4.232995 0
M  V30 10 C -5.261417 -0.892017 -4.747591 0
M  V30 11 C -5.132554 0.491761 -4.289643 0
M  V30 12 C -5.890454 1.237312 -3.412727 0
M  V30 13 C -5.633187 2.551595 -3.092182 0
M  V30 14 C -4.547314 3.201663 -3.670595 0
M  V30 15 F -4.393212 4.483701 -3.285427 0
M  V30 16 C -3.785342 2.476978 -4.542110 0
M  V30 17 C -4.042737 1.162812 -4.862361 0
M  V30 18 F -3.152775 0.637470 -5.751917 0
M  V30 19 C -3.122267 -3.182622 -2.924121 0
M  V30 20 C -2.696302 -3.755433 -1.717837 0
M  V30 21 C -0.528341 -6.398182 2.410621 0
M  V30 22 C 0.839931 -5.842339 2.567043 0
M  V30 23 O 1.820189 -6.614743 2.700074 0
M  V30 24 C 1.062766 -4.402793 2.567859 0
M  V30 25 C 2.282340 -3.914818 2.702642 0
M  V30 26 C 2.645947 -2.507865 2.721100 0
M  V30 27 C 3.938664 -2.090402 2.853690 0
M  V30 28 C 4.305543 -0.761880 2.874930 0
M  V30 29 C 3.367844 0.233772 2.761569 0
M  V30 30 O 3.628049 1.595372 2.771313 0
M  V30 31 C 4.961277 2.018304 2.905347 0
M  V30 32 C 5.077702 3.508480 2.903004 0
M  V30 33 C 5.513163 4.326908 1.857142 0
M  V30 34 C 5.543549 5.687896 2.062077 0
M  V30 35 C 5.152845 6.242404 3.276352 0
M  V30 36 F 5.211271 7.594557 3.407365 0
M  V30 37 C 4.720723 5.439275 4.316350 0
M  V30 38 C 4.692400 4.078148 4.104088 0
M  V30 39 F 4.251168 3.361535 5.187544 0
M  V30 40 C 2.038673 -0.138001 2.624370 0
M  V30 41 C 1.720907 -1.485494 2.608533 0
M  V30 42 H -1.437856 -5.227049 0.097223 0
M  V30 43 H -3.352564 -3.572944 1.666420 0
M  V30 44 H -4.754474 -2.096845 0.354354 0
M  V30 45 H -5.459328 -1.123643 -1.845241 0
M  V30 46 H -5.155129 -0.926816 -5.874297 0
M  V30 47 H -6.308122 -1.293958 -4.596023 0
M  V30 48 H -6.720646 0.631673 -3.013543 0
M  V30 49 H -6.360841 2.919911 -2.387536 0
M  V30 50 H -2.952171 3.062475 -4.951614 0
M  V30 51 H -2.580736 -3.573570 -3.802145 0
M  V30 52 H -1.901521 -4.508470 -1.723131 0
M  V30 53 H -0.716271 -6.981786 3.350898 0
M  V30 54 H -0.576773 -7.157333 1.588406 0
M  V30 55 H 0.252154 -3.698246 2.461093 0
M  V30 56 H 3.068700 -4.636834 2.804655 0
M  V30 57 H 4.717745 -2.844307 2.946118 0
M  V30 58 H 5.323653 -0.445304 2.979079 0
M  V30 59 H 5.608997 1.673914 2.048339 0
M  V30 60 H 5.374713 1.643710 3.867095 0
M  V30 61 H 5.788029 3.782146 0.967289 0
M  V30 62 H 5.885845 6.286794 1.228793 0
M  V30 63 H 4.419206 5.904651 5.265781 0
M  V30 64 H 1.268950 0.615079 2.532025 0
M  V30 65 H 0.670286 -1.712495 2.498749 0
M  V30 END ATOM
M  V30 BEGIN BOND
M  V30 1 2 1 2
M  V30 2 1 2 3
M  V30 3 2 3 4
M  V30 4 1 4 5
M  V30 5 2 5 6
M  V30 6 1 6 7
M  V30 7 2 7 8
M  V30 8 1 8 9
M  V30 9 1 9 10
M  V30 10 1 10 11
M  V30 11 2 11 12
M  V30 12 1 12 13
M  V30 13 2 13 14
M  V30 14 1 14 15
M  V30 15 1 14 16
M  V30 16 2 16 17
M  V30 17 1 17 18
M  V30 18 1 8 19
M  V30 19 2 19 20
M  V30 20 1 2 21
M  V30 21 1 21 22
M  V30 22 2 22 23
M  V30 23 1 22 24
M  V30 24 2 24 25
M  V30 25 1 25 26
M  V30 26 2 26 27
M  V30 27 1 27 28
M  V30 28 2 28 29
M  V30 29 1 29 30
M  V30 30 1 30 31
M  V30 31 1 31 32
M  V30 32 2 32 33
M  V30 33 1 33 34
M  V30 34 2 34 35
M  V30 35 1 35 36
M  V30 36 1 35 37
M  V30 37 2 37 38
M  V30 38 1 38 39
M  V30 39 1 29 40
M  V30 40 2 40 41
M  V30 41 1 20 5
M  V30 42 1 41 26
M  V30 43 1 17 11
M  V30 44 1 38 32
M  V30 45 1 3 42
M  V30 46 1 4 43
M  V30 47 1 6 44
M  V30 48 1 7 45
M  V30 49 1 10 46
M  V30 50 1 10 47
M  V30 51 1 12 48
M  V30 52 1 13 49
M  V30 53 1 16 50
M  V30 54 1 19 51
M  V30 55 1 20 52
M  V30 56 1 21 53
M  V30 57 1 21 54
M  V30 58 1 24 55
M  V30 59 1 25 56
M  V30 60 1 27 57
M  V30 61 1 28 58
M  V30 62 1 31 59
M  V30 63 1 31 60
M  V30 64 1 33 61
M  V30 65 1 34 62
M  V30 66 1 37 63
M  V30 67 1 40 64
M  V30 68 1 41 65
M  V30 END BOND
M  V30 END CTAB
M  END
>  <Dataset>  (352) 
ChEMBL_Kinases

>  <Ligand_Instance>  (352) 
nan

>  <PDB_ID>  (352) 
nan

>  <Standardized_SMILES>  (352) 
O=C(/C=C/c1ccc(OCc2ccc(F)cc2F)cc1)CC(=O)/C=C/c1ccc(OCc2ccc(F)cc2F)cc1

>  <Name>  (352) 
nan

>  <Pocket>  (352) 
nan

>  <ATP_Site>  (352) 
nan

>  <Peripheral>  (352) 
nan

>  <Num_H_Atoms_ProtBoundConf>  (352) 
nan

>  <Num_Resolved_Atoms>  (352) 
nan

>  <Num_Not_Resolved_Atoms>  (352) 
nan

$$$$
CHEMBL5084977
     RDKit          3D

  0  0  0  0  0  0  0  0  0  0999 V3000
M  V30 BEGIN CTAB
M  V30 COUNTS 50 51 0 0 0
M  V30 BEGIN ATOM
M  V30 1 C -3.316303 -6.779846 -1.183681 0
M  V30 2 C -2.150094 -6.358999 -0.361986 0
M  V30 3 C -1.762216 -5.035459 -0.429546 0
M  V30 4 C -0.662245 -4.653755 0.358042 0
M  V30 5 C -0.249763 -3.255616 0.291712 0
M  V30 6 C 0.808386 -2.818028 1.054667 0
M  V30 7 C 1.066645 -1.482079 0.897007 0
M  V30 8 C 0.423109 -0.577060 0.105211 0
M  V30 9 O 0.545504 0.686529 -0.147989 0
M  V30 10 C 0.684032 1.950123 -0.387491 0
M  V30 11 C 0.533323 3.026839 0.626761 0 CFG=1
M  V30 12 C 0.298942 4.296766 -0.302027 0
M  V30 13 N -0.811914 2.975171 1.256861 0
M  V30 14 C 1.583421 3.451010 1.513429 0
M  V30 15 C 2.291583 2.673842 2.508794 0
M  V30 16 C 3.070137 1.501206 1.992606 0
M  V30 17 C 1.462257 2.194797 3.687133 0
M  V30 18 C -0.656711 -1.106105 -0.651280 0
M  V30 19 C -1.565895 -0.387095 -1.616746 0
M  V30 20 F -0.741062 0.077842 -2.640861 0
M  V30 21 F -2.187972 0.684132 -1.018591 0
M  V30 22 N -0.956746 -2.444446 -0.528845 0
M  V30 23 C -0.050549 -5.606849 1.131099 0
M  V30 24 C -0.497845 -6.930041 1.148226 0
M  V30 25 N -1.557715 -7.308931 0.395760 0
M  V30 26 H -3.760219 -5.945593 -1.747309 0
M  V30 27 H -3.048783 -7.596952 -1.903609 0
M  V30 28 H -4.117741 -7.224449 -0.527206 0
M  V30 29 H -2.319298 -4.356364 -1.079389 0
M  V30 30 H 1.386937 -3.431280 1.712426 0
M  V30 31 H 1.882056 -1.060236 1.447400 0
M  V30 32 H -0.024548 2.246873 -1.269465 0
M  V30 33 H 1.695140 2.105489 -0.949282 0
M  V30 34 H 1.218951 4.369277 -0.905647 0
M  V30 35 H -0.569577 4.103732 -0.950547 0
M  V30 36 H 0.199318 5.162523 0.355971 0
M  V30 37 H -0.901166 3.914644 1.716968 0
M  V30 38 H -1.485600 2.987090 0.454357 0
M  V30 39 H 1.213060 4.403447 2.062238 0
M  V30 40 H 2.376626 3.964465 0.847019 0
M  V30 41 H 3.080985 3.322774 3.028450 0
M  V30 42 H 4.201828 1.690252 2.032824 0
M  V30 43 H 2.952814 0.607686 2.673818 0
M  V30 44 H 2.915464 1.257387 0.924159 0
M  V30 45 H 2.057578 1.390233 4.170960 0
M  V30 46 H 0.495829 1.761985 3.427559 0
M  V30 47 H 1.385249 2.995569 4.483112 0
M  V30 48 H -2.330856 -1.065500 -2.053428 0
M  V30 49 H 0.786914 -5.347010 1.742005 0
M  V30 50 H 0.010254 -7.671430 1.777617 0
M  V30 END ATOM
M  V30 BEGIN BOND
M  V30 1 1 1 2
M  V30 2 2 2 3
M  V30 3 1 3 4
M  V30 4 1 4 5
M  V30 5 2 5 6
M  V30 6 1 6 7
M  V30 7 2 7 8
M  V30 8 1 8 9
M  V30 9 1 9 10
M  V30 10 1 10 11
M  V30 11 1 11 12
M  V30 12 1 11 13 CFG=1
M  V30 13 1 11 14
M  V30 14 1 14 15
M  V30 15 1 15 16
M  V30 16 1 15 17
M  V30 17 1 8 18
M  V30 18 1 18 19
M  V30 19 1 19 20
M  V30 20 1 19 21
M  V30 21 2 18 22
M  V30 22 2 4 23
M  V30 23 1 23 24
M  V30 24 2 24 25
M  V30 25 1 25 2
M  V30 26 1 22 5
M  V30 27 1 1 26
M  V30 28 1 1 27
M  V30 29 1 1 28
M  V30 30 1 3 29
M  V30 31 1 6 30
M  V30 32 1 7 31
M  V30 33 1 10 32
M  V30 34 1 10 33
M  V30 35 1 12 34
M  V30 36 1 12 35
M  V30 37 1 12 36
M  V30 38 1 13 37
M  V30 39 1 13 38
M  V30 40 1 14 39
M  V30 41 1 14 40
M  V30 42 1 15 41
M  V30 43 1 16 42
M  V30 44 1 16 43
M  V30 45 1 16 44
M  V30 46 1 17 45
M  V30 47 1 17 46
M  V30 48 1 17 47
M  V30 49 1 19 48
M  V30 50 1 23 49
M  V30 51 1 24 50
M  V30 END BOND
M  V30 END CTAB
M  END
>  <Dataset>  (353) 
ChEMBL_Kinases

>  <Ligand_Instance>  (353) 
nan

>  <PDB_ID>  (353) 
nan

>  <Standardized_SMILES>  (353) 
Cc1cc(-c2ccc(OC[C@@](C)(N)CC(C)C)c(C(F)F)n2)ccn1

>  <Name>  (353) 
nan

>  <Pocket>  (353) 
nan

>  <ATP_Site>  (353) 
nan

>  <Peripheral>  (353) 
nan

>  <Num_H_Atoms_ProtBoundConf>  (353) 
nan

>  <Num_Resolved_Atoms>  (353) 
nan

>  <Num_Not_Resolved_Atoms>  (353) 
nan

$$$$
CHEMBL3765175
     RDKit          3D

  0  0  0  0  0  0  0  0  0  0999 V3000
M  V30 BEGIN CTAB
M  V30 COUNTS 34 36 0 0 0
M  V30 BEGIN ATOM
M  V30 1 C -1.046130 -4.269859 0.365933 0
M  V30 2 O 0.222337 -4.279462 0.943254 0
M  V30 3 C 1.146501 -3.247682 0.913158 0
M  V30 4 C 2.302300 -3.621912 1.598965 0
M  V30 5 C 3.422292 -2.818724 1.757481 0
M  V30 6 C 3.377151 -1.541012 1.182788 0
M  V30 7 N 4.389732 -0.659205 1.264387 0
M  V30 8 N 4.275469 0.522347 0.704659 0
M  V30 9 N 3.183483 0.866457 0.059842 0
M  V30 10 C 2.120013 0.027767 -0.063990 0
M  V30 11 N 1.022791 0.556759 -0.792626 0
M  V30 12 C -0.216824 1.223350 -0.577783 0
M  V30 13 C -0.846461 1.714743 -1.690380 0
M  V30 14 C -2.043858 2.341668 -1.495771 0
M  V30 15 C -2.582532 2.466359 -0.226393 0
M  V30 16 C -1.919968 1.959130 0.872258 0
M  V30 17 O -2.493048 2.101874 2.152883 0
M  V30 18 C -3.353211 1.009170 2.514094 0
M  V30 19 F -3.898794 1.161998 3.760784 0
M  V30 20 F -4.346736 0.944972 1.529673 0
M  V30 21 F -2.609819 -0.146420 2.391629 0
M  V30 22 C -0.691837 1.310747 0.715429 0
M  V30 23 C 2.212839 -1.226001 0.517649 0
M  V30 24 N 1.122002 -1.999352 0.359265 0
M  V30 25 H -1.798030 -4.026432 1.147021 0
M  V30 26 H -1.074773 -3.538002 -0.472355 0
M  V30 27 H -1.294912 -5.293410 -0.010013 0
M  V30 28 H 2.477143 -4.586478 2.096435 0
M  V30 29 H 4.313464 -3.066747 2.271086 0
M  V30 30 H 1.355471 0.311483 -1.772269 0
M  V30 31 H -0.452835 1.631915 -2.689837 0
M  V30 32 H -2.576659 2.744695 -2.331681 0
M  V30 33 H -3.517391 2.963470 -0.122446 0
M  V30 34 H -0.180777 0.918307 1.585110 0
M  V30 END ATOM
M  V30 BEGIN BOND
M  V30 1 1 1 2
M  V30 2 1 2 3
M  V30 3 2 3 4
M  V30 4 1 4 5
M  V30 5 2 5 6
M  V30 6 1 6 7
M  V30 7 2 7 8
M  V30 8 1 8 9
M  V30 9 2 9 10
M  V30 10 1 10 11
M  V30 11 1 11 12
M  V30 12 2 12 13
M  V30 13 1 13 14
M  V30 14 2 14 15
M  V30 15 1 15 16
M  V30 16 1 16 17
M  V30 17 1 17 18
M  V30 18 1 18 19
M  V30 19 1 18 20
M  V30 20 1 18 21
M  V30 21 2 16 22
M  V30 22 1 10 23
M  V30 23 2 23 24
M  V30 24 1 24 3
M  V30 25 1 23 6
M  V30 26 1 22 12
M  V30 27 1 1 25
M  V30 28 1 1 26
M  V30 29 1 1 27
M  V30 30 1 4 28
M  V30 31 1 5 29
M  V30 32 1 11 30
M  V30 33 1 13 31
M  V30 34 1 14 32
M  V30 35 1 15 33
M  V30 36 1 22 34
M  V30 END BOND
M  V30 END CTAB
M  END
>  <Dataset>  (354) 
ChEMBL_Kinases

>  <Ligand_Instance>  (354) 
nan

>  <PDB_ID>  (354) 
nan

>  <Standardized_SMILES>  (354) 
COc1ccc2nnnc(Nc3cccc(OC(F)(F)F)c3)c2n1

>  <Name>  (354) 
nan

>  <Pocket>  (354) 
nan

>  <ATP_Site>  (354) 
nan

>  <Peripheral>  (354) 
nan

>  <Num_H_Atoms_ProtBoundConf>  (354) 
nan

>  <Num_Resolved_Atoms>  (354) 
nan

>  <Num_Not_Resolved_Atoms>  (354) 
nan

$$$$
CHEMBL5084985
     RDKit          3D

  0  0  0  0  0  0  0  0  0  0999 V3000
M  V30 BEGIN CTAB
M  V30 COUNTS 60 64 0 0 0
M  V30 BEGIN ATOM
M  V30 1 C 2.367548 -4.414912 4.234504 0
M  V30 2 O 1.837998 -3.518158 3.276039 0
M  V30 3 C 2.350210 -2.220436 3.272067 0
M  V30 4 C 3.327278 -1.795649 4.146104 0
M  V30 5 C 3.788515 -0.487125 4.082591 0
M  V30 6 C 3.221725 0.317833 3.123611 0
M  V30 7 C 2.241627 -0.076749 2.233427 0
M  V30 8 C 1.806327 0.964516 1.314758 0
M  V30 9 N 2.664750 1.513207 0.441999 0
M  V30 10 C 1.974902 2.444699 -0.271874 0
M  V30 11 S 2.103546 3.653741 -1.565039 0
M  V30 12 C 0.341165 4.159354 -1.456183 0
M  V30 13 C -0.171395 3.335121 -0.422851 0
M  V30 14 N 0.720233 2.500141 0.119643 0
M  V30 15 C 0.597880 1.588034 1.103950 0
M  V30 16 C -0.528444 1.149835 1.956838 0
M  V30 17 C -0.437668 1.306510 3.321968 0
M  V30 18 C -1.493892 0.898012 4.130802 0
M  V30 19 N -2.579910 0.358027 3.548457 0
M  V30 20 C -2.679502 0.200175 2.217436 0
M  V30 21 N -3.714090 -0.335497 1.404716 0
M  V30 22 C -3.812479 -1.743087 1.018009 0
M  V30 23 C -2.551657 -2.161144 0.273428 0
M  V30 24 N -2.567308 -3.533582 -0.151764 0
M  V30 25 S -1.081094 -3.918332 -0.992184 0
M  V30 26 O -1.099561 -5.378596 -1.395644 0
M  V30 27 O 0.039059 -3.709291 -0.043923 0
M  V30 28 C -0.946614 -2.909121 -2.413970 0
M  V30 29 C -1.379804 -3.176110 -3.682648 0
M  V30 30 C -1.182798 -2.240082 -4.688903 0
M  V30 31 C -0.557862 -1.048694 -4.425585 0
M  V30 32 C -0.329726 -0.017974 -5.484313 0
M  V30 33 C -0.099877 -0.735422 -3.144495 0
M  V30 34 C -0.313649 -1.695353 -2.161199 0
M  V30 35 N -1.648463 0.601410 1.455078 0
M  V30 36 C 1.795826 -1.395223 2.317894 0
M  V30 37 H 1.727101 -5.319860 4.249072 0
M  V30 38 H 2.358680 -3.952338 5.239453 0
M  V30 39 H 3.398292 -4.726700 3.935743 0
M  V30 40 H 3.733141 -2.488804 4.883133 0
M  V30 41 H 4.556884 -0.145993 4.767072 0
M  V30 42 H 3.633644 1.339909 3.129604 0
M  V30 43 H -0.150246 4.922383 -2.067501 0
M  V30 44 H -1.217464 3.501475 -0.219856 0
M  V30 45 H 0.431823 1.737361 3.773546 0
M  V30 46 H -1.499959 0.985527 5.197252 0
M  V30 47 H -4.379783 0.434837 1.136386 0
M  V30 48 H -4.644744 -1.795114 0.285441 0
M  V30 49 H -4.047837 -2.414213 1.843762 0
M  V30 50 H -2.326844 -1.490697 -0.559405 0
M  V30 51 H -1.730238 -2.039237 1.017917 0
M  V30 52 H -3.317196 -3.650006 -0.888806 0
M  V30 53 H -1.856567 -4.130736 -3.795761 0
M  V30 54 H -1.534475 -2.479144 -5.675322 0
M  V30 55 H 0.742006 0.302021 -5.326573 0
M  V30 56 H -0.421689 -0.465995 -6.478497 0
M  V30 57 H -0.995270 0.869011 -5.349482 0
M  V30 58 H 0.392084 0.205972 -2.943169 0
M  V30 59 H 0.071101 -1.383942 -1.177029 0
M  V30 60 H 1.031435 -1.640757 1.595144 0
M  V30 END ATOM
M  V30 BEGIN BOND
M  V30 1 1 1 2
M  V30 2 1 2 3
M  V30 3 2 3 4
M  V30 4 1 4 5
M  V30 5 2 5 6
M  V30 6 1 6 7
M  V30 7 1 7 8
M  V30 8 1 8 9
M  V30 9 2 9 10
M  V30 10 1 10 11
M  V30 11 1 11 12
M  V30 12 2 12 13
M  V30 13 1 13 14
M  V30 14 1 14 15
M  V30 15 1 15 16
M  V30 16 2 16 17
M  V30 17 1 17 18
M  V30 18 2 18 19
M  V30 19 1 19 20
M  V30 20 1 20 21
M  V30 21 1 21 22
M  V30 22 1 22 23
M  V30 23 1 23 24
M  V30 24 1 24 25
M  V30 25 2 25 26
M  V30 26 2 25 27
M  V30 27 1 25 28
M  V30 28 2 28 29
M  V30 29 1 29 30
M  V30 30 2 30 31
M  V30 31 1 31 32
M  V30 32 1 31 33
M  V30 33 2 33 34
M  V30 34 2 20 35
M  V30 35 2 7 36
M  V30 36 1 36 3
M  V30 37 2 15 8
M  V30 38 1 35 16
M  V30 39 1 14 10
M  V30 40 1 34 28
M  V30 41 1 1 37
M  V30 42 1 1 38
M  V30 43 1 1 39
M  V30 44 1 4 40
M  V30 45 1 5 41
M  V30 46 1 6 42
M  V30 47 1 12 43
M  V30 48 1 13 44
M  V30 49 1 17 45
M  V30 50 1 18 46
M  V30 51 1 21 47
M  V30 52 1 22 48
M  V30 53 1 22 49
M  V30 54 1 23 50
M  V30 55 1 23 51
M  V30 56 1 24 52
M  V30 57 1 29 53
M  V30 58 1 30 54
M  V30 59 1 32 55
M  V30 60 1 32 56
M  V30 61 1 32 57
M  V30 62 1 33 58
M  V30 63 1 34 59
M  V30 64 1 36 60
M  V30 END BOND
M  V30 END CTAB
M  END
>  <Dataset>  (355) 
ChEMBL_Kinases

>  <Ligand_Instance>  (355) 
nan

>  <PDB_ID>  (355) 
nan

>  <Standardized_SMILES>  (355) 
COc1cccc(-c2nc3sccn3c2-c2ccnc(NCCNS(=O)(=O)c3ccc(C)cc3)n2)c1

>  <Name>  (355) 
nan

>  <Pocket>  (355) 
nan

>  <ATP_Site>  (355) 
nan

>  <Peripheral>  (355) 
nan

>  <Num_H_Atoms_ProtBoundConf>  (355) 
nan

>  <Num_Resolved_Atoms>  (355) 
nan

>  <Num_Not_Resolved_Atoms>  (355) 
nan

$$$$
CHEMBL3702313
     RDKit          3D

  0  0  0  0  0  0  0  0  0  0999 V3000
M  V30 BEGIN CTAB
M  V30 COUNTS 61 63 0 0 0
M  V30 BEGIN ATOM
M  V30 1 C 2.275751 -2.327243 2.859739 0
M  V30 2 C 1.642053 -0.956032 2.772171 0
M  V30 3 C 2.238661 0.124824 3.284620 0
M  V30 4 C 3.477363 0.389166 3.983894 0
M  V30 5 O 4.279589 -0.572583 4.247148 0
M  V30 6 N 3.853893 1.674227 4.397308 0
M  V30 7 C 5.044548 2.076489 5.090184 0
M  V30 8 C 4.968800 3.590452 5.313371 0
M  V30 9 O 4.890116 4.314970 4.148987 0
M  V30 10 S 1.095771 1.490533 2.928804 0
M  V30 11 C -0.104607 0.437586 2.099658 0
M  V30 12 N -1.282873 0.779286 1.537711 0
M  V30 13 C -2.068325 -0.120213 0.955963 0
M  V30 14 N -1.591112 -1.403093 0.971552 0
M  V30 15 C -0.424467 -1.687016 1.538404 0
M  V30 16 N -0.150801 -3.095300 1.400456 0
M  V30 17 C -1.025989 -3.954254 0.695722 0
M  V30 18 C -1.770938 -4.988148 1.204090 0
M  V30 19 C -2.625964 -5.849451 0.565686 0
M  V30 20 C -2.734628 -5.617496 -0.800277 0
M  V30 21 F -3.602397 -6.504761 -1.389531 0
M  V30 22 C -2.017295 -4.593571 -1.405294 0
M  V30 23 C -1.164701 -3.764743 -0.659488 0
M  V30 24 O -0.655621 -2.927045 -1.535662 0
M  V30 25 C 0.170180 -1.912763 -1.782880 0
M  V30 26 C 1.242564 -2.237037 -2.858988 0
M  V30 27 C -0.509252 -0.625757 -2.182243 0
M  V30 28 O 0.324441 0.320221 -2.413080 0
M  V30 29 N -1.934605 -0.454405 -2.299324 0
M  V30 30 C -2.214327 0.883752 -2.704420 0
M  V30 31 C -3.664910 1.194309 -2.870082 0
M  V30 32 C -4.365606 0.355538 -3.879865 0
M  V30 33 N -5.757594 0.814691 -3.917218 0
M  V30 34 C 0.440195 -0.819091 2.159199 0
M  V30 35 H 1.513641 -2.911002 3.459017 0
M  V30 36 H 3.170501 -2.331436 3.469153 0
M  V30 37 H 2.523511 -2.754308 1.894553 0
M  V30 38 H 3.159974 2.447791 4.156287 0
M  V30 39 H 5.987191 1.815500 4.552642 0
M  V30 40 H 5.042256 1.625931 6.119571 0
M  V30 41 H 5.811675 3.933655 5.946037 0
M  V30 42 H 4.043825 3.843895 5.892106 0
M  V30 43 H 5.419391 3.891045 3.415493 0
M  V30 44 H -2.961736 0.320006 0.569516 0
M  V30 45 H 0.505958 -3.860599 1.621115 0
M  V30 46 H -1.615548 -5.096086 2.291689 0
M  V30 47 H -3.098086 -6.588827 1.182632 0
M  V30 48 H -2.270222 -4.616641 -2.459837 0
M  V30 49 H 0.802231 -1.664155 -0.909689 0
M  V30 50 H 0.858531 -2.088395 -3.871430 0
M  V30 51 H 1.562698 -3.265969 -2.608066 0
M  V30 52 H 2.112617 -1.571389 -2.718662 0
M  V30 53 H -2.392184 -1.359203 -2.053058 0
M  V30 54 H -1.682351 1.024656 -3.692449 0
M  V30 55 H -1.718232 1.582245 -2.003578 0
M  V30 56 H -3.727480 2.266101 -3.218823 0
M  V30 57 H -4.151319 1.185051 -1.877323 0
M  V30 58 H -3.958614 0.520834 -4.898667 0
M  V30 59 H -4.313556 -0.729872 -3.677914 0
M  V30 60 H -6.073259 1.137508 -2.973357 0
M  V30 61 H -5.857143 1.547006 -4.627847 0
M  V30 END ATOM
M  V30 BEGIN BOND
M  V30 1 1 1 2
M  V30 2 2 2 3
M  V30 3 1 3 4
M  V30 4 2 4 5
M  V30 5 1 4 6
M  V30 6 1 6 7
M  V30 7 1 7 8
M  V30 8 1 8 9
M  V30 9 1 3 10
M  V30 10 1 10 11
M  V30 11 2 11 12
M  V30 12 1 12 13
M  V30 13 2 13 14
M  V30 14 1 14 15
M  V30 15 1 15 16
M  V30 16 1 16 17
M  V30 17 2 17 18
M  V30 18 1 18 19
M  V30 19 2 19 20
M  V30 20 1 20 21
M  V30 21 1 20 22
M  V30 22 2 22 23
M  V30 23 1 23 24
M  V30 24 1 24 25
M  V30 25 1 25 26
M  V30 26 1 25 27
M  V30 27 2 27 28
M  V30 28 1 27 29
M  V30 29 1 29 30
M  V30 30 1 30 31
M  V30 31 1 31 32
M  V30 32 1 32 33
M  V30 33 2 15 34
M  V30 34 1 34 2
M  V30 35 1 34 11
M  V30 36 1 23 17
M  V30 37 1 1 35
M  V30 38 1 1 36
M  V30 39 1 1 37
M  V30 40 1 6 38
M  V30 41 1 7 39
M  V30 42 1 7 40
M  V30 43 1 8 41
M  V30 44 1 8 42
M  V30 45 1 9 43
M  V30 46 1 13 44
M  V30 47 1 16 45
M  V30 48 1 18 46
M  V30 49 1 19 47
M  V30 50 1 22 48
M  V30 51 1 25 49
M  V30 52 1 26 50
M  V30 53 1 26 51
M  V30 54 1 26 52
M  V30 55 1 29 53
M  V30 56 1 30 54
M  V30 57 1 30 55
M  V30 58 1 31 56
M  V30 59 1 31 57
M  V30 60 1 32 58
M  V30 61 1 32 59
M  V30 62 1 33 60
M  V30 63 1 33 61
M  V30 END BOND
M  V30 END CTAB
M  END
>  <Dataset>  (356) 
ChEMBL_Kinases

>  <Ligand_Instance>  (356) 
nan

>  <PDB_ID>  (356) 
nan

>  <Standardized_SMILES>  (356) 
Cc1c(C(=O)NCCO)sc2ncnc(Nc3ccc(F)cc3OC(C)C(=O)NCCCN)c12

>  <Name>  (356) 
nan

>  <Pocket>  (356) 
nan

>  <ATP_Site>  (356) 
nan

>  <Peripheral>  (356) 
nan

>  <Num_H_Atoms_ProtBoundConf>  (356) 
nan

>  <Num_Resolved_Atoms>  (356) 
nan

>  <Num_Not_Resolved_Atoms>  (356) 
nan

$$$$
CHEMBL3765061
     RDKit          3D

  0  0  0  0  0  0  0  0  0  0999 V3000
M  V30 BEGIN CTAB
M  V30 COUNTS 52 54 0 0 0
M  V30 BEGIN ATOM
M  V30 1 O 1.024163 -1.297386 5.419821 0
M  V30 2 C 1.733444 -0.818565 4.506309 0
M  V30 3 C 1.190029 -0.868816 3.154702 0
M  V30 4 C 0.003326 -1.404164 2.958294 0
M  V30 5 O -0.737357 -1.923080 4.031497 0
M  V30 6 C -0.609313 -1.491867 1.636408 0
M  V30 7 C -1.775299 -2.012902 1.409200 0
M  V30 8 C -2.450306 -2.136339 0.125693 0
M  V30 9 C -1.822173 -1.662403 -1.001771 0
M  V30 10 C -2.449512 -1.774035 -2.216745 0
M  V30 11 C -3.688109 -2.334963 -2.409035 0
M  V30 12 O -4.561293 -2.595841 -3.406866 0
M  V30 13 C -4.419323 -2.307806 -4.755013 0
M  V30 14 C -4.288964 -0.874785 -5.104250 0
M  V30 15 C -5.546177 -0.251661 -5.188187 0
M  V30 16 C -5.717395 1.075749 -5.514543 0
M  V30 17 C -4.630748 1.879784 -5.782258 0
M  V30 18 C -3.395518 1.277438 -5.702590 0
M  V30 19 C -3.221208 -0.048097 -5.377169 0
M  V30 20 C -4.308090 -2.812529 -1.234359 0
M  V30 21 C -3.697138 -2.716337 0.028561 0
M  V30 22 C 3.060021 -0.224956 4.754020 0
M  V30 23 C 3.849564 0.289727 3.853341 0
M  V30 24 C 5.150694 0.871561 4.099665 0
M  V30 25 C 5.727573 0.954280 5.348203 0
M  V30 26 C 6.973232 1.506967 5.610072 0
M  V30 27 C 7.674607 2.009684 4.511242 0
M  V30 28 O 8.923988 2.581561 4.659538 0
M  V30 29 C 7.146623 1.954253 3.236521 0
M  V30 30 C 5.891205 1.383167 3.064302 0
M  V30 31 H 1.663866 -0.504530 2.258893 0
M  V30 32 H -1.031288 -2.897104 3.893993 0
M  V30 33 H -0.053099 -1.097629 0.803290 0
M  V30 34 H -2.273247 -2.389319 2.306591 0
M  V30 35 H -0.854105 -1.193697 -1.044563 0
M  V30 36 H -2.062428 -1.451119 -3.165652 0
M  V30 37 H -3.469520 -2.801414 -5.158145 0
M  V30 38 H -5.268374 -2.748811 -5.358228 0
M  V30 39 H -6.509275 -0.754657 -5.004092 0
M  V30 40 H -6.679696 1.558867 -5.580459 0
M  V30 41 H -4.600244 2.906381 -6.044135 0
M  V30 42 H -2.463778 1.783675 -5.885708 0
M  V30 43 H -2.296074 -0.569958 -5.310998 0
M  V30 44 H -5.288492 -3.302976 -1.088340 0
M  V30 45 H -4.109930 -3.058323 0.965535 0
M  V30 46 H 3.394759 -0.227046 5.802374 0
M  V30 47 H 3.456139 0.255105 2.861775 0
M  V30 48 H 5.217013 0.579526 6.205210 0
M  V30 49 H 7.405668 1.562155 6.590101 0
M  V30 50 H 9.229384 3.400550 4.154213 0
M  V30 51 H 7.727200 2.359200 2.399247 0
M  V30 52 H 5.499390 1.354420 2.038565 0
M  V30 END ATOM
M  V30 BEGIN BOND
M  V30 1 2 1 2
M  V30 2 1 2 3
M  V30 3 2 3 4
M  V30 4 1 4 5
M  V30 5 1 4 6
M  V30 6 2 6 7
M  V30 7 1 7 8
M  V30 8 2 8 9
M  V30 9 1 9 10
M  V30 10 2 10 11
M  V30 11 1 11 12
M  V30 12 1 12 13
M  V30 13 1 13 14
M  V30 14 2 14 15
M  V30 15 1 15 16
M  V30 16 2 16 17
M  V30 17 1 17 18
M  V30 18 2 18 19
M  V30 19 1 11 20
M  V30 20 2 20 21
M  V30 21 1 2 22
M  V30 22 2 22 23
M  V30 23 1 23 24
M  V30 24 2 24 25
M  V30 25 1 25 26
M  V30 26 2 26 27
M  V30 27 1 27 28
M  V30 28 1 27 29
M  V30 29 2 29 30
M  V30 30 1 21 8
M  V30 31 1 30 24
M  V30 32 1 19 14
M  V30 33 1 3 31
M  V30 34 1 5 32
M  V30 35 1 6 33
M  V30 36 1 7 34
M  V30 37 1 9 35
M  V30 38 1 10 36
M  V30 39 1 13 37
M  V30 40 1 13 38
M  V30 41 1 15 39
M  V30 42 1 16 40
M  V30 43 1 17 41
M  V30 44 1 18 42
M  V30 45 1 19 43
M  V30 46 1 20 44
M  V30 47 1 21 45
M  V30 48 1 22 46
M  V30 49 1 23 47
M  V30 50 1 25 48
M  V30 51 1 26 49
M  V30 52 1 28 50
M  V30 53 1 29 51
M  V30 54 1 30 52
M  V30 END BOND
M  V30 END CTAB
M  END
>  <Dataset>  (357) 
ChEMBL_Kinases

>  <Ligand_Instance>  (357) 
nan

>  <PDB_ID>  (357) 
nan

>  <Standardized_SMILES>  (357) 
O=C(/C=C(O)/C=C/c1ccc(OCc2ccccc2)cc1)/C=C/c1ccc(O)cc1

>  <Name>  (357) 
nan

>  <Pocket>  (357) 
nan

>  <ATP_Site>  (357) 
nan

>  <Peripheral>  (357) 
nan

>  <Num_H_Atoms_ProtBoundConf>  (357) 
nan

>  <Num_Resolved_Atoms>  (357) 
nan

>  <Num_Not_Resolved_Atoms>  (357) 
nan

$$$$
CHEMBL376506
     RDKit          3D

  0  0  0  0  0  0  0  0  0  0999 V3000
M  V30 BEGIN CTAB
M  V30 COUNTS 66 68 0 0 0
M  V30 BEGIN ATOM
M  V30 1 C 3.718036 -3.205854 5.612440 0
M  V30 2 O 3.857357 -3.646201 4.304352 0
M  V30 3 N 3.715813 -2.623183 3.432667 0
M  V30 4 C 4.779912 -1.803763 2.967418 0
M  V30 5 O 5.902990 -2.095680 3.432160 0
M  V30 6 C 4.640004 -0.708773 2.034844 0
M  V30 7 C 5.795234 -0.023935 1.733338 0
M  V30 8 C 5.725822 1.030226 0.850264 0
M  V30 9 C 4.543616 1.416471 0.264170 0
M  V30 10 C 4.522604 2.558790 -0.679772 0
M  V30 11 C 3.346663 0.750871 0.539945 0
M  V30 12 N 2.141498 1.142026 -0.053580 0
M  V30 13 C 0.829630 0.609265 0.079392 0
M  V30 14 N -0.174798 1.190732 -0.599378 0
M  V30 15 C -1.453049 0.812388 -0.579040 0
M  V30 16 N -2.449628 1.488942 -1.334812 0
M  V30 17 C -2.046597 2.622362 -2.144565 0
M  V30 18 C -3.823171 1.044031 -1.285847 0
M  V30 19 C -4.279142 0.452419 -2.599056 0
M  V30 20 C -3.454044 -0.749695 -3.012233 0
M  V30 21 C -5.687465 -0.091431 -2.365052 0
M  V30 22 C -4.363894 1.444807 -3.714835 0
M  V30 23 N -1.718684 -0.247419 0.200864 0
M  V30 24 C -0.776151 -0.885538 0.910575 0
M  V30 25 N -1.164569 -1.995355 1.707892 0
M  V30 26 C -0.184928 -2.823433 2.375011 0
M  V30 27 C -0.575414 -4.299080 2.255208 0
M  V30 28 N -1.871930 -4.497735 2.844390 0
M  V30 29 C -2.835746 -3.784832 2.060201 0
M  V30 30 C -2.561591 -2.327985 1.883766 0
M  V30 31 N 0.484956 -0.441096 0.834412 0
M  V30 32 C 3.479935 -0.298160 1.433772 0
M  V30 33 H 2.812444 -3.676212 6.031955 0
M  V30 34 H 3.619612 -2.099164 5.652411 0
M  V30 35 H 4.631401 -3.454441 6.223919 0
M  V30 36 H 2.763931 -2.439327 3.094767 0
M  V30 37 H 6.777788 -0.233176 2.128572 0
M  V30 38 H 6.614839 1.601164 0.583258 0
M  V30 39 H 4.437959 2.273108 -1.734225 0
M  V30 40 H 3.735498 3.308605 -0.374588 0
M  V30 41 H 5.474837 3.111601 -0.557195 0
M  V30 42 H 2.232835 1.976679 -0.711852 0
M  V30 43 H -1.311990 3.185772 -1.500599 0
M  V30 44 H -1.461599 2.308878 -3.035249 0
M  V30 45 H -2.862162 3.325955 -2.369715 0
M  V30 46 H -4.543189 1.841799 -1.030460 0
M  V30 47 H -3.928258 0.248721 -0.519547 0
M  V30 48 H -4.096540 -1.475947 -3.556274 0
M  V30 49 H -3.075889 -1.310687 -2.130366 0
M  V30 50 H -2.660398 -0.407990 -3.705502 0
M  V30 51 H -5.694863 -0.955184 -1.668820 0
M  V30 52 H -6.358050 0.673702 -1.966962 0
M  V30 53 H -6.109637 -0.440628 -3.342898 0
M  V30 54 H -4.826768 2.384181 -3.376430 0
M  V30 55 H -5.076112 0.996028 -4.466678 0
M  V30 56 H -3.412706 1.592914 -4.255245 0
M  V30 57 H -0.037203 -2.583181 3.425615 0
M  V30 58 H 0.765022 -2.688136 1.823088 0
M  V30 59 H 0.158705 -4.901291 2.818947 0
M  V30 60 H -0.605238 -4.566976 1.160025 0
M  V30 61 H -2.113009 -5.505564 2.793485 0
M  V30 62 H -3.849548 -3.851460 2.555799 0
M  V30 63 H -3.012322 -4.265978 1.058153 0
M  V30 64 H -2.908948 -1.711121 2.742989 0
M  V30 65 H -3.200534 -1.971497 1.022894 0
M  V30 66 H 2.613602 -0.879630 1.715050 0
M  V30 END ATOM
M  V30 BEGIN BOND
M  V30 1 1 1 2
M  V30 2 1 2 3
M  V30 3 1 3 4
M  V30 4 2 4 5
M  V30 5 1 4 6
M  V30 6 2 6 7
M  V30 7 1 7 8
M  V30 8 2 8 9
M  V30 9 1 9 10
M  V30 10 1 9 11
M  V30 11 1 11 12
M  V30 12 1 12 13
M  V30 13 2 13 14
M  V30 14 1 14 15
M  V30 15 1 15 16
M  V30 16 1 16 17
M  V30 17 1 16 18
M  V30 18 1 18 19
M  V30 19 1 19 20
M  V30 20 1 19 21
M  V30 21 1 19 22
M  V30 22 2 15 23
M  V30 23 1 23 24
M  V30 24 1 24 25
M  V30 25 1 25 26
M  V30 26 1 26 27
M  V30 27 1 27 28
M  V30 28 1 28 29
M  V30 29 1 29 30
M  V30 30 2 24 31
M  V30 31 2 11 32
M  V30 32 1 32 6
M  V30 33 1 31 13
M  V30 34 1 30 25
M  V30 35 1 1 33
M  V30 36 1 1 34
M  V30 37 1 1 35
M  V30 38 1 3 36
M  V30 39 1 7 37
M  V30 40 1 8 38
M  V30 41 1 10 39
M  V30 42 1 10 40
M  V30 43 1 10 41
M  V30 44 1 12 42
M  V30 45 1 17 43
M  V30 46 1 17 44
M  V30 47 1 17 45
M  V30 48 1 18 46
M  V30 49 1 18 47
M  V30 50 1 20 48
M  V30 51 1 20 49
M  V30 52 1 20 50
M  V30 53 1 21 51
M  V30 54 1 21 52
M  V30 55 1 21 53
M  V30 56 1 22 54
M  V30 57 1 22 55
M  V30 58 1 22 56
M  V30 59 1 26 57
M  V30 60 1 26 58
M  V30 61 1 27 59
M  V30 62 1 27 60
M  V30 63 1 28 61
M  V30 64 1 29 62
M  V30 65 1 29 63
M  V30 66 1 30 64
M  V30 67 1 30 65
M  V30 68 1 32 66
M  V30 END BOND
M  V30 END CTAB
M  END
>  <Dataset>  (358) 
ChEMBL_Kinases

>  <Ligand_Instance>  (358) 
nan

>  <PDB_ID>  (358) 
nan

>  <Standardized_SMILES>  (358) 
CONC(=O)c1ccc(C)c(Nc2nc(N(C)CC(C)(C)C)nc(N3CCNCC3)n2)c1

>  <Name>  (358) 
nan

>  <Pocket>  (358) 
nan

>  <ATP_Site>  (358) 
nan

>  <Peripheral>  (358) 
nan

>  <Num_H_Atoms_ProtBoundConf>  (358) 
nan

>  <Num_Resolved_Atoms>  (358) 
nan

>  <Num_Not_Resolved_Atoms>  (358) 
nan

$$$$
CHEMBL3764677
     RDKit          3D

  0  0  0  0  0  0  0  0  0  0999 V3000
M  V30 BEGIN CTAB
M  V30 COUNTS 50 53 0 0 0
M  V30 BEGIN ATOM
M  V30 1 F 3.044867 -1.591270 1.311433 0
M  V30 2 C 3.471635 -2.413741 0.278219 0
M  V30 3 F 2.682158 -3.532898 0.234023 0
M  V30 4 F 4.780907 -2.770823 0.558785 0
M  V30 5 O 3.501044 -1.685426 -0.933421 0
M  V30 6 C 2.361555 -1.079668 -1.455592 0
M  V30 7 C 1.414307 -1.563955 -2.321605 0
M  V30 8 C 0.335384 -0.805119 -2.735645 0
M  V30 9 C 0.277010 0.468890 -2.218536 0
M  V30 10 C 1.178153 1.049591 -1.341812 0
M  V30 11 N 0.923561 2.384277 -0.911795 0
M  V30 12 C 1.865209 2.711405 0.133184 0
M  V30 13 N 2.975186 3.497423 0.027773 0
M  V30 14 N 3.748568 3.674017 1.105123 0
M  V30 15 N 3.470884 3.106359 2.282425 0
M  V30 16 C 2.389220 2.335994 2.397108 0
M  V30 17 C 2.051080 1.725665 3.616376 0
M  V30 18 C 0.930572 0.945089 3.715619 0
M  V30 19 C 0.117295 0.744380 2.629598 0
M  V30 20 N -1.086397 0.025950 2.563380 0
M  V30 21 C -1.950216 -0.369705 1.492632 0
M  V30 22 C -1.399266 -1.514590 0.706313 0
M  V30 23 C -1.191763 -2.751711 1.564075 0
M  V30 24 C -2.438618 -3.622104 1.618390 0
M  V30 25 N -3.617605 -2.824733 1.454639 0
M  V30 26 C -3.694747 -2.181757 0.165108 0
M  V30 27 C -2.315774 -1.939893 -0.422690 0
M  V30 28 N 0.411458 1.306068 1.469422 0
M  V30 29 C 1.508535 2.081947 1.337560 0
M  V30 30 C 2.227797 0.225008 -0.978897 0
M  V30 31 H 1.602774 -2.574619 -2.637153 0
M  V30 32 H -0.379294 -1.223963 -3.408216 0
M  V30 33 H -0.583577 1.053795 -2.556835 0
M  V30 34 H 0.167158 2.944433 -1.341019 0
M  V30 35 H 2.668844 1.856523 4.502121 0
M  V30 36 H 0.587230 0.428081 4.624841 0
M  V30 37 H -1.389435 -0.267227 3.534963 0
M  V30 38 H -2.120689 0.463475 0.759851 0
M  V30 39 H -2.966423 -0.631801 1.847791 0
M  V30 40 H -0.422042 -1.223315 0.276838 0
M  V30 41 H -0.779742 -2.524920 2.565806 0
M  V30 42 H -0.420399 -3.369884 1.020125 0
M  V30 43 H -2.465638 -4.064916 2.640249 0
M  V30 44 H -2.377670 -4.501159 0.924755 0
M  V30 45 H -4.473962 -3.340902 1.671257 0
M  V30 46 H -4.275335 -2.755840 -0.589614 0
M  V30 47 H -4.182185 -1.196951 0.314290 0
M  V30 48 H -2.318397 -1.154894 -1.183938 0
M  V30 49 H -1.877091 -2.882379 -0.843979 0
M  V30 50 H 2.935395 0.690357 -0.294062 0
M  V30 END ATOM
M  V30 BEGIN BOND
M  V30 1 1 1 2
M  V30 2 1 2 3
M  V30 3 1 2 4
M  V30 4 1 2 5
M  V30 5 1 5 6
M  V30 6 2 6 7
M  V30 7 1 7 8
M  V30 8 2 8 9
M  V30 9 1 9 10
M  V30 10 1 10 11
M  V30 11 1 11 12
M  V30 12 2 12 13
M  V30 13 1 13 14
M  V30 14 2 14 15
M  V30 15 1 15 16
M  V30 16 2 16 17
M  V30 17 1 17 18
M  V30 18 2 18 19
M  V30 19 1 19 20
M  V30 20 1 20 21
M  V30 21 1 21 22
M  V30 22 1 22 23
M  V30 23 1 23 24
M  V30 24 1 24 25
M  V30 25 1 25 26
M  V30 26 1 26 27
M  V30 27 1 19 28
M  V30 28 2 28 29
M  V30 29 2 10 30
M  V30 30 1 30 6
M  V30 31 1 29 12
M  V30 32 1 29 16
M  V30 33 1 27 22
M  V30 34 1 7 31
M  V30 35 1 8 32
M  V30 36 1 9 33
M  V30 37 1 11 34
M  V30 38 1 17 35
M  V30 39 1 18 36
M  V30 40 1 20 37
M  V30 41 1 21 38
M  V30 42 1 21 39
M  V30 43 1 22 40
M  V30 44 1 23 41
M  V30 45 1 23 42
M  V30 46 1 24 43
M  V30 47 1 24 44
M  V30 48 1 25 45
M  V30 49 1 26 46
M  V30 50 1 26 47
M  V30 51 1 27 48
M  V30 52 1 27 49
M  V30 53 1 30 50
M  V30 END BOND
M  V30 END CTAB
M  END
>  <Dataset>  (359) 
ChEMBL_Kinases

>  <Ligand_Instance>  (359) 
nan

>  <PDB_ID>  (359) 
nan

>  <Standardized_SMILES>  (359) 
FC(F)(F)Oc1cccc(Nc2nnnc3ccc(NCC4CCNCC4)nc23)c1

>  <Name>  (359) 
nan

>  <Pocket>  (359) 
nan

>  <ATP_Site>  (359) 
nan

>  <Peripheral>  (359) 
nan

>  <Num_H_Atoms_ProtBoundConf>  (359) 
nan

>  <Num_Resolved_Atoms>  (359) 
nan

>  <Num_Not_Resolved_Atoms>  (359) 
nan

$$$$
CHEMBL5084991
     RDKit          3D

  0  0  0  0  0  0  0  0  0  0999 V3000
M  V30 BEGIN CTAB
M  V30 COUNTS 29 31 0 0 0
M  V30 BEGIN ATOM
M  V30 1 N 0.928470 -4.613626 2.893988 0
M  V30 2 C 1.071705 -3.200223 2.992867 0
M  V30 3 C 0.685919 -2.432162 1.919523 0
M  V30 4 C 0.780100 -1.057418 1.905948 0
M  V30 5 C 0.387001 -0.194206 0.798068 0
M  V30 6 C 0.557911 1.162794 0.974145 0
M  V30 7 C 0.199019 2.042130 -0.053414 0
M  V30 8 C -0.317634 1.504536 -1.214515 0
M  V30 9 C -0.501586 0.152814 -1.423225 0
M  V30 10 C -0.133881 -0.677686 -0.382860 0
M  V30 11 C -1.074930 -0.035938 -2.783672 0
M  V30 12 C -1.666584 1.337022 -3.042561 0
M  V30 13 O -0.741747 2.163321 -2.361715 0
M  V30 14 N 1.278790 -0.491133 3.018354 0
M  V30 15 C 1.671734 -1.211192 4.100626 0
M  V30 16 N 2.188868 -0.531875 5.237920 0
M  V30 17 N 1.569720 -2.570160 4.092377 0
M  V30 18 H 1.563478 -5.464305 2.924884 0
M  V30 19 H 0.003024 -5.094106 2.750470 0
M  V30 20 H 0.290048 -2.914829 1.042321 0
M  V30 21 H 0.962965 1.599134 1.881815 0
M  V30 22 H 0.329624 3.122861 0.073419 0
M  V30 23 H -0.269015 -1.740976 -0.523776 0
M  V30 24 H -0.293094 -0.250448 -3.529723 0
M  V30 25 H -1.886554 -0.787934 -2.784765 0
M  V30 26 H -2.652231 1.435050 -2.533865 0
M  V30 27 H -1.717060 1.568062 -4.123628 0
M  V30 28 H 3.219888 -0.536710 5.045255 0
M  V30 29 H 1.288945 -0.335194 5.754433 0
M  V30 END ATOM
M  V30 BEGIN BOND
M  V30 1 1 1 2
M  V30 2 2 2 3
M  V30 3 1 3 4
M  V30 4 1 4 5
M  V30 5 2 5 6
M  V30 6 1 6 7
M  V30 7 2 7 8
M  V30 8 1 8 9
M  V30 9 2 9 10
M  V30 10 1 9 11
M  V30 11 1 11 12
M  V30 12 1 12 13
M  V30 13 2 4 14
M  V30 14 1 14 15
M  V30 15 1 15 16
M  V30 16 2 15 17
M  V30 17 1 17 2
M  V30 18 1 10 5
M  V30 19 1 13 8
M  V30 20 1 1 18
M  V30 21 1 1 19
M  V30 22 1 3 20
M  V30 23 1 6 21
M  V30 24 1 7 22
M  V30 25 1 10 23
M  V30 26 1 11 24
M  V30 27 1 11 25
M  V30 28 1 12 26
M  V30 29 1 12 27
M  V30 30 1 16 28
M  V30 31 1 16 29
M  V30 END BOND
M  V30 END CTAB
M  END
>  <Dataset>  (360) 
ChEMBL_Kinases

>  <Ligand_Instance>  (360) 
nan

>  <PDB_ID>  (360) 
nan

>  <Standardized_SMILES>  (360) 
Nc1cc(-c2ccc3c(c2)CCO3)nc(N)n1

>  <Name>  (360) 
nan

>  <Pocket>  (360) 
nan

>  <ATP_Site>  (360) 
nan

>  <Peripheral>  (360) 
nan

>  <Num_H_Atoms_ProtBoundConf>  (360) 
nan

>  <Num_Resolved_Atoms>  (360) 
nan

>  <Num_Not_Resolved_Atoms>  (360) 
nan

$$$$
CHEMBL376501
     RDKit          3D

  0  0  0  0  0  0  0  0  0  0999 V3000
M  V30 BEGIN CTAB
M  V30 COUNTS 43 46 0 0 0
M  V30 BEGIN ATOM
M  V30 1 N 2.667196 -3.394989 4.024177 0
M  V30 2 C 2.663376 -2.842366 3.009683 0
M  V30 3 C 2.662575 -2.183971 1.750080 0
M  V30 4 C 3.774699 -2.242871 0.951038 0
M  V30 5 N 3.782924 -1.614544 -0.257172 0
M  V30 6 C 2.678747 -0.938500 -0.644963 0
M  V30 7 C 2.637584 -0.285634 -1.861005 0
M  V30 8 N 1.560619 0.413084 -2.315883 0
M  V30 9 C 0.435921 0.503817 -1.567978 0
M  V30 10 N -0.776629 1.157752 -1.831114 0
M  V30 11 C -0.645415 2.517775 -1.368679 0
M  V30 12 C -0.332727 2.659728 0.053799 0
M  V30 13 C 1.048057 2.679486 0.277217 0
M  V30 14 C 1.576724 2.809293 1.558837 0
M  V30 15 C 0.737751 2.922923 2.655164 0
M  V30 16 C -0.621793 2.897727 2.383096 0
M  V30 17 N -1.116077 2.772276 1.142573 0
M  V30 18 C 0.433518 -0.142514 -0.328298 0
M  V30 19 C 1.520987 -0.851033 0.136568 0
M  V30 20 C 1.527796 -1.496165 1.364395 0
M  V30 21 N 0.356020 -1.427582 2.188400 0
M  V30 22 C -0.593428 -2.461812 1.970970 0
M  V30 23 C -0.415831 -3.461076 1.024717 0
M  V30 24 C -1.326514 -4.476712 0.798059 0
M  V30 25 C -2.480571 -4.507163 1.550140 0
M  V30 26 F -3.371340 -5.497157 1.332412 0
M  V30 27 C -2.728289 -3.536645 2.520002 0
M  V30 28 Cl -4.189233 -3.577694 3.470758 0
M  V30 29 C -1.782206 -2.545781 2.702436 0
M  V30 30 H 4.688591 -2.779355 1.227196 0
M  V30 31 H 3.506570 -0.306233 -2.533422 0
M  V30 32 H -1.591231 0.681614 -2.285353 0
M  V30 33 H 0.010142 3.149907 -2.006529 0
M  V30 34 H -1.671802 2.969967 -1.517526 0
M  V30 35 H 1.828643 2.600166 -0.490745 0
M  V30 36 H 2.636730 2.826380 1.761512 0
M  V30 37 H 1.148390 3.023771 3.651078 0
M  V30 38 H -1.331285 2.982446 3.195586 0
M  V30 39 H -0.396827 -0.147626 0.360827 0
M  V30 40 H 0.131259 -0.721936 2.908673 0
M  V30 41 H 0.469260 -3.474035 0.418440 0
M  V30 42 H -1.147355 -5.244225 0.042152 0
M  V30 43 H -1.990561 -1.789875 3.467473 0
M  V30 END ATOM
M  V30 BEGIN BOND
M  V30 1 3 1 2
M  V30 2 1 2 3
M  V30 3 2 3 4
M  V30 4 1 4 5
M  V30 5 2 5 6
M  V30 6 1 6 7
M  V30 7 2 7 8
M  V30 8 1 8 9
M  V30 9 1 9 10
M  V30 10 1 10 11
M  V30 11 1 11 12
M  V30 12 2 12 13
M  V30 13 1 13 14
M  V30 14 2 14 15
M  V30 15 1 15 16
M  V30 16 2 16 17
M  V30 17 2 9 18
M  V30 18 1 18 19
M  V30 19 2 19 20
M  V30 20 1 20 21
M  V30 21 1 21 22
M  V30 22 2 22 23
M  V30 23 1 23 24
M  V30 24 2 24 25
M  V30 25 1 25 26
M  V30 26 1 25 27
M  V30 27 1 27 28
M  V30 28 2 27 29
M  V30 29 1 20 3
M  V30 30 1 29 22
M  V30 31 1 19 6
M  V30 32 1 17 12
M  V30 33 1 4 30
M  V30 34 1 7 31
M  V30 35 1 10 32
M  V30 36 1 11 33
M  V30 37 1 11 34
M  V30 38 1 13 35
M  V30 39 1 14 36
M  V30 40 1 15 37
M  V30 41 1 16 38
M  V30 42 1 18 39
M  V30 43 1 21 40
M  V30 44 1 23 41
M  V30 45 1 24 42
M  V30 46 1 29 43
M  V30 END BOND
M  V30 END CTAB
M  END
>  <Dataset>  (361) 
ChEMBL_Kinases

>  <Ligand_Instance>  (361) 
nan

>  <PDB_ID>  (361) 
nan

>  <Standardized_SMILES>  (361) 
N#Cc1cnc2cnc(NCc3ccccn3)cc2c1Nc1ccc(F)c(Cl)c1

>  <Name>  (361) 
nan

>  <Pocket>  (361) 
nan

>  <ATP_Site>  (361) 
nan

>  <Peripheral>  (361) 
nan

>  <Num_H_Atoms_ProtBoundConf>  (361) 
nan

>  <Num_Resolved_Atoms>  (361) 
nan

>  <Num_Not_Resolved_Atoms>  (361) 
nan

$$$$
CHEMBL5085015
     RDKit          3D

  0  0  0  0  0  0  0  0  0  0999 V3000
M  V30 BEGIN CTAB
M  V30 COUNTS 64 68 0 0 0
M  V30 BEGIN ATOM
M  V30 1 O 2.827870 2.942412 3.114346 0
M  V30 2 C 2.399050 1.832526 2.708816 0
M  V30 3 N 3.196145 0.672411 2.903026 0
M  V30 4 C 4.486316 0.659604 3.541377 0
M  V30 5 C 5.531565 1.489514 2.873816 0
M  V30 6 N 5.876987 1.145093 1.545300 0
M  V30 7 C 4.930530 1.331329 0.521481 0
M  V30 8 C 5.458957 0.968513 -0.852993 0
M  V30 9 N 5.925892 -0.379883 -0.826436 0
M  V30 10 C 5.815279 -0.999932 0.464747 0
M  V30 11 C 6.494365 -0.141955 1.485273 0
M  V30 12 C 1.095053 1.826632 2.060320 0
M  V30 13 C 0.425800 3.022628 1.920066 0
M  V30 14 C -0.823590 3.093030 1.311202 0
M  V30 15 C -1.453948 1.951797 0.814976 0
M  V30 16 C -0.767461 0.755200 0.963829 0
M  V30 17 C 0.472077 0.697757 1.569956 0
M  V30 18 C -1.219978 -0.567926 0.527630 0
M  V30 19 O -0.354359 -1.504727 0.547277 0
M  V30 20 C -2.544010 -0.981802 0.063752 0
M  V30 21 C -2.503495 -2.287354 -0.393111 0
M  V30 22 C -3.700607 -2.832799 -0.875987 0
M  V30 23 C -4.851820 -2.070031 -0.880043 0
M  V30 24 N -6.044445 -2.667683 -1.375916 0
M  V30 25 C -6.036937 -4.045001 -1.733476 0
M  V30 26 C -6.310541 -4.493830 -3.008861 0
M  V30 27 C -6.273758 -5.877784 -3.221207 0
M  V30 28 C -5.984998 -6.788520 -2.243847 0
M  V30 29 F -5.957315 -8.123763 -2.482238 0
M  V30 30 C -5.719535 -6.304457 -0.993157 0
M  V30 31 C -5.738817 -4.948097 -0.713649 0
M  V30 32 F -5.458208 -4.592628 0.580718 0
M  V30 33 C -4.813763 -0.774058 -0.407417 0
M  V30 34 C -3.666379 -0.168281 0.084994 0
M  V30 35 C -3.833492 1.209890 0.539233 0
M  V30 36 C -2.766409 2.180332 0.198170 0
M  V30 37 H 2.792073 -0.220386 2.547132 0
M  V30 38 H 4.387391 1.019528 4.597804 0
M  V30 39 H 4.844002 -0.390437 3.648547 0
M  V30 40 H 6.461712 1.400138 3.513405 0
M  V30 41 H 5.285962 2.591188 2.966507 0
M  V30 42 H 4.517514 2.379338 0.502227 0
M  V30 43 H 4.050560 0.687075 0.681642 0
M  V30 44 H 4.584055 1.040285 -1.539771 0
M  V30 45 H 6.209737 1.689645 -1.227861 0
M  V30 46 H 5.406879 -0.964583 -1.511978 0
M  V30 47 H 4.769866 -1.181712 0.771690 0
M  V30 48 H 6.301480 -2.013867 0.389069 0
M  V30 49 H 7.583704 -0.016623 1.281945 0
M  V30 50 H 6.472195 -0.669044 2.475277 0
M  V30 51 H 0.831248 3.966309 2.272521 0
M  V30 52 H -1.365850 4.031867 1.192843 0
M  V30 53 H 0.967907 -0.257383 1.663235 0
M  V30 54 H -1.579360 -2.845803 -0.370970 0
M  V30 55 H -3.599649 -3.842018 -1.214405 0
M  V30 56 H -6.950220 -2.165988 -1.503482 0
M  V30 57 H -6.539898 -3.789974 -3.789743 0
M  V30 58 H -6.483399 -6.263016 -4.212061 0
M  V30 59 H -5.486992 -7.015662 -0.200539 0
M  V30 60 H -5.738939 -0.208650 -0.427224 0
M  V30 61 H -4.768603 1.590692 0.061426 0
M  V30 62 H -4.067813 1.224513 1.637513 0
M  V30 63 H -2.657096 2.229226 -0.906021 0
M  V30 64 H -3.130018 3.181803 0.503020 0
M  V30 END ATOM
M  V30 BEGIN BOND
M  V30 1 2 1 2
M  V30 2 1 2 3
M  V30 3 1 3 4
M  V30 4 1 4 5
M  V30 5 1 5 6
M  V30 6 1 6 7
M  V30 7 1 7 8
M  V30 8 1 8 9
M  V30 9 1 9 10
M  V30 10 1 10 11
M  V30 11 1 2 12
M  V30 12 2 12 13
M  V30 13 1 13 14
M  V30 14 2 14 15
M  V30 15 1 15 16
M  V30 16 2 16 17
M  V30 17 1 16 18
M  V30 18 2 18 19
M  V30 19 1 18 20
M  V30 20 2 20 21
M  V30 21 1 21 22
M  V30 22 2 22 23
M  V30 23 1 23 24
M  V30 24 1 24 25
M  V30 25 2 25 26
M  V30 26 1 26 27
M  V30 27 2 27 28
M  V30 28 1 28 29
M  V30 29 1 28 30
M  V30 30 2 30 31
M  V30 31 1 31 32
M  V30 32 1 23 33
M  V30 33 2 33 34
M  V30 34 1 34 35
M  V30 35 1 35 36
M  V30 36 1 11 6
M  V30 37 1 17 12
M  V30 38 1 34 20
M  V30 39 1 36 15
M  V30 40 1 31 25
M  V30 41 1 3 37
M  V30 42 1 4 38
M  V30 43 1 4 39
M  V30 44 1 5 40
M  V30 45 1 5 41
M  V30 46 1 7 42
M  V30 47 1 7 43
M  V30 48 1 8 44
M  V30 49 1 8 45
M  V30 50 1 9 46
M  V30 51 1 10 47
M  V30 52 1 10 48
M  V30 53 1 11 49
M  V30 54 1 11 50
M  V30 55 1 13 51
M  V30 56 1 14 52
M  V30 57 1 17 53
M  V30 58 1 21 54
M  V30 59 1 22 55
M  V30 60 1 24 56
M  V30 61 1 26 57
M  V30 62 1 27 58
M  V30 63 1 30 59
M  V30 64 1 33 60
M  V30 65 1 35 61
M  V30 66 1 35 62
M  V30 67 1 36 63
M  V30 68 1 36 64
M  V30 END BOND
M  V30 END CTAB
M  END
>  <Dataset>  (362) 
ChEMBL_Kinases

>  <Ligand_Instance>  (362) 
nan

>  <PDB_ID>  (362) 
nan

>  <Standardized_SMILES>  (362) 
O=C(NCCN1CCNCC1)c1ccc2c(c1)C(=O)c1ccc(Nc3ccc(F)cc3F)cc1CC2

>  <Name>  (362) 
nan

>  <Pocket>  (362) 
nan

>  <ATP_Site>  (362) 
nan

>  <Peripheral>  (362) 
nan

>  <Num_H_Atoms_ProtBoundConf>  (362) 
nan

>  <Num_Resolved_Atoms>  (362) 
nan

>  <Num_Not_Resolved_Atoms>  (362) 
nan

$$$$
CHEMBL3764981
     RDKit          3D

  0  0  0  0  0  0  0  0  0  0999 V3000
M  V30 BEGIN CTAB
M  V30 COUNTS 53 56 0 0 0
M  V30 BEGIN ATOM
M  V30 1 C 0.818139 -3.215373 -2.410392 0
M  V30 2 N 1.627916 -3.868498 -1.437587 0
M  V30 3 C 1.079796 -3.886245 -0.095212 0
M  V30 4 C 1.871894 -2.983430 0.834165 0
M  V30 5 C 2.107484 -1.628034 0.158715 0
M  V30 6 C 2.904831 -0.714845 1.030336 0
M  V30 7 N 3.109098 0.571297 0.348195 0
M  V30 8 C 1.881546 1.247910 0.067854 0
M  V30 9 C 1.837230 1.545337 -1.285976 0
M  V30 10 C 0.758944 2.216823 -1.872308 0
M  V30 11 C -0.297990 2.590103 -1.034877 0
M  V30 12 N -1.402224 3.241010 -1.430925 0
M  V30 13 N -2.350124 3.557120 -0.565500 0
M  V30 14 N -2.226272 3.234666 0.713227 0
M  V30 15 C -1.162950 2.585796 1.202104 0
M  V30 16 N -1.316705 2.395645 2.582707 0
M  V30 17 C -2.314591 1.476942 2.914790 0
M  V30 18 C -3.484909 1.754990 3.637502 0
M  V30 19 C -4.372481 0.693874 3.858588 0
M  V30 20 C -4.034733 -0.589550 3.342098 0
M  V30 21 C -2.821318 -0.952623 2.576328 0
M  V30 22 O -3.300189 -2.151913 2.537843 0
M  V30 23 C -3.942206 -3.219468 2.159396 0
M  V30 24 F -5.327009 -3.105713 1.981152 0
M  V30 25 F -3.857859 -4.213850 3.175092 0
M  V30 26 F -3.459062 -3.893650 1.037400 0
M  V30 27 C -2.187496 0.192479 2.516339 0
M  V30 28 C -0.175227 2.253456 0.319884 0
M  V30 29 N 0.855855 1.614799 0.852753 0
M  V30 30 C 2.851304 -1.833050 -1.140334 0
M  V30 31 C 2.948258 -3.312406 -1.420492 0
M  V30 32 H 0.003357 -3.883849 -2.811230 0
M  V30 33 H 0.342263 -2.318896 -1.958034 0
M  V30 34 H 1.408647 -2.914537 -3.301008 0
M  V30 35 H 0.002701 -3.633944 -0.048794 0
M  V30 36 H 1.181348 -4.920734 0.298940 0
M  V30 37 H 1.246054 -2.808764 1.732170 0
M  V30 38 H 2.816481 -3.441405 1.167940 0
M  V30 39 H 1.120577 -1.193586 0.011792 0
M  V30 40 H 2.411501 -0.527479 2.004983 0
M  V30 41 H 3.913047 -1.152741 1.213192 0
M  V30 42 H 4.042347 0.998332 0.071113 0
M  V30 43 H 2.568617 1.327660 -2.065136 0
M  V30 44 H 0.654524 2.478730 -2.906929 0
M  V30 45 H -0.957158 2.678251 3.519139 0
M  V30 46 H -3.535538 2.789265 3.933234 0
M  V30 47 H -5.192674 1.168848 4.435054 0
M  V30 48 H -4.970399 -1.055542 3.742451 0
M  V30 49 H -1.325747 -0.198456 1.941184 0
M  V30 50 H 2.279764 -1.281311 -1.910035 0
M  V30 51 H 3.908774 -1.475842 -1.064521 0
M  V30 52 H 3.624623 -3.750629 -0.669931 0
M  V30 53 H 3.424008 -3.500956 -2.420836 0
M  V30 END ATOM
M  V30 BEGIN BOND
M  V30 1 1 1 2
M  V30 2 1 2 3
M  V30 3 1 3 4
M  V30 4 1 4 5
M  V30 5 1 5 6
M  V30 6 1 6 7
M  V30 7 1 7 8
M  V30 8 2 8 9
M  V30 9 1 9 10
M  V30 10 2 10 11
M  V30 11 1 11 12
M  V30 12 2 12 13
M  V30 13 1 13 14
M  V30 14 2 14 15
M  V30 15 1 15 16
M  V30 16 1 16 17
M  V30 17 2 17 18
M  V30 18 1 18 19
M  V30 19 2 19 20
M  V30 20 1 20 21
M  V30 21 1 21 22
M  V30 22 1 22 23
M  V30 23 1 23 24
M  V30 24 1 23 25
M  V30 25 1 23 26
M  V30 26 2 21 27
M  V30 27 1 15 28
M  V30 28 2 28 29
M  V30 29 1 5 30
M  V30 30 1 30 31
M  V30 31 1 31 2
M  V30 32 1 29 8
M  V30 33 1 28 11
M  V30 34 1 27 17
M  V30 35 1 1 32
M  V30 36 1 1 33
M  V30 37 1 1 34
M  V30 38 1 3 35
M  V30 39 1 3 36
M  V30 40 1 4 37
M  V30 41 1 4 38
M  V30 42 1 5 39
M  V30 43 1 6 40
M  V30 44 1 6 41
M  V30 45 1 7 42
M  V30 46 1 9 43
M  V30 47 1 10 44
M  V30 48 1 16 45
M  V30 49 1 18 46
M  V30 50 1 19 47
M  V30 51 1 20 48
M  V30 52 1 27 49
M  V30 53 1 30 50
M  V30 54 1 30 51
M  V30 55 1 31 52
M  V30 56 1 31 53
M  V30 END BOND
M  V30 END CTAB
M  END
>  <Dataset>  (363) 
ChEMBL_Kinases

>  <Ligand_Instance>  (363) 
nan

>  <PDB_ID>  (363) 
nan

>  <Standardized_SMILES>  (363) 
CN1CCC(CNc2ccc3nnnc(Nc4cccc(OC(F)(F)F)c4)c3n2)CC1

>  <Name>  (363) 
nan

>  <Pocket>  (363) 
nan

>  <ATP_Site>  (363) 
nan

>  <Peripheral>  (363) 
nan

>  <Num_H_Atoms_ProtBoundConf>  (363) 
nan

>  <Num_Resolved_Atoms>  (363) 
nan

>  <Num_Not_Resolved_Atoms>  (363) 
nan

$$$$
CHEMBL5085016
     RDKit          3D

  0  0  0  0  0  0  0  0  0  0999 V3000
M  V30 BEGIN CTAB
M  V30 COUNTS 68 72 0 0 0
M  V30 BEGIN ATOM
M  V30 1 C 1.315366 -4.217957 3.361005 0
M  V30 2 C 1.996015 -3.530545 2.240036 0
M  V30 3 C 3.157088 -4.061722 1.718946 0
M  V30 4 C 3.790630 -3.421455 0.674202 0
M  V30 5 C 3.270533 -2.256195 0.149531 0
M  V30 6 N 3.919250 -1.590370 -0.928625 0
M  V30 7 C 3.723425 -1.771571 -2.324144 0
M  V30 8 O 2.896920 -2.598748 -2.785926 0
M  V30 9 C 4.481995 -0.996392 -3.289006 0
M  V30 10 C 4.253473 -1.210975 -4.640914 0
M  V30 11 C 4.960594 -0.487799 -5.598153 0
M  V30 12 N 5.886551 0.440909 -5.262828 0
M  V30 13 C 6.121690 0.662532 -3.940354 0
M  V30 14 C 7.122562 1.665345 -3.486173 0
M  V30 15 F 6.614042 2.389476 -2.413501 0
M  V30 16 F 8.275372 1.006755 -3.135859 0
M  V30 17 F 7.418898 2.586383 -4.478976 0
M  V30 18 C 5.423172 -0.051837 -2.997440 0
M  V30 19 C 2.101377 -1.757555 0.703913 0
M  V30 20 C 1.428556 -2.376001 1.763127 0
M  V30 21 C 0.205924 -1.756131 2.263528 0
M  V30 22 C -0.186740 -1.531268 3.567791 0
M  V30 23 C -1.400528 -0.922057 3.814696 0
M  V30 24 C -2.256357 -0.519187 2.813181 0
M  V30 25 C -1.866653 -0.742549 1.510356 0
M  V30 26 C -0.655583 -1.351000 1.237171 0
M  V30 27 O -2.612680 -0.396725 0.406216 0
M  V30 28 C -3.842315 0.182487 0.157009 0
M  V30 29 C -3.628552 1.018469 -1.117369 0
M  V30 30 C -3.593385 0.156771 -2.341090 0
M  V30 31 O -4.869095 -0.303529 -2.579131 0
M  V30 32 C -5.636720 -0.324274 -1.417887 0
M  V30 33 C -4.866617 -0.874634 -0.227933 0
M  V30 34 C -4.416066 1.096655 1.147588 0
M  V30 35 C -4.440426 0.647170 2.561034 0
M  V30 36 O -5.549178 0.766541 3.190964 0
M  V30 37 N -3.422419 0.074246 3.417348 0
M  V30 38 C -3.607632 0.115659 4.827562 0
M  V30 39 C -3.053432 1.345609 5.516226 0
M  V30 40 O -3.649959 2.516406 5.034132 0
M  V30 41 H 1.522469 -5.320689 3.229113 0
M  V30 42 H 0.232610 -4.042558 3.318566 0
M  V30 43 H 1.771576 -3.921014 4.319733 0
M  V30 44 H 3.568733 -4.986430 2.136172 0
M  V30 45 H 4.701256 -3.832018 0.260631 0
M  V30 46 H 4.602901 -0.906196 -0.536646 0
M  V30 47 H 3.526089 -1.939173 -5.023916 0
M  V30 48 H 4.830376 -0.606786 -6.655342 0
M  V30 49 H 5.629910 0.144369 -1.952146 0
M  V30 50 H 1.719420 -0.827619 0.257854 0
M  V30 51 H 0.528232 -1.869891 4.290833 0
M  V30 52 H -1.628403 -0.785598 4.839144 0
M  V30 53 H -0.448987 -1.477408 0.188055 0
M  V30 54 H -2.610307 1.498185 -1.026804 0
M  V30 55 H -4.326659 1.854216 -1.195295 0
M  V30 56 H -3.278299 0.803317 -3.178261 0
M  V30 57 H -2.859931 -0.659541 -2.189037 0
M  V30 58 H -6.007308 0.698430 -1.228803 0
M  V30 59 H -6.544681 -0.935758 -1.629856 0
M  V30 60 H -4.347392 -1.800906 -0.593411 0
M  V30 61 H -5.589980 -1.087815 0.571684 0
M  V30 62 H -5.469715 1.289757 0.855197 0
M  V30 63 H -3.915281 2.102849 1.042918 0
M  V30 64 H -4.734505 0.291709 4.944004 0
M  V30 65 H -3.512926 -0.817355 5.387621 0
M  V30 66 H -3.356505 1.264492 6.580954 0
M  V30 67 H -1.967449 1.493875 5.363202 0
M  V30 68 H -3.661559 2.573753 4.048352 0
M  V30 END ATOM
M  V30 BEGIN BOND
M  V30 1 1 1 2
M  V30 2 2 2 3
M  V30 3 1 3 4
M  V30 4 2 4 5
M  V30 5 1 5 6
M  V30 6 1 6 7
M  V30 7 2 7 8
M  V30 8 1 7 9
M  V30 9 2 9 10
M  V30 10 1 10 11
M  V30 11 2 11 12
M  V30 12 1 12 13
M  V30 13 1 13 14
M  V30 14 1 14 15
M  V30 15 1 14 16
M  V30 16 1 14 17
M  V30 17 2 13 18
M  V30 18 1 5 19
M  V30 19 2 19 20
M  V30 20 1 20 21
M  V30 21 2 21 22
M  V30 22 1 22 23
M  V30 23 2 23 24
M  V30 24 1 24 25
M  V30 25 2 25 26
M  V30 26 1 25 27
M  V30 27 1 27 28
M  V30 28 1 28 29
M  V30 29 1 29 30
M  V30 30 1 30 31
M  V30 31 1 31 32
M  V30 32 1 32 33
M  V30 33 1 28 34
M  V30 34 1 34 35
M  V30 35 2 35 36
M  V30 36 1 35 37
M  V30 37 1 37 38
M  V30 38 1 38 39
M  V30 39 1 39 40
M  V30 40 1 20 2
M  V30 41 1 26 21
M  V30 42 1 33 28
M  V30 43 1 18 9
M  V30 44 1 37 24
M  V30 45 1 1 41
M  V30 46 1 1 42
M  V30 47 1 1 43
M  V30 48 1 3 44
M  V30 49 1 4 45
M  V30 50 1 6 46
M  V30 51 1 10 47
M  V30 52 1 11 48
M  V30 53 1 18 49
M  V30 54 1 19 50
M  V30 55 1 22 51
M  V30 56 1 23 52
M  V30 57 1 26 53
M  V30 58 1 29 54
M  V30 59 1 29 55
M  V30 60 1 30 56
M  V30 61 1 30 57
M  V30 62 1 32 58
M  V30 63 1 32 59
M  V30 64 1 33 60
M  V30 65 1 33 61
M  V30 66 1 34 62
M  V30 67 1 34 63
M  V30 68 1 38 64
M  V30 69 1 38 65
M  V30 70 1 39 66
M  V30 71 1 39 67
M  V30 72 1 40 68
M  V30 END BOND
M  V30 END CTAB
M  END
>  <Dataset>  (364) 
ChEMBL_Kinases

>  <Ligand_Instance>  (364) 
nan

>  <PDB_ID>  (364) 
nan

>  <Standardized_SMILES>  (364) 
Cc1ccc(NC(=O)c2ccnc(C(F)(F)F)c2)cc1-c1ccc2c(c1)OC1(CCOCC1)CC(=O)N2CCO

>  <Name>  (364) 
nan

>  <Pocket>  (364) 
nan

>  <ATP_Site>  (364) 
nan

>  <Peripheral>  (364) 
nan

>  <Num_H_Atoms_ProtBoundConf>  (364) 
nan

>  <Num_Resolved_Atoms>  (364) 
nan

>  <Num_Not_Resolved_Atoms>  (364) 
nan

$$$$
CHEMBL3764886
     RDKit          3D

  0  0  0  0  0  0  0  0  0  0999 V3000
M  V30 BEGIN CTAB
M  V30 COUNTS 25 25 0 0 0
M  V30 BEGIN ATOM
M  V30 1 N -1.038365 -3.004981 3.749981 0
M  V30 2 C -1.750386 -2.855168 2.701286 0
M  V30 3 N -2.578867 -3.957086 2.278261 0
M  V30 4 N -1.753166 -1.654977 1.941367 0
M  V30 5 C -0.466616 -1.006358 1.794441 0
M  V30 6 N 0.589411 -1.388489 2.405182 0
M  V30 7 N -0.353650 0.121733 0.917935 0
M  V30 8 C 0.846355 0.477145 0.245235 0
M  V30 9 N 1.617730 -0.541743 0.121965 0
M  V30 10 O 2.824549 -0.421261 -0.495972 0
M  V30 11 C 1.066727 1.838749 -0.197404 0
M  V30 12 N 0.154731 2.803640 0.003757 0
M  V30 13 O 0.524542 3.951548 -0.456305 0
M  V30 14 N 1.708054 3.819966 -0.992894 0
M  V30 15 C 2.064331 2.516618 -0.843636 0
M  V30 16 N 3.276431 1.958341 -1.287730 0
M  V30 17 H -0.393565 -2.356426 4.211621 0
M  V30 18 H -2.561964 -4.707178 1.529522 0
M  V30 19 H -3.476932 -4.215962 2.736904 0
M  V30 20 H -2.625574 -1.297021 1.533970 0
M  V30 21 H 1.521570 -0.994276 2.360523 0
M  V30 22 H -1.244391 0.696718 0.795108 0
M  V30 23 H 2.982225 -0.831488 -1.425920 0
M  V30 24 H 4.000697 2.035872 -0.512721 0
M  V30 25 H 3.151571 1.607447 -2.284513 0
M  V30 END ATOM
M  V30 BEGIN BOND
M  V30 1 2 1 2 CFG=2
M  V30 2 1 2 3
M  V30 3 1 2 4
M  V30 4 1 4 5
M  V30 5 2 5 6 CFG=2
M  V30 6 1 5 7
M  V30 7 1 7 8
M  V30 8 2 8 9
M  V30 9 1 9 10
M  V30 10 1 8 11
M  V30 11 2 11 12
M  V30 12 1 12 13
M  V30 13 1 13 14
M  V30 14 2 14 15
M  V30 15 1 15 16
M  V30 16 1 15 11
M  V30 17 1 1 17
M  V30 18 1 3 18
M  V30 19 1 3 19
M  V30 20 1 4 20
M  V30 21 1 6 21
M  V30 22 1 7 22
M  V30 23 1 10 23
M  V30 24 1 16 24
M  V30 25 1 16 25
M  V30 END BOND
M  V30 END CTAB
M  END
>  <Dataset>  (365) 
ChEMBL_Kinases

>  <Ligand_Instance>  (365) 
nan

>  <PDB_ID>  (365) 
nan

>  <Standardized_SMILES>  (365) 
N=C(N)NC(=N)N/C(=N/O)c1nonc1N

>  <Name>  (365) 
nan

>  <Pocket>  (365) 
nan

>  <ATP_Site>  (365) 
nan

>  <Peripheral>  (365) 
nan

>  <Num_H_Atoms_ProtBoundConf>  (365) 
nan

>  <Num_Resolved_Atoms>  (365) 
nan

>  <Num_Not_Resolved_Atoms>  (365) 
nan

$$$$
CHEMBL376486
     RDKit          3D

  0  0  0  0  0  0  0  0  0  0999 V3000
M  V30 BEGIN CTAB
M  V30 COUNTS 61 64 0 0 0
M  V30 BEGIN ATOM
M  V30 1 C 4.641287 -3.903421 -0.371044 0
M  V30 2 S 2.955605 -4.329683 0.138471 0
M  V30 3 C 2.147808 -2.844250 0.735911 0
M  V30 4 N 2.730810 -1.609608 0.786704 0
M  V30 5 C 1.792011 -0.758494 1.298640 0
M  V30 6 C 2.189552 0.635805 1.448034 0
M  V30 7 C 2.250897 1.291635 2.668365 0
M  V30 8 C 2.643139 2.627409 2.716689 0
M  V30 9 C 2.972460 3.310863 1.569131 0
M  V30 10 F 3.354844 4.603686 1.593567 0
M  V30 11 C 2.915917 2.667103 0.337658 0
M  V30 12 C 2.524799 1.342575 0.308962 0
M  V30 13 C 0.657184 -1.502703 1.547202 0
M  V30 14 C -0.444335 -0.780660 2.135686 0
M  V30 15 C -0.808820 -1.356270 3.361358 0
M  V30 16 C -1.858188 -0.801144 4.103546 0
M  V30 17 N -2.534768 0.296335 3.651154 0
M  V30 18 C -2.189966 0.859171 2.469988 0
M  V30 19 N -2.841886 2.001209 1.927473 0
M  V30 20 C -3.924131 1.601362 1.116811 0
M  V30 21 C -4.831169 2.552747 0.387035 0
M  V30 22 O -4.057669 0.333679 1.064549 0
M  V30 23 C -1.156548 0.304265 1.749943 0
M  V30 24 N 0.864286 -2.797563 1.201672 0
M  V30 25 C -0.096208 -3.849911 1.303178 0
M  V30 26 C -0.873804 -4.212685 0.088137 0
M  V30 27 C -1.681691 -3.144532 -0.571533 0
M  V30 28 N -0.795657 -2.127965 -1.074486 0
M  V30 29 C 0.022324 -2.614450 -2.167265 0
M  V30 30 C 0.498513 -1.409653 -2.939108 0
M  V30 31 O -0.579334 -0.801544 -3.611813 0
M  V30 32 C -1.788592 -1.056078 -2.938370 0
M  V30 33 C -1.493763 -0.913720 -1.437053 0
M  V30 34 H 4.635755 -2.904278 -0.876582 0
M  V30 35 H 4.960404 -4.683283 -1.114837 0
M  V30 36 H 5.316482 -3.942013 0.494710 0
M  V30 37 H 1.984774 0.731855 3.576130 0
M  V30 38 H 2.682074 3.117415 3.688806 0
M  V30 39 H 3.162713 3.144069 -0.616726 0
M  V30 40 H 2.479869 0.840293 -0.645253 0
M  V30 41 H -0.453763 -2.204307 3.958756 0
M  V30 42 H -2.270828 -1.101445 5.048440 0
M  V30 43 H -2.653127 3.039408 2.030833 0
M  V30 44 H -4.273069 3.160631 -0.344722 0
M  V30 45 H -5.401980 3.174699 1.097002 0
M  V30 46 H -5.522813 1.909758 -0.210700 0
M  V30 47 H -0.833218 0.718016 0.817152 0
M  V30 48 H -0.793295 -3.676126 2.164897 0
M  V30 49 H 0.473166 -4.785407 1.613201 0
M  V30 50 H -0.105198 -4.642107 -0.642143 0
M  V30 51 H -1.523444 -5.121492 0.269992 0
M  V30 52 H -2.365393 -3.576140 -1.304110 0
M  V30 53 H -2.313016 -2.648852 0.206829 0
M  V30 54 H -0.585748 -3.222321 -2.889897 0
M  V30 55 H 0.822563 -3.222073 -1.770885 0
M  V30 56 H 0.949504 -0.625116 -2.300031 0
M  V30 57 H 1.247334 -1.687281 -3.714108 0
M  V30 58 H -2.470636 -0.218920 -3.251914 0
M  V30 59 H -2.208282 -2.026737 -3.202406 0
M  V30 60 H -2.410371 -0.738074 -0.859720 0
M  V30 61 H -0.763176 -0.084301 -1.386475 0
M  V30 END ATOM
M  V30 BEGIN BOND
M  V30 1 1 1 2
M  V30 2 1 2 3
M  V30 3 2 3 4
M  V30 4 1 4 5
M  V30 5 1 5 6
M  V30 6 2 6 7
M  V30 7 1 7 8
M  V30 8 2 8 9
M  V30 9 1 9 10
M  V30 10 1 9 11
M  V30 11 2 11 12
M  V30 12 2 5 13
M  V30 13 1 13 14
M  V30 14 2 14 15
M  V30 15 1 15 16
M  V30 16 2 16 17
M  V30 17 1 17 18
M  V30 18 1 18 19
M  V30 19 1 19 20
M  V30 20 1 20 21
M  V30 21 2 20 22
M  V30 22 2 18 23
M  V30 23 1 13 24
M  V30 24 1 24 25
M  V30 25 1 25 26
M  V30 26 1 26 27
M  V30 27 1 27 28
M  V30 28 1 28 29
M  V30 29 1 29 30
M  V30 30 1 30 31
M  V30 31 1 31 32
M  V30 32 1 32 33
M  V30 33 1 24 3
M  V30 34 1 33 28
M  V30 35 1 12 6
M  V30 36 1 23 14
M  V30 37 1 1 34
M  V30 38 1 1 35
M  V30 39 1 1 36
M  V30 40 1 7 37
M  V30 41 1 8 38
M  V30 42 1 11 39
M  V30 43 1 12 40
M  V30 44 1 15 41
M  V30 45 1 16 42
M  V30 46 1 19 43
M  V30 47 1 21 44
M  V30 48 1 21 45
M  V30 49 1 21 46
M  V30 50 1 23 47
M  V30 51 1 25 48
M  V30 52 1 25 49
M  V30 53 1 26 50
M  V30 54 1 26 51
M  V30 55 1 27 52
M  V30 56 1 27 53
M  V30 57 1 29 54
M  V30 58 1 29 55
M  V30 59 1 30 56
M  V30 60 1 30 57
M  V30 61 1 32 58
M  V30 62 1 32 59
M  V30 63 1 33 60
M  V30 64 1 33 61
M  V30 END BOND
M  V30 END CTAB
M  END
>  <Dataset>  (366) 
ChEMBL_Kinases

>  <Ligand_Instance>  (366) 
nan

>  <PDB_ID>  (366) 
nan

>  <Standardized_SMILES>  (366) 
CSc1nc(-c2ccc(F)cc2)c(-c2ccnc(NC(C)=O)c2)n1CCCN1CCOCC1

>  <Name>  (366) 
nan

>  <Pocket>  (366) 
nan

>  <ATP_Site>  (366) 
nan

>  <Peripheral>  (366) 
nan

>  <Num_H_Atoms_ProtBoundConf>  (366) 
nan

>  <Num_Resolved_Atoms>  (366) 
nan

>  <Num_Not_Resolved_Atoms>  (366) 
nan

$$$$
CHEMBL3764839
     RDKit          3D

  0  0  0  0  0  0  0  0  0  0999 V3000
M  V30 BEGIN CTAB
M  V30 COUNTS 53 56 0 0 0
M  V30 BEGIN ATOM
M  V30 1 C -0.261186 -2.698638 -0.468491 0
M  V30 2 C 0.950819 -2.458304 0.416353 0
M  V30 3 C 0.935066 -3.556018 1.495235 0
M  V30 4 N 2.162405 -2.355438 -0.265453 0
M  V30 5 C 3.315143 -1.993107 0.470974 0
M  V30 6 C 3.720097 -0.542205 0.249067 0
M  V30 7 N 2.662238 0.196026 -0.459114 0
M  V30 8 C 1.908497 1.357125 -0.113976 0
M  V30 9 C 2.172669 2.610347 -0.679602 0
M  V30 10 C 1.374889 3.680618 -0.286409 0
M  V30 11 C 0.350853 3.557757 0.623505 0
M  V30 12 N -0.434322 4.547085 1.032063 0
M  V30 13 N -1.395275 4.303473 1.923840 0
M  V30 14 N -1.604720 3.088356 2.430520 0
M  V30 15 C -0.858827 2.053119 2.067956 0
M  V30 16 N -1.170274 0.802956 2.671596 0
M  V30 17 C -2.264461 0.125559 2.046786 0
M  V30 18 C -2.945443 0.666013 0.968607 0
M  V30 19 C -4.017663 0.047231 0.343583 0
M  V30 20 C -4.438299 -1.188173 0.822905 0
M  V30 21 C -3.773415 -1.758101 1.905692 0
M  V30 22 O -4.296025 -2.979759 2.271655 0
M  V30 23 C -3.868635 -4.222544 1.754311 0
M  V30 24 F -2.528685 -4.402645 2.033952 0
M  V30 25 F -4.569615 -5.248439 2.382984 0
M  V30 26 F -4.112020 -4.316676 0.394490 0
M  V30 27 C -2.714175 -1.100542 2.489119 0
M  V30 28 C 0.137915 2.291093 1.148076 0
M  V30 29 N 0.898396 1.262678 0.776096 0
M  V30 30 C 2.315123 -0.381376 -1.747702 0
M  V30 31 C 2.219190 -1.888988 -1.592108 0
M  V30 32 H -1.073038 -3.051577 0.200845 0
M  V30 33 H -0.115411 -3.478484 -1.222426 0
M  V30 34 H -0.651447 -1.739855 -0.879129 0
M  V30 35 H 0.747810 -1.525703 0.978032 0
M  V30 36 H 0.876244 -4.567318 1.062488 0
M  V30 37 H 0.008915 -3.332389 2.108101 0
M  V30 38 H 1.767274 -3.365029 2.171562 0
M  V30 39 H 4.145090 -2.680121 0.126927 0
M  V30 40 H 3.133639 -2.101262 1.553219 0
M  V30 41 H 4.586245 -0.554085 -0.441947 0
M  V30 42 H 4.022315 -0.032363 1.172686 0
M  V30 43 H 2.975701 2.697067 -1.389653 0
M  V30 44 H 1.560714 4.664401 -0.710949 0
M  V30 45 H -0.723327 0.332761 3.479049 0
M  V30 46 H -2.653602 1.613056 0.569793 0
M  V30 47 H -4.512173 0.534256 -0.506302 0
M  V30 48 H -5.288352 -1.655278 0.311989 0
M  V30 49 H -2.243875 -1.594917 3.319811 0
M  V30 50 H 3.117164 -0.092320 -2.455154 0
M  V30 51 H 1.387407 0.038853 -2.187717 0
M  V30 52 H 3.195121 -2.286360 -2.011665 0
M  V30 53 H 1.453393 -2.335797 -2.288467 0
M  V30 END ATOM
M  V30 BEGIN BOND
M  V30 1 1 1 2
M  V30 2 1 2 3
M  V30 3 1 2 4
M  V30 4 1 4 5
M  V30 5 1 5 6
M  V30 6 1 6 7
M  V30 7 1 7 8
M  V30 8 2 8 9
M  V30 9 1 9 10
M  V30 10 2 10 11
M  V30 11 1 11 12
M  V30 12 2 12 13
M  V30 13 1 13 14
M  V30 14 2 14 15
M  V30 15 1 15 16
M  V30 16 1 16 17
M  V30 17 2 17 18
M  V30 18 1 18 19
M  V30 19 2 19 20
M  V30 20 1 20 21
M  V30 21 1 21 22
M  V30 22 1 22 23
M  V30 23 1 23 24
M  V30 24 1 23 25
M  V30 25 1 23 26
M  V30 26 2 21 27
M  V30 27 1 15 28
M  V30 28 2 28 29
M  V30 29 1 7 30
M  V30 30 1 30 31
M  V30 31 1 31 4
M  V30 32 1 29 8
M  V30 33 1 28 11
M  V30 34 1 27 17
M  V30 35 1 1 32
M  V30 36 1 1 33
M  V30 37 1 1 34
M  V30 38 1 2 35
M  V30 39 1 3 36
M  V30 40 1 3 37
M  V30 41 1 3 38
M  V30 42 1 5 39
M  V30 43 1 5 40
M  V30 44 1 6 41
M  V30 45 1 6 42
M  V30 46 1 9 43
M  V30 47 1 10 44
M  V30 48 1 16 45
M  V30 49 1 18 46
M  V30 50 1 19 47
M  V30 51 1 20 48
M  V30 52 1 27 49
M  V30 53 1 30 50
M  V30 54 1 30 51
M  V30 55 1 31 52
M  V30 56 1 31 53
M  V30 END BOND
M  V30 END CTAB
M  END
>  <Dataset>  (367) 
ChEMBL_Kinases

>  <Ligand_Instance>  (367) 
nan

>  <PDB_ID>  (367) 
nan

>  <Standardized_SMILES>  (367) 
CC(C)N1CCN(c2ccc3nnnc(Nc4cccc(OC(F)(F)F)c4)c3n2)CC1

>  <Name>  (367) 
nan

>  <Pocket>  (367) 
nan

>  <ATP_Site>  (367) 
nan

>  <Peripheral>  (367) 
nan

>  <Num_H_Atoms_ProtBoundConf>  (367) 
nan

>  <Num_Resolved_Atoms>  (367) 
nan

>  <Num_Not_Resolved_Atoms>  (367) 
nan

$$$$
CHEMBL376479
     RDKit          3D

  0  0  0  0  0  0  0  0  0  0999 V3000
M  V30 BEGIN CTAB
M  V30 COUNTS 34 38 0 0 0
M  V30 BEGIN ATOM
M  V30 1 C 0.404954 -5.738497 3.686693 0
M  V30 2 C -0.920370 -5.431371 3.583921 0
M  V30 3 C -1.329115 -4.293695 2.919315 0
M  V30 4 C -0.404467 -3.447420 2.347431 0
M  V30 5 N -0.482308 -2.309839 1.662005 0
M  V30 6 C 0.684457 -1.801555 1.279951 0
M  V30 7 C 1.157708 -0.645931 0.548805 0
M  V30 8 N 2.448343 -0.338520 0.280845 0
M  V30 9 N 2.557875 0.772496 -0.400322 0
M  V30 10 C 1.342956 1.298793 -0.643102 0
M  V30 11 C 0.896010 2.429509 -1.301139 0
M  V30 12 C -0.457198 2.691971 -1.375090 0
M  V30 13 C -0.940164 3.882204 -2.067004 0
M  V30 14 N -0.169341 4.801290 -2.673435 0
M  V30 15 N -0.984443 5.733480 -3.187801 0
M  V30 16 N -2.244498 5.435682 -2.927594 0
M  V30 17 N -2.205326 4.297352 -2.239180 0
M  V30 18 C -1.343841 1.814132 -0.786424 0
M  V30 19 C -0.844142 0.702502 -0.143296 0
M  V30 20 C 0.487326 0.397145 -0.041942 0
M  V30 21 C 1.578663 -2.744147 1.795550 0
M  V30 22 C 0.923649 -3.759851 2.453246 0
M  V30 23 C 1.333185 -4.897837 3.117990 0
M  V30 24 H 0.788720 -6.620643 4.197807 0
M  V30 25 H -1.658318 -6.099842 4.036130 0
M  V30 26 H -2.376111 -4.035680 2.828783 0
M  V30 27 H -1.385035 -1.881323 1.458908 0
M  V30 28 H 3.476189 1.162438 -0.694888 0
M  V30 29 H 1.619981 3.115613 -1.763181 0
M  V30 30 H -3.028378 3.760821 -1.861639 0
M  V30 31 H -2.398622 2.023370 -0.846893 0
M  V30 32 H -1.573680 0.052335 0.297292 0
M  V30 33 H 2.670314 -2.756515 1.734193 0
M  V30 34 H 2.373417 -5.111953 3.182306 0
M  V30 END ATOM
M  V30 BEGIN BOND
M  V30 1 2 1 2
M  V30 2 1 2 3
M  V30 3 2 3 4
M  V30 4 1 4 5
M  V30 5 1 5 6
M  V30 6 1 6 7
M  V30 7 2 7 8
M  V30 8 1 8 9
M  V30 9 1 9 10
M  V30 10 2 10 11
M  V30 11 1 11 12
M  V30 12 1 12 13
M  V30 13 2 13 14
M  V30 14 1 14 15
M  V30 15 2 15 16
M  V30 16 1 16 17
M  V30 17 2 12 18
M  V30 18 1 18 19
M  V30 19 2 19 20
M  V30 20 2 6 21
M  V30 21 1 21 22
M  V30 22 2 22 23
M  V30 23 1 23 1
M  V30 24 1 22 4
M  V30 25 1 20 7
M  V30 26 1 20 10
M  V30 27 1 17 13
M  V30 28 1 1 24
M  V30 29 1 2 25
M  V30 30 1 3 26
M  V30 31 1 5 27
M  V30 32 1 9 28
M  V30 33 1 11 29
M  V30 34 1 17 30
M  V30 35 1 18 31
M  V30 36 1 19 32
M  V30 37 1 21 33
M  V30 38 1 23 34
M  V30 END BOND
M  V30 END CTAB
M  END
>  <Dataset>  (368) 
ChEMBL_Kinases

>  <Ligand_Instance>  (368) 
nan

>  <PDB_ID>  (368) 
nan

>  <Standardized_SMILES>  (368) 
c1ccc2[nH]c(-c3n[nH]c4cc(-c5nnn[nH]5)ccc34)cc2c1

>  <Name>  (368) 
nan

>  <Pocket>  (368) 
nan

>  <ATP_Site>  (368) 
nan

>  <Peripheral>  (368) 
nan

>  <Num_H_Atoms_ProtBoundConf>  (368) 
nan

>  <Num_Resolved_Atoms>  (368) 
nan

>  <Num_Not_Resolved_Atoms>  (368) 
nan

$$$$
CHEMBL3764688
     RDKit          3D

  0  0  0  0  0  0  0  0  0  0999 V3000
M  V30 BEGIN CTAB
M  V30 COUNTS 28 29 0 0 0
M  V30 BEGIN ATOM
M  V30 1 N -0.499567 -0.219693 2.534671 0
M  V30 2 C -0.465352 -0.098394 1.267954 0
M  V30 3 N 0.717082 -0.425330 0.550254 0
M  V30 4 C 1.694356 -1.325992 1.036897 0
M  V30 5 N 1.222435 -2.127401 1.922581 0
M  V30 6 O 1.946010 -3.084733 2.546033 0
M  V30 7 C 3.060991 -1.295339 0.549212 0
M  V30 8 N 3.445471 -0.414072 -0.383136 0
M  V30 9 O 4.677745 -0.557566 -0.665390 0
M  V30 10 N 5.225204 -1.516659 0.025529 0
M  V30 11 C 4.219253 -1.982747 0.787715 0
M  V30 12 N 4.359032 -3.042518 1.708373 0
M  V30 13 C -1.659880 0.392174 0.544647 0
M  V30 14 C -1.573727 1.101429 -0.627198 0
M  V30 15 C -2.747729 1.518895 -1.231794 0
M  V30 16 C -3.967542 1.223210 -0.660943 0
M  V30 17 C -4.067683 0.511415 0.516051 0
M  V30 18 C -2.882304 0.099017 1.111526 0
M  V30 19 Br -2.989767 -0.888684 2.742545 0
M  V30 20 H 0.183985 -0.522249 3.207869 0
M  V30 21 H 0.830094 0.046909 -0.378771 0
M  V30 22 H 1.995138 -3.266896 3.535953 0
M  V30 23 H 4.154730 -3.960275 1.218054 0
M  V30 24 H 4.632758 -2.662964 2.645726 0
M  V30 25 H -0.609464 1.322540 -1.057669 0
M  V30 26 H -2.748671 2.080235 -2.154463 0
M  V30 27 H -4.898644 1.555282 -1.142047 0
M  V30 28 H -5.048351 0.287420 0.952430 0
M  V30 END ATOM
M  V30 BEGIN BOND
M  V30 1 2 1 2 CFG=2
M  V30 2 1 2 3
M  V30 3 1 3 4
M  V30 4 2 4 5
M  V30 5 1 5 6
M  V30 6 1 4 7
M  V30 7 2 7 8
M  V30 8 1 8 9
M  V30 9 1 9 10
M  V30 10 2 10 11
M  V30 11 1 11 12
M  V30 12 1 2 13
M  V30 13 2 13 14
M  V30 14 1 14 15
M  V30 15 2 15 16
M  V30 16 1 16 17
M  V30 17 2 17 18
M  V30 18 1 18 19
M  V30 19 1 11 7
M  V30 20 1 18 13
M  V30 21 1 1 20
M  V30 22 1 3 21
M  V30 23 1 6 22
M  V30 24 1 12 23
M  V30 25 1 12 24
M  V30 26 1 14 25
M  V30 27 1 15 26
M  V30 28 1 16 27
M  V30 29 1 17 28
M  V30 END BOND
M  V30 END CTAB
M  END
>  <Dataset>  (369) 
ChEMBL_Kinases

>  <Ligand_Instance>  (369) 
nan

>  <PDB_ID>  (369) 
nan

>  <Standardized_SMILES>  (369) 
N=C(N/C(=N/O)c1nonc1N)c1ccccc1Br

>  <Name>  (369) 
nan

>  <Pocket>  (369) 
nan

>  <ATP_Site>  (369) 
nan

>  <Peripheral>  (369) 
nan

>  <Num_H_Atoms_ProtBoundConf>  (369) 
nan

>  <Num_Resolved_Atoms>  (369) 
nan

>  <Num_Not_Resolved_Atoms>  (369) 
nan

$$$$
CHEMBL3764684
     RDKit          3D

  0  0  0  0  0  0  0  0  0  0999 V3000
M  V30 BEGIN CTAB
M  V30 COUNTS 32 33 0 0 0
M  V30 BEGIN ATOM
M  V30 1 N -0.348370 -2.172433 -0.497259 0
M  V30 2 C -0.445398 -1.213383 0.336905 0
M  V30 3 N 0.734861 -0.494097 0.701489 0
M  V30 4 C 2.049357 -1.020729 0.610840 0
M  V30 5 N 2.018939 -2.290297 0.685576 0
M  V30 6 O 3.173934 -2.986373 0.619358 0
M  V30 7 C 3.169138 -0.110564 0.454092 0
M  V30 8 N 3.044100 1.207060 0.395409 0
M  V30 9 O 4.152475 1.823234 0.253279 0
M  V30 10 N 5.099006 0.923840 0.208667 0
M  V30 11 C 4.517993 -0.298693 0.331580 0
M  V30 12 N 5.224229 -1.512005 0.325863 0
M  V30 13 N -1.739108 -0.875313 0.882298 0
M  V30 14 C -2.370615 -0.955701 2.203306 0
M  V30 15 C -2.912079 0.435833 2.431748 0
M  V30 16 C -4.099591 0.588215 1.470731 0
M  V30 17 N -3.664220 0.336009 0.111141 0
M  V30 18 C -2.587846 -0.331551 -0.143489 0
M  V30 19 N -2.357928 -0.455162 -1.539100 0
M  V30 20 H 0.462759 -2.547485 -0.985500 0
M  V30 21 H 0.537057 0.494573 1.053654 0
M  V30 22 H 3.339453 -3.833525 1.133489 0
M  V30 23 H 5.297299 -1.865255 -0.671790 0
M  V30 24 H 5.500506 -1.752286 1.324570 0
M  V30 25 H -1.689787 -1.307224 2.971304 0
M  V30 26 H -3.251565 -1.627755 2.063218 0
M  V30 27 H -2.160075 1.155522 2.070927 0
M  V30 28 H -3.193910 0.660257 3.454046 0
M  V30 29 H -4.909968 -0.083009 1.770962 0
M  V30 30 H -4.460393 1.655156 1.518951 0
M  V30 31 H -2.805595 -1.099960 -2.228769 0
M  V30 32 H -1.626772 0.208803 -1.910122 0
M  V30 END ATOM
M  V30 BEGIN BOND
M  V30 1 2 1 2 CFG=2
M  V30 2 1 2 3
M  V30 3 1 3 4
M  V30 4 2 4 5
M  V30 5 1 5 6
M  V30 6 1 4 7
M  V30 7 2 7 8
M  V30 8 1 8 9
M  V30 9 1 9 10
M  V30 10 2 10 11
M  V30 11 1 11 12
M  V30 12 1 2 13
M  V30 13 1 13 14
M  V30 14 1 14 15
M  V30 15 1 15 16
M  V30 16 1 16 17
M  V30 17 2 17 18
M  V30 18 1 18 19
M  V30 19 1 11 7
M  V30 20 1 18 13
M  V30 21 1 1 20
M  V30 22 1 3 21
M  V30 23 1 6 22
M  V30 24 1 12 23
M  V30 25 1 12 24
M  V30 26 1 14 25
M  V30 27 1 14 26
M  V30 28 1 15 27
M  V30 29 1 15 28
M  V30 30 1 16 29
M  V30 31 1 16 30
M  V30 32 1 19 31
M  V30 33 1 19 32
M  V30 END BOND
M  V30 END CTAB
M  END
>  <Dataset>  (370) 
ChEMBL_Kinases

>  <Ligand_Instance>  (370) 
nan

>  <PDB_ID>  (370) 
nan

>  <Standardized_SMILES>  (370) 
N=C(N/C(=N/O)c1nonc1N)N1CCCN=C1N

>  <Name>  (370) 
nan

>  <Pocket>  (370) 
nan

>  <ATP_Site>  (370) 
nan

>  <Peripheral>  (370) 
nan

>  <Num_H_Atoms_ProtBoundConf>  (370) 
nan

>  <Num_Resolved_Atoms>  (370) 
nan

>  <Num_Not_Resolved_Atoms>  (370) 
nan

$$$$
CHEMBL3765050
     RDKit          3D

  0  0  0  0  0  0  0  0  0  0999 V3000
M  V30 BEGIN CTAB
M  V30 COUNTS 65 68 0 0 0
M  V30 BEGIN ATOM
M  V30 1 O 2.491966 -0.154747 -2.927845 0
M  V30 2 C 1.534657 -0.015690 -2.164221 0
M  V30 3 C 1.830834 -0.169098 -0.712452 0
M  V30 4 C 3.081913 -0.479834 -0.387474 0
M  V30 5 O 4.062602 -0.647833 -1.365546 0
M  V30 6 C 3.597467 -0.685796 0.988755 0
M  V30 7 C 4.835744 -1.020531 1.410750 0
M  V30 8 C 5.162824 -1.181585 2.814056 0
M  V30 9 C 4.209921 -0.898485 3.759218 0
M  V30 10 C 4.647022 -1.181499 5.054752 0
M  V30 11 C 5.851871 -1.681425 5.450596 0
M  V30 12 O 6.507443 -2.038405 6.567671 0
M  V30 13 C 6.132151 -2.022634 7.898077 0
M  V30 14 C 4.936722 -2.839317 8.212133 0
M  V30 15 C 3.626382 -2.422988 8.334397 0
M  V30 16 C 2.582278 -3.256545 8.598698 0
M  V30 17 F 1.348961 -2.711615 8.693239 0
M  V30 18 C 2.748466 -4.602721 8.770314 0
M  V30 19 C 4.060610 -5.051955 8.653261 0
M  V30 20 F 4.245266 -6.393920 8.823789 0
M  V30 21 C 5.153528 -4.211151 8.379356 0
M  V30 22 C 6.756530 -1.934810 4.400995 0
M  V30 23 C 6.432665 -1.690220 3.053347 0
M  V30 24 C 0.100122 0.260659 -2.186778 0
M  V30 25 C -0.975987 0.450996 -1.569943 0
M  V30 26 C -2.248079 0.710122 -2.194339 0
M  V30 27 C -3.328145 0.922668 -1.366447 0
M  V30 28 C -4.551788 1.138007 -1.947703 0
M  V30 29 C -4.805590 1.159231 -3.327178 0
M  V30 30 O -6.112435 1.390917 -3.615138 0
M  V30 31 C -6.781475 1.496696 -4.817300 0
M  V30 32 C -6.397825 2.581494 -5.719474 0
M  V30 33 C -7.065443 3.765516 -5.430756 0
M  V30 34 C -6.927035 4.955778 -6.107222 0
M  V30 35 F -7.584206 6.097594 -5.815002 0
M  V30 36 C -6.028097 4.916761 -7.163570 0
M  V30 37 C -5.314964 3.790367 -7.532679 0
M  V30 38 F -4.435553 3.712387 -8.549954 0
M  V30 39 C -5.532144 2.650700 -6.783615 0
M  V30 40 C -3.666031 0.936217 -4.090618 0
M  V30 41 C -2.435606 0.721080 -3.542040 0
M  V30 42 H 1.229283 -0.079036 0.184986 0
M  V30 43 H 4.872741 -0.043639 -1.281577 0
M  V30 44 H 2.788313 -0.540254 1.736436 0
M  V30 45 H 5.328809 -1.121065 0.476256 0
M  V30 46 H 3.242328 -0.511001 3.648351 0
M  V30 47 H 4.019365 -1.010245 5.904242 0
M  V30 48 H 5.957745 -0.946455 8.198565 0
M  V30 49 H 6.948356 -2.401242 8.574329 0
M  V30 50 H 3.489197 -1.360464 8.206170 0
M  V30 51 H 1.954260 -5.296400 8.983792 0
M  V30 52 H 6.098305 -4.736129 8.324246 0
M  V30 53 H 7.792807 -2.338472 4.451921 0
M  V30 54 H 7.108662 -1.881872 2.210884 0
M  V30 55 H 0.046129 0.317454 -3.299503 0
M  V30 56 H -0.686201 0.358606 -0.538506 0
M  V30 57 H -3.153731 0.907956 -0.304194 0
M  V30 58 H -5.343669 1.300382 -1.210091 0
M  V30 59 H -7.883804 1.419147 -4.691927 0
M  V30 60 H -6.532610 0.541561 -5.388828 0
M  V30 61 H -7.789043 3.878664 -4.616608 0
M  V30 62 H -5.823891 5.790462 -7.776953 0
M  V30 63 H -5.031085 1.717392 -7.002160 0
M  V30 64 H -3.867334 0.952717 -5.136222 0
M  V30 65 H -1.655110 0.561883 -4.258927 0
M  V30 END ATOM
M  V30 BEGIN BOND
M  V30 1 2 1 2
M  V30 2 1 2 3
M  V30 3 2 3 4
M  V30 4 1 4 5
M  V30 5 1 4 6
M  V30 6 2 6 7
M  V30 7 1 7 8
M  V30 8 2 8 9
M  V30 9 1 9 10
M  V30 10 2 10 11
M  V30 11 1 11 12
M  V30 12 1 12 13
M  V30 13 1 13 14
M  V30 14 2 14 15
M  V30 15 1 15 16
M  V30 16 1 16 17
M  V30 17 2 16 18
M  V30 18 1 18 19
M  V30 19 1 19 20
M  V30 20 2 19 21
M  V30 21 1 11 22
M  V30 22 2 22 23
M  V30 23 1 2 24
M  V30 24 2 24 25
M  V30 25 1 25 26
M  V30 26 2 26 27
M  V30 27 1 27 28
M  V30 28 2 28 29
M  V30 29 1 29 30
M  V30 30 1 30 31
M  V30 31 1 31 32
M  V30 32 2 32 33
M  V30 33 1 33 34
M  V30 34 1 34 35
M  V30 35 2 34 36
M  V30 36 1 36 37
M  V30 37 1 37 38
M  V30 38 2 37 39
M  V30 39 1 29 40
M  V30 40 2 40 41
M  V30 41 1 23 8
M  V30 42 1 41 26
M  V30 43 1 21 14
M  V30 44 1 39 32
M  V30 45 1 3 42
M  V30 46 1 5 43
M  V30 47 1 6 44
M  V30 48 1 7 45
M  V30 49 1 9 46
M  V30 50 1 10 47
M  V30 51 1 13 48
M  V30 52 1 13 49
M  V30 53 1 15 50
M  V30 54 1 18 51
M  V30 55 1 21 52
M  V30 56 1 22 53
M  V30 57 1 23 54
M  V30 58 1 24 55
M  V30 59 1 25 56
M  V30 60 1 27 57
M  V30 61 1 28 58
M  V30 62 1 31 59
M  V30 63 1 31 60
M  V30 64 1 33 61
M  V30 65 1 36 62
M  V30 66 1 39 63
M  V30 67 1 40 64
M  V30 68 1 41 65
M  V30 END BOND
M  V30 END CTAB
M  END
>  <Dataset>  (371) 
ChEMBL_Kinases

>  <Ligand_Instance>  (371) 
nan

>  <PDB_ID>  (371) 
nan

>  <Standardized_SMILES>  (371) 
O=C(/C=C(O)/C=C/c1ccc(OCc2cc(F)cc(F)c2)cc1)/C=C/c1ccc(OCc2cc(F)cc(F)c2)cc1

>  <Name>  (371) 
nan

>  <Pocket>  (371) 
nan

>  <ATP_Site>  (371) 
nan

>  <Peripheral>  (371) 
nan

>  <Num_H_Atoms_ProtBoundConf>  (371) 
nan

>  <Num_Resolved_Atoms>  (371) 
nan

>  <Num_Not_Resolved_Atoms>  (371) 
nan

$$$$
CHEMBL3702307
     RDKit          3D

  0  0  0  0  0  0  0  0  0  0999 V3000
M  V30 BEGIN CTAB
M  V30 COUNTS 50 52 0 0 0
M  V30 BEGIN ATOM
M  V30 1 C 0.458861 -0.443976 2.375379 0
M  V30 2 C 1.272182 0.060686 1.240658 0
M  V30 3 C 2.566064 -0.430278 1.081196 0
M  V30 4 C 3.303982 -1.383169 1.846496 0
M  V30 5 O 2.976619 -2.033550 2.872514 0
M  V30 6 N 4.631201 -1.701167 1.445906 0
M  V30 7 C 5.547719 -2.621092 2.070905 0
M  V30 8 C 5.844952 -2.166185 3.479432 0
M  V30 9 O 6.420306 -0.884700 3.467571 0
M  V30 10 S 3.206613 0.425727 -0.393692 0
M  V30 11 C 1.714263 1.378964 -0.700262 0
M  V30 12 N 1.398613 2.277902 -1.638560 0
M  V30 13 C 0.200603 2.888032 -1.674101 0
M  V30 14 N -0.646730 2.529023 -0.705379 0
M  V30 15 C -0.362437 1.638571 0.240502 0
M  V30 16 N -1.469006 1.493269 1.112604 0
M  V30 17 C -2.645326 0.940103 0.484605 0
M  V30 18 C -3.654813 1.903527 0.626797 0
M  V30 19 C -4.939619 1.684520 0.113973 0
M  V30 20 C -5.215568 0.490308 -0.547076 0
M  V30 21 C -6.496829 0.174116 -1.105817 0
M  V30 22 N -7.542139 -0.083749 -1.544792 0
M  V30 23 C -4.185455 -0.418508 -0.656250 0
M  V30 24 C -2.921145 -0.232906 -0.165809 0
M  V30 25 O -1.835578 -1.060341 -0.218375 0
M  V30 26 C -1.802783 -2.317848 -0.824172 0
M  V30 27 C -1.697630 -3.362330 0.297424 0
M  V30 28 F -0.554346 -3.132913 0.999603 0
M  V30 29 C -0.684525 -2.475282 -1.810842 0
M  V30 30 F -0.830197 -1.531466 -2.805644 0
M  V30 31 C 0.829204 0.981073 0.340378 0
M  V30 32 H 0.777997 -1.485826 2.653946 0
M  V30 33 H 0.576253 0.141923 3.309453 0
M  V30 34 H -0.639072 -0.441963 2.151352 0
M  V30 35 H 5.012800 -1.212637 0.583571 0
M  V30 36 H 5.145305 -3.659954 2.090314 0
M  V30 37 H 6.496480 -2.669240 1.500918 0
M  V30 38 H 6.539272 -2.873746 3.997648 0
M  V30 39 H 4.905406 -2.093998 4.043751 0
M  V30 40 H 5.854997 -0.205647 3.889470 0
M  V30 41 H 0.136282 3.574293 -2.498121 0
M  V30 42 H -1.495674 1.755715 2.144295 0
M  V30 43 H -3.637148 2.879601 1.101520 0
M  V30 44 H -5.776165 2.357478 0.170673 0
M  V30 45 H -4.347056 -1.360893 -1.159133 0
M  V30 46 H -2.754698 -2.601562 -1.349131 0
M  V30 47 H -2.610763 -3.174714 0.933003 0
M  V30 48 H -1.761518 -4.381378 -0.114033 0
M  V30 49 H 0.293498 -2.315864 -1.274907 0
M  V30 50 H -0.701729 -3.459387 -2.310493 0
M  V30 END ATOM
M  V30 BEGIN BOND
M  V30 1 1 1 2
M  V30 2 2 2 3
M  V30 3 1 3 4
M  V30 4 2 4 5
M  V30 5 1 4 6
M  V30 6 1 6 7
M  V30 7 1 7 8
M  V30 8 1 8 9
M  V30 9 1 3 10
M  V30 10 1 10 11
M  V30 11 2 11 12
M  V30 12 1 12 13
M  V30 13 2 13 14
M  V30 14 1 14 15
M  V30 15 1 15 16
M  V30 16 1 16 17
M  V30 17 2 17 18
M  V30 18 1 18 19
M  V30 19 2 19 20
M  V30 20 1 20 21
M  V30 21 3 21 22
M  V30 22 1 20 23
M  V30 23 2 23 24
M  V30 24 1 24 25
M  V30 25 1 25 26
M  V30 26 1 26 27
M  V30 27 1 27 28
M  V30 28 1 26 29
M  V30 29 1 29 30
M  V30 30 2 15 31
M  V30 31 1 31 2
M  V30 32 1 31 11
M  V30 33 1 24 17
M  V30 34 1 1 32
M  V30 35 1 1 33
M  V30 36 1 1 34
M  V30 37 1 6 35
M  V30 38 1 7 36
M  V30 39 1 7 37
M  V30 40 1 8 38
M  V30 41 1 8 39
M  V30 42 1 9 40
M  V30 43 1 13 41
M  V30 44 1 16 42
M  V30 45 1 18 43
M  V30 46 1 19 44
M  V30 47 1 23 45
M  V30 48 1 26 46
M  V30 49 1 27 47
M  V30 50 1 27 48
M  V30 51 1 29 49
M  V30 52 1 29 50
M  V30 END BOND
M  V30 END CTAB
M  END
>  <Dataset>  (372) 
ChEMBL_Kinases

>  <Ligand_Instance>  (372) 
nan

>  <PDB_ID>  (372) 
nan

>  <Standardized_SMILES>  (372) 
Cc1c(C(=O)NCCO)sc2ncnc(Nc3ccc(C#N)cc3OC(CF)CF)c12

>  <Name>  (372) 
nan

>  <Pocket>  (372) 
nan

>  <ATP_Site>  (372) 
nan

>  <Peripheral>  (372) 
nan

>  <Num_H_Atoms_ProtBoundConf>  (372) 
nan

>  <Num_Resolved_Atoms>  (372) 
nan

>  <Num_Not_Resolved_Atoms>  (372) 
nan

$$$$
CHEMBL377592
     RDKit          3D

  0  0  0  0  0  0  0  0  0  0999 V3000
M  V30 BEGIN CTAB
M  V30 COUNTS 51 53 0 0 0
M  V30 BEGIN ATOM
M  V30 1 C 3.842592 -4.589185 3.247270 0
M  V30 2 O 3.499940 -3.694043 2.217162 0
M  V30 3 C 2.606762 -3.922664 1.205155 0
M  V30 4 O 2.048674 -5.072107 1.225203 0
M  V30 5 C 2.330854 -2.915436 0.197297 0
M  V30 6 C 2.994463 -1.703068 0.269235 0
M  V30 7 C 2.697901 -0.754179 -0.701681 0
M  V30 8 C 1.758524 -1.043541 -1.700762 0
M  V30 9 N 1.621502 0.076199 -2.526734 0
M  V30 10 C 1.467597 1.466876 -2.253310 0
M  V30 11 S 1.575113 2.840259 -3.264082 0
M  V30 12 N 1.196407 4.106676 -1.926282 0
M  V30 13 C 1.050174 3.117429 -0.878127 0
M  V30 14 O 0.770240 4.125162 0.087106 0
M  V30 15 C 1.165927 1.737687 -0.932068 0
M  V30 16 C 0.864626 1.249720 0.389097 0
M  V30 17 N 1.600204 1.406559 1.465409 0
M  V30 18 N -0.326627 0.562723 0.792059 0
M  V30 19 C -0.476988 -0.506629 1.743641 0
M  V30 20 C -1.908306 -0.846133 2.069471 0
M  V30 21 C -2.556077 0.372945 2.636036 0
M  V30 22 C -3.649174 1.007125 1.885569 0
M  V30 23 C -4.190043 0.319160 0.690422 0
M  V30 24 C -4.081083 -1.164251 0.923366 0
M  V30 25 C -2.584267 -1.460948 0.915770 0
M  V30 26 C 1.118545 -2.253987 -1.745270 0
M  V30 27 C 1.404350 -3.200781 -0.788780 0
M  V30 28 H 4.873561 -5.003978 3.130975 0
M  V30 29 H 3.823072 -4.038131 4.222495 0
M  V30 30 H 3.129751 -5.459207 3.245727 0
M  V30 31 H 3.706070 -1.558617 1.072980 0
M  V30 32 H 3.289681 0.146351 -0.554147 0
M  V30 33 H 1.647897 -0.226069 -3.517398 0
M  V30 34 H 0.189959 3.834193 0.870990 0
M  V30 35 H 2.519640 1.943673 1.380344 0
M  V30 36 H -1.220284 0.893699 0.311215 0
M  V30 37 H 0.074625 -1.381953 1.279713 0
M  V30 38 H 0.076389 -0.286012 2.694481 0
M  V30 39 H -1.822092 -1.646666 2.869401 0
M  V30 40 H -1.775671 1.162107 2.857699 0
M  V30 41 H -2.924919 0.119183 3.667509 0
M  V30 42 H -4.520055 1.218287 2.574813 0
M  V30 43 H -3.349975 2.048295 1.536153 0
M  V30 44 H -3.588116 0.597446 -0.218462 0
M  V30 45 H -5.245123 0.639785 0.543698 0
M  V30 46 H -4.599090 -1.764147 0.161593 0
M  V30 47 H -4.430408 -1.420544 1.952920 0
M  V30 48 H -2.213691 -1.196449 -0.091223 0
M  V30 49 H -2.538279 -2.593059 0.965391 0
M  V30 50 H 0.443559 -2.287937 -2.581797 0
M  V30 51 H 0.859376 -4.128526 -0.892582 0
M  V30 END ATOM
M  V30 BEGIN BOND
M  V30 1 1 1 2
M  V30 2 1 2 3
M  V30 3 2 3 4
M  V30 4 1 3 5
M  V30 5 2 5 6
M  V30 6 1 6 7
M  V30 7 2 7 8
M  V30 8 1 8 9
M  V30 9 1 9 10
M  V30 10 1 10 11
M  V30 11 1 11 12
M  V30 12 2 12 13
M  V30 13 1 13 14
M  V30 14 1 13 15
M  V30 15 1 15 16
M  V30 16 2 16 17 CFG=2
M  V30 17 1 16 18
M  V30 18 1 18 19
M  V30 19 1 19 20
M  V30 20 1 20 21
M  V30 21 1 21 22
M  V30 22 1 22 23
M  V30 23 1 23 24
M  V30 24 1 24 25
M  V30 25 1 8 26
M  V30 26 2 26 27
M  V30 27 1 27 5
M  V30 28 2 15 10
M  V30 29 1 25 20
M  V30 30 1 1 28
M  V30 31 1 1 29
M  V30 32 1 1 30
M  V30 33 1 6 31
M  V30 34 1 7 32
M  V30 35 1 9 33
M  V30 36 1 14 34
M  V30 37 1 17 35
M  V30 38 1 18 36
M  V30 39 1 19 37
M  V30 40 1 19 38
M  V30 41 1 20 39
M  V30 42 1 21 40
M  V30 43 1 21 41
M  V30 44 1 22 42
M  V30 45 1 22 43
M  V30 46 1 23 44
M  V30 47 1 23 45
M  V30 48 1 24 46
M  V30 49 1 24 47
M  V30 50 1 25 48
M  V30 51 1 25 49
M  V30 52 1 26 50
M  V30 53 1 27 51
M  V30 END BOND
M  V30 END CTAB
M  END
>  <Dataset>  (373) 
ChEMBL_Kinases

>  <Ligand_Instance>  (373) 
nan

>  <PDB_ID>  (373) 
nan

>  <Standardized_SMILES>  (373) 
COC(=O)c1ccc(Nc2snc(O)c2C(=N)NCC2CCCCC2)cc1

>  <Name>  (373) 
nan

>  <Pocket>  (373) 
nan

>  <ATP_Site>  (373) 
nan

>  <Peripheral>  (373) 
nan

>  <Num_H_Atoms_ProtBoundConf>  (373) 
nan

>  <Num_Resolved_Atoms>  (373) 
nan

>  <Num_Not_Resolved_Atoms>  (373) 
nan

$$$$
CHEMBL3775910
     RDKit          3D

  0  0  0  0  0  0  0  0  0  0999 V3000
M  V30 BEGIN CTAB
M  V30 COUNTS 38 40 0 0 0
M  V30 BEGIN ATOM
M  V30 1 C -1.389598 -4.818562 2.363105 0
M  V30 2 N -0.635648 -3.593175 2.200614 0
M  V30 3 C 0.779568 -3.541518 2.122445 0
M  V30 4 O 1.339226 -4.661607 2.206788 0
M  V30 5 C 1.572972 -2.334707 1.959349 0
M  V30 6 C 2.943358 -2.475059 1.910527 0
M  V30 7 C 3.725365 -1.349351 1.755330 0
M  V30 8 C 3.186149 -0.062164 1.644258 0
M  V30 9 N 3.621744 1.192467 1.491982 0
M  V30 10 N 2.597888 2.029313 1.450978 0
M  V30 11 C 1.422971 1.370679 1.574507 0
M  V30 12 C 0.091027 2.031627 1.557775 0
M  V30 13 C -0.526643 1.815601 0.222258 0
M  V30 14 C -0.171181 2.760950 -0.748551 0
M  V30 15 C -0.636811 2.736019 -2.043651 0
M  V30 16 C -1.496884 1.728943 -2.402972 0
M  V30 17 C -1.880683 0.762633 -1.469320 0
M  V30 18 C -2.808877 -0.349076 -1.816192 0
M  V30 19 C -1.388879 0.830618 -0.189253 0
M  V30 20 C 1.812641 0.055037 1.695447 0
M  V30 21 C 1.037123 -1.073064 1.850935 0
M  V30 22 H -0.925676 -5.509044 3.117574 0
M  V30 23 H -1.549885 -5.378273 1.430277 0
M  V30 24 H -2.382411 -4.545315 2.811008 0
M  V30 25 H -1.157919 -2.670370 2.134195 0
M  V30 26 H 3.471165 -3.415365 1.985311 0
M  V30 27 H 4.804109 -1.359932 1.706202 0
M  V30 28 H 4.651706 1.424311 1.419721 0
M  V30 29 H 0.210047 3.109219 1.743388 0
M  V30 30 H -0.557699 1.656445 2.375412 0
M  V30 31 H 0.507512 3.581070 -0.519123 0
M  V30 32 H -0.341544 3.481626 -2.767158 0
M  V30 33 H -1.884170 1.678135 -3.417595 0
M  V30 34 H -2.241887 -1.292289 -1.558896 0
M  V30 35 H -2.908291 -0.404386 -2.923140 0
M  V30 36 H -3.743960 -0.354440 -1.260593 0
M  V30 37 H -1.647960 0.121396 0.573752 0
M  V30 38 H -0.023249 -0.999524 1.895485 0
M  V30 END ATOM
M  V30 BEGIN BOND
M  V30 1 1 1 2
M  V30 2 1 2 3
M  V30 3 2 3 4
M  V30 4 1 3 5
M  V30 5 2 5 6
M  V30 6 1 6 7
M  V30 7 2 7 8
M  V30 8 1 8 9
M  V30 9 1 9 10
M  V30 10 2 10 11
M  V30 11 1 11 12
M  V30 12 1 12 13
M  V30 13 2 13 14
M  V30 14 1 14 15
M  V30 15 2 15 16
M  V30 16 1 16 17
M  V30 17 1 17 18
M  V30 18 2 17 19
M  V30 19 1 11 20
M  V30 20 2 20 21
M  V30 21 1 21 5
M  V30 22 1 20 8
M  V30 23 1 19 13
M  V30 24 1 1 22
M  V30 25 1 1 23
M  V30 26 1 1 24
M  V30 27 1 2 25
M  V30 28 1 6 26
M  V30 29 1 7 27
M  V30 30 1 9 28
M  V30 31 1 12 29
M  V30 32 1 12 30
M  V30 33 1 14 31
M  V30 34 1 15 32
M  V30 35 1 16 33
M  V30 36 1 18 34
M  V30 37 1 18 35
M  V30 38 1 18 36
M  V30 39 1 19 37
M  V30 40 1 21 38
M  V30 END BOND
M  V30 END CTAB
M  END
>  <Dataset>  (374) 
ChEMBL_Kinases

>  <Ligand_Instance>  (374) 
nan

>  <PDB_ID>  (374) 
nan

>  <Standardized_SMILES>  (374) 
CNC(=O)c1ccc2[nH]nc(Cc3cccc(C)c3)c2c1

>  <Name>  (374) 
nan

>  <Pocket>  (374) 
nan

>  <ATP_Site>  (374) 
nan

>  <Peripheral>  (374) 
nan

>  <Num_H_Atoms_ProtBoundConf>  (374) 
nan

>  <Num_Resolved_Atoms>  (374) 
nan

>  <Num_Not_Resolved_Atoms>  (374) 
nan

$$$$
CHEMBL377591
     RDKit          3D

  0  0  0  0  0  0  0  0  0  0999 V3000
M  V30 BEGIN CTAB
M  V30 COUNTS 44 46 0 0 0
M  V30 BEGIN ATOM
M  V30 1 N 1.815528 -0.460287 3.572541 0
M  V30 2 C 0.933835 0.007822 2.592867 0
M  V30 3 N 0.625444 -0.773539 1.623309 0
M  V30 4 C 1.128343 -2.110417 1.475688 0
M  V30 5 C 1.951065 -2.293672 0.196294 0
M  V30 6 C 1.086295 -1.986133 -0.954984 0
M  V30 7 C 1.738068 -1.415429 -2.168717 0
M  V30 8 C 2.879227 -0.506178 -1.923214 0
M  V30 9 C 3.848642 -1.132426 -0.955538 0
M  V30 10 C 3.190239 -1.498725 0.341259 0
M  V30 11 C 0.309332 1.306260 2.559415 0
M  V30 12 C 0.549270 2.214658 3.522720 0
M  V30 13 O 1.337500 2.269200 4.676266 0
M  V30 14 N -0.056970 3.504964 3.534969 0
M  V30 15 S -1.093045 3.409309 1.982694 0
M  V30 16 C -0.598551 1.793123 1.589231 0
M  V30 17 N -1.043126 1.048538 0.466210 0
M  V30 18 C -2.356574 0.505293 0.470934 0
M  V30 19 C -2.840329 -0.432157 -0.423632 0
M  V30 20 C -4.124533 -0.907839 -0.385516 0
M  V30 21 C -5.001375 -0.440813 0.590246 0
M  V30 22 N -4.555295 0.478657 1.481334 0
M  V30 23 C -3.276681 0.922971 1.407957 0
M  V30 24 H 1.764139 -0.986377 4.461269 0
M  V30 25 H 1.359404 -0.973949 4.358234 0
M  V30 26 H 0.264377 -2.793780 1.471311 0
M  V30 27 H 1.746137 -2.372153 2.383084 0
M  V30 28 H 2.217112 -3.390889 0.202677 0
M  V30 29 H 0.208707 -1.369143 -0.650433 0
M  V30 30 H 0.609596 -2.944078 -1.302483 0
M  V30 31 H 2.074876 -2.212322 -2.859915 0
M  V30 32 H 0.951258 -0.831618 -2.706597 0
M  V30 33 H 2.599973 0.533454 -1.647201 0
M  V30 34 H 3.453163 -0.394449 -2.880775 0
M  V30 35 H 4.628024 -0.376431 -0.736645 0
M  V30 36 H 4.291303 -2.023923 -1.424335 0
M  V30 37 H 3.948715 -2.124352 0.887174 0
M  V30 38 H 3.033534 -0.601934 0.983981 0
M  V30 39 H 1.740422 1.402518 4.990979 0
M  V30 40 H -0.375456 0.941566 -0.306253 0
M  V30 41 H -2.143586 -0.788391 -1.175943 0
M  V30 42 H -4.406391 -1.651787 -1.142554 0
M  V30 43 H -5.988469 -0.871476 0.534732 0
M  V30 44 H -3.025263 1.655517 2.164949 0
M  V30 END ATOM
M  V30 BEGIN BOND
M  V30 1 1 1 2
M  V30 2 2 2 3
M  V30 3 1 3 4
M  V30 4 1 4 5
M  V30 5 1 5 6
M  V30 6 1 6 7
M  V30 7 1 7 8
M  V30 8 1 8 9
M  V30 9 1 9 10
M  V30 10 1 2 11
M  V30 11 1 11 12
M  V30 12 1 12 13
M  V30 13 2 12 14
M  V30 14 1 14 15
M  V30 15 1 15 16
M  V30 16 1 16 17
M  V30 17 1 17 18
M  V30 18 2 18 19
M  V30 19 1 19 20
M  V30 20 2 20 21
M  V30 21 1 21 22
M  V30 22 2 22 23
M  V30 23 1 10 5
M  V30 24 2 16 11
M  V30 25 1 23 18
M  V30 26 1 1 24
M  V30 27 1 1 25
M  V30 28 1 4 26
M  V30 29 1 4 27
M  V30 30 1 5 28
M  V30 31 1 6 29
M  V30 32 1 6 30
M  V30 33 1 7 31
M  V30 34 1 7 32
M  V30 35 1 8 33
M  V30 36 1 8 34
M  V30 37 1 9 35
M  V30 38 1 9 36
M  V30 39 1 10 37
M  V30 40 1 10 38
M  V30 41 1 13 39
M  V30 42 1 17 40
M  V30 43 1 19 41
M  V30 44 1 20 42
M  V30 45 1 21 43
M  V30 46 1 23 44
M  V30 END BOND
M  V30 END CTAB
M  END
>  <Dataset>  (375) 
ChEMBL_Kinases

>  <Ligand_Instance>  (375) 
nan

>  <PDB_ID>  (375) 
nan

>  <Standardized_SMILES>  (375) 
N/C(=N\CC1CCCCC1)c1c(O)nsc1Nc1cccnc1

>  <Name>  (375) 
nan

>  <Pocket>  (375) 
nan

>  <ATP_Site>  (375) 
nan

>  <Peripheral>  (375) 
nan

>  <Num_H_Atoms_ProtBoundConf>  (375) 
nan

>  <Num_Resolved_Atoms>  (375) 
nan

>  <Num_Not_Resolved_Atoms>  (375) 
nan

$$$$
CHEMBL5083720
     RDKit          3D

  0  0  0  0  0  0  0  0  0  0999 V3000
M  V30 BEGIN CTAB
M  V30 COUNTS 53 56 0 0 0
M  V30 BEGIN ATOM
M  V30 1 C 5.475034 -1.438920 5.118509 0
M  V30 2 C 4.046345 -1.833743 5.363520 0
M  V30 3 O 3.313474 -1.969142 4.174033 0
M  V30 4 C 3.161953 -0.880996 3.342002 0
M  V30 5 C 3.610557 0.417086 3.443005 0
M  V30 6 C 3.321002 1.337389 2.459882 0
M  V30 7 N 3.788005 2.588836 2.616719 0
M  V30 8 C 3.541046 3.554261 1.683936 0
M  V30 9 N 2.817839 3.216155 0.605490 0
M  V30 10 C 2.323297 1.986054 0.389722 0
M  V30 11 N 1.568152 1.726968 -0.785710 0
M  V30 12 C 1.342197 2.795010 -1.735465 0
M  V30 13 C 0.535623 2.403855 -2.932750 0
M  V30 14 C -0.845327 1.911096 -2.501363 0
M  V30 15 C -1.980304 2.647901 -2.335379 0
M  V30 16 N -3.069319 2.014576 -1.954537 0
M  V30 17 C -3.153463 0.859464 -1.742238 0
M  V30 18 N -4.182785 -0.076169 -1.326570 0
M  V30 19 C -3.948948 -1.442690 -1.160313 0
M  V30 20 O -2.785075 -1.830083 -1.391637 0
M  V30 21 N -4.950734 -2.358508 -0.754991 0
M  V30 22 C -4.815701 -3.751353 -0.559401 0
M  V30 23 C -3.685391 -4.515694 -0.720052 0
M  V30 24 C -3.632285 -5.873468 -0.509507 0
M  V30 25 C -4.751135 -6.552364 -0.113648 0
M  V30 26 C -5.901599 -5.815687 0.056675 0
M  V30 27 Cl -7.362135 -6.619220 0.559764 0
M  V30 28 C -5.917587 -4.456966 -0.163437 0
M  V30 29 S -1.440019 0.262486 -2.078011 0
M  V30 30 C 2.581769 1.023937 1.340750 0
M  V30 31 C 2.111193 -0.258228 1.193775 0
M  V30 32 C 2.411076 -1.180814 2.195785 0
M  V30 33 F 1.895444 -2.434493 1.955798 0
M  V30 34 H 5.726865 -0.554138 5.727565 0
M  V30 35 H 6.147350 -2.299157 5.368726 0
M  V30 36 H 5.691967 -1.210640 4.050672 0
M  V30 37 H 3.977614 -2.777099 5.969711 0
M  V30 38 H 3.536926 -1.018470 5.948988 0
M  V30 39 H 4.176805 0.602595 4.338070 0
M  V30 40 H 3.919381 4.564270 1.813002 0
M  V30 41 H 1.134303 0.835699 -1.073466 0
M  V30 42 H 2.250436 3.345200 -1.998367 0
M  V30 43 H 0.710157 3.541181 -1.168187 0
M  V30 44 H 1.004575 1.591572 -3.527692 0
M  V30 45 H 0.313920 3.287336 -3.529110 0
M  V30 46 H -1.952086 3.727102 -2.520957 0
M  V30 47 H -5.095823 0.352086 -1.165614 0
M  V30 48 H -5.857489 -1.903393 -0.600022 0
M  V30 49 H -2.777643 -4.058008 -1.025855 0
M  V30 50 H -2.714388 -6.426497 -0.651128 0
M  V30 51 H -4.707589 -7.610816 0.049932 0
M  V30 52 H -6.859432 -3.937001 -0.010278 0
M  V30 53 H 1.538018 -0.522338 0.337258 0
M  V30 END ATOM
M  V30 BEGIN BOND
M  V30 1 1 1 2
M  V30 2 1 2 3
M  V30 3 1 3 4
M  V30 4 2 4 5
M  V30 5 1 5 6
M  V30 6 2 6 7
M  V30 7 1 7 8
M  V30 8 2 8 9
M  V30 9 1 9 10
M  V30 10 1 10 11
M  V30 11 1 11 12
M  V30 12 1 12 13
M  V30 13 1 13 14
M  V30 14 2 14 15
M  V30 15 1 15 16
M  V30 16 2 16 17
M  V30 17 1 17 18
M  V30 18 1 18 19
M  V30 19 2 19 20
M  V30 20 1 19 21
M  V30 21 1 21 22
M  V30 22 2 22 23
M  V30 23 1 23 24
M  V30 24 2 24 25
M  V30 25 1 25 26
M  V30 26 1 26 27
M  V30 27 2 26 28
M  V30 28 1 17 29
M  V30 29 2 10 30
M  V30 30 1 30 31
M  V30 31 2 31 32
M  V30 32 1 32 33
M  V30 33 1 32 4
M  V30 34 1 30 6
M  V30 35 1 29 14
M  V30 36 1 28 22
M  V30 37 1 1 34
M  V30 38 1 1 35
M  V30 39 1 1 36
M  V30 40 1 2 37
M  V30 41 1 2 38
M  V30 42 1 5 39
M  V30 43 1 8 40
M  V30 44 1 11 41
M  V30 45 1 12 42
M  V30 46 1 12 43
M  V30 47 1 13 44
M  V30 48 1 13 45
M  V30 49 1 15 46
M  V30 50 1 18 47
M  V30 51 1 21 48
M  V30 52 1 23 49
M  V30 53 1 24 50
M  V30 54 1 25 51
M  V30 55 1 28 52
M  V30 56 1 31 53
M  V30 END BOND
M  V30 END CTAB
M  END
>  <Dataset>  (376) 
ChEMBL_Kinases

>  <Ligand_Instance>  (376) 
nan

>  <PDB_ID>  (376) 
nan

>  <Standardized_SMILES>  (376) 
CCOc1cc2ncnc(NCCc3cnc(NC(=O)Nc4cccc(Cl)c4)s3)c2cc1F

>  <Name>  (376) 
nan

>  <Pocket>  (376) 
nan

>  <ATP_Site>  (376) 
nan

>  <Peripheral>  (376) 
nan

>  <Num_H_Atoms_ProtBoundConf>  (376) 
nan

>  <Num_Resolved_Atoms>  (376) 
nan

>  <Num_Not_Resolved_Atoms>  (376) 
nan

$$$$
CHEMBL5083742
     RDKit          3D

  0  0  0  0  0  0  0  0  0  0999 V3000
M  V30 BEGIN CTAB
M  V30 COUNTS 40 42 0 0 0
M  V30 BEGIN ATOM
M  V30 1 C -1.698775 -0.878484 3.568313 0
M  V30 2 C -1.981695 -1.252554 2.353956 0
M  V30 3 C -1.716227 -0.151282 1.435622 0
M  V30 4 O -1.479634 0.131594 2.631142 0
M  V30 5 N -1.822376 0.027515 0.039666 0
M  V30 6 C -2.235771 -1.110338 -0.686636 0
M  V30 7 O -2.665452 -2.120308 -0.073674 0
M  V30 8 C -2.231025 -1.276214 -2.146079 0
M  V30 9 C -0.913191 -1.134143 -2.828732 0
M  V30 10 C 0.219533 -1.825100 -2.208249 0
M  V30 11 C 0.546655 -3.031996 -2.835607 0
M  V30 12 C 1.615753 -3.825345 -2.393300 0
M  V30 13 C 2.360316 -3.404351 -1.313065 0
M  V30 14 C 3.518905 -4.204790 -0.790669 0
M  V30 15 C 2.070579 -2.215374 -0.660939 0
M  V30 16 C 1.012695 -1.484010 -1.143528 0
M  V30 17 S -0.555182 0.611783 -3.085304 0
M  V30 18 C -0.953850 1.620283 -1.675257 0
M  V30 19 C -0.677645 2.947386 -1.925607 0
M  V30 20 C -0.925865 3.905119 -0.934618 0
M  V30 21 C -1.441086 3.610758 0.310532 0
M  V30 22 C -1.706948 2.282863 0.530935 0
M  V30 23 C -1.474921 1.318879 -0.419004 0
M  V30 24 H -1.807733 -1.500085 4.425213 0
M  V30 25 H -1.417933 -0.408347 4.484427 0
M  V30 26 H -2.348292 -2.263062 2.223033 0
M  V30 27 H -2.919892 -0.481353 -2.558483 0
M  V30 28 H -2.684375 -2.239158 -2.468867 0
M  V30 29 H -1.085510 -1.550779 -3.877496 0
M  V30 30 H 0.021432 -3.448882 -3.692080 0
M  V30 31 H 1.899858 -4.756696 -2.841265 0
M  V30 32 H 3.274637 -5.278446 -0.967069 0
M  V30 33 H 3.672275 -4.048601 0.281369 0
M  V30 34 H 4.409665 -3.975771 -1.421667 0
M  V30 35 H 2.600676 -1.811817 0.192098 0
M  V30 36 H 0.755099 -0.547855 -0.674350 0
M  V30 37 H -0.275822 3.229783 -2.877705 0
M  V30 38 H -0.691696 4.932908 -1.187900 0
M  V30 39 H -1.584506 4.425297 0.981157 0
M  V30 40 H -2.114741 2.000871 1.487670 0
M  V30 END ATOM
M  V30 BEGIN BOND
M  V30 1 2 1 2
M  V30 2 1 2 3
M  V30 3 2 3 4
M  V30 4 1 3 5
M  V30 5 1 5 6
M  V30 6 2 6 7
M  V30 7 1 6 8
M  V30 8 1 8 9
M  V30 9 1 9 10
M  V30 10 2 10 11
M  V30 11 1 11 12
M  V30 12 2 12 13
M  V30 13 1 13 14
M  V30 14 1 13 15
M  V30 15 2 15 16
M  V30 16 1 9 17
M  V30 17 1 17 18
M  V30 18 2 18 19
M  V30 19 1 19 20
M  V30 20 2 20 21
M  V30 21 1 21 22
M  V30 22 2 22 23
M  V30 23 1 23 5
M  V30 24 1 16 10
M  V30 25 1 23 18
M  V30 26 1 1 24
M  V30 27 1 1 25
M  V30 28 1 2 26
M  V30 29 1 8 27
M  V30 30 1 8 28
M  V30 31 1 9 29
M  V30 32 1 11 30
M  V30 33 1 12 31
M  V30 34 1 14 32
M  V30 35 1 14 33
M  V30 36 1 14 34
M  V30 37 1 15 35
M  V30 38 1 16 36
M  V30 39 1 19 37
M  V30 40 1 20 38
M  V30 41 1 21 39
M  V30 42 1 22 40
M  V30 END BOND
M  V30 END CTAB
M  END
>  <Dataset>  (377) 
ChEMBL_Kinases

>  <Ligand_Instance>  (377) 
nan

>  <PDB_ID>  (377) 
nan

>  <Standardized_SMILES>  (377) 
C=CC(=O)N1C(=O)CC(c2ccc(C)cc2)Sc2ccccc21

>  <Name>  (377) 
nan

>  <Pocket>  (377) 
nan

>  <ATP_Site>  (377) 
nan

>  <Peripheral>  (377) 
nan

>  <Num_H_Atoms_ProtBoundConf>  (377) 
nan

>  <Num_Resolved_Atoms>  (377) 
nan

>  <Num_Not_Resolved_Atoms>  (377) 
nan

$$$$
CHEMBL3775895
     RDKit          3D

  0  0  0  0  0  0  0  0  0  0999 V3000
M  V30 BEGIN CTAB
M  V30 COUNTS 49 53 0 0 0
M  V30 BEGIN ATOM
M  V30 1 C -1.255742 -6.831064 3.477570 0
M  V30 2 N -0.118956 -6.394599 2.696910 0
M  V30 3 C -0.082909 -5.151355 2.175127 0
M  V30 4 C 1.121890 -5.016248 1.479372 0
M  V30 5 C 1.535987 -3.813953 0.772499 0
M  V30 6 C 2.844659 -3.369555 0.595191 0
M  V30 7 C 3.106415 -2.211096 -0.096311 0
M  V30 8 C 2.111556 -1.424245 -0.651278 0
M  V30 9 C 2.502348 -0.209569 -1.369263 0
M  V30 10 C 2.640785 1.007030 -0.583450 0
M  V30 11 N 3.830287 1.552935 -0.204327 0
M  V30 12 N 3.640628 2.639250 0.493041 0
M  V30 13 C 2.323073 2.878509 0.618044 0
M  V30 14 C 1.625079 3.878370 1.248542 0
M  V30 15 C 0.243500 3.833769 1.189103 0
M  V30 16 C -0.418208 2.823927 0.521627 0
M  V30 17 C -1.876638 2.851169 0.508445 0
M  V30 18 C -2.653112 1.904657 -0.118149 0
M  V30 19 C -4.021501 2.021238 -0.070365 0
M  V30 20 N -4.886853 1.080787 -0.694955 0
M  V30 21 C -4.661826 3.054982 0.584248 0
M  V30 22 C -3.838714 3.989254 1.204233 0
M  V30 23 N -2.487877 3.864011 1.150297 0
M  V30 24 C 0.338660 1.848519 -0.091741 0
M  V30 25 C 1.698750 1.847739 -0.061639 0
M  V30 26 C 0.817988 -1.869674 -0.472094 0
M  V30 27 C 0.531480 -3.029020 0.218048 0
M  V30 28 C 1.760067 -6.233598 1.632046 0
M  V30 29 N 0.979170 -7.053855 2.379157 0
M  V30 30 H -1.586061 -6.009546 4.148835 0
M  V30 31 H -2.121777 -7.095142 2.838731 0
M  V30 32 H -0.977068 -7.683365 4.131289 0
M  V30 33 H -0.820392 -4.360202 2.247708 0
M  V30 34 H 3.618486 -4.001576 1.039183 0
M  V30 35 H 4.165336 -1.957289 -0.173428 0
M  V30 36 H 1.696596 -0.046673 -2.146609 0
M  V30 37 H 3.418715 -0.348507 -1.980595 0
M  V30 38 H 4.418826 3.212958 0.880856 0
M  V30 39 H 2.127241 4.688201 1.782573 0
M  V30 40 H -0.273730 4.625107 1.689570 0
M  V30 41 H -2.195524 1.098512 -0.630333 0
M  V30 42 H -4.864193 0.313947 0.012447 0
M  V30 43 H -5.480652 0.905841 -1.534224 0
M  V30 44 H -5.736546 3.188258 0.648880 0
M  V30 45 H -4.217106 4.842229 1.747842 0
M  V30 46 H -0.161698 1.073663 -0.605599 0
M  V30 47 H 0.013439 -1.288893 -0.888320 0
M  V30 48 H -0.517188 -3.326600 0.323100 0
M  V30 49 H 2.736212 -6.406687 1.183764 0
M  V30 END ATOM
M  V30 BEGIN BOND
M  V30 1 1 1 2
M  V30 2 1 2 3
M  V30 3 2 3 4
M  V30 4 1 4 5
M  V30 5 2 5 6
M  V30 6 1 6 7
M  V30 7 2 7 8
M  V30 8 1 8 9
M  V30 9 1 9 10
M  V30 10 2 10 11
M  V30 11 1 11 12
M  V30 12 1 12 13
M  V30 13 2 13 14
M  V30 14 1 14 15
M  V30 15 2 15 16
M  V30 16 1 16 17
M  V30 17 2 17 18
M  V30 18 1 18 19
M  V30 19 1 19 20
M  V30 20 2 19 21
M  V30 21 1 21 22
M  V30 22 2 22 23
M  V30 23 1 16 24
M  V30 24 2 24 25
M  V30 25 1 8 26
M  V30 26 2 26 27
M  V30 27 1 4 28
M  V30 28 2 28 29
M  V30 29 1 29 2
M  V30 30 1 27 5
M  V30 31 1 25 10
M  V30 32 1 25 13
M  V30 33 1 23 17
M  V30 34 1 1 30
M  V30 35 1 1 31
M  V30 36 1 1 32
M  V30 37 1 3 33
M  V30 38 1 6 34
M  V30 39 1 7 35
M  V30 40 1 9 36
M  V30 41 1 9 37
M  V30 42 1 12 38
M  V30 43 1 14 39
M  V30 44 1 15 40
M  V30 45 1 18 41
M  V30 46 1 20 42
M  V30 47 1 20 43
M  V30 48 1 21 44
M  V30 49 1 22 45
M  V30 50 1 24 46
M  V30 51 1 26 47
M  V30 52 1 27 48
M  V30 53 1 28 49
M  V30 END BOND
M  V30 END CTAB
M  END
>  <Dataset>  (378) 
ChEMBL_Kinases

>  <Ligand_Instance>  (378) 
nan

>  <PDB_ID>  (378) 
nan

>  <Standardized_SMILES>  (378) 
Cn1cc(-c2ccc(Cc3n[nH]c4ccc(-c5cc(N)ccn5)cc34)cc2)cn1

>  <Name>  (378) 
nan

>  <Pocket>  (378) 
nan

>  <ATP_Site>  (378) 
nan

>  <Peripheral>  (378) 
nan

>  <Num_H_Atoms_ProtBoundConf>  (378) 
nan

>  <Num_Resolved_Atoms>  (378) 
nan

>  <Num_Not_Resolved_Atoms>  (378) 
nan

$$$$
CHEMBL3775861
     RDKit          3D

  0  0  0  0  0  0  0  0  0  0999 V3000
M  V30 BEGIN CTAB
M  V30 COUNTS 70 75 0 0 0
M  V30 BEGIN ATOM
M  V30 1 C 3.873117 -0.105220 4.319365 0
M  V30 2 C 3.707354 -1.597648 4.536105 0
M  V30 3 C 2.539628 -1.748188 5.500521 0
M  V30 4 C 3.389915 -2.228839 3.236141 0
M  V30 5 N 4.197069 -2.658131 2.237233 0
M  V30 6 N 3.495916 -3.152112 1.244764 0
M  V30 7 C 2.155138 -3.102325 1.484527 0
M  V30 8 C 0.984143 -3.467269 0.817178 0
M  V30 9 N 1.248836 -4.029635 -0.445890 0
M  V30 10 C 1.452165 -4.598748 -1.726793 0
M  V30 11 C 1.056502 -3.629933 -2.825223 0
M  V30 12 C -0.340505 -3.625971 -2.907260 0
M  V30 13 C -0.954492 -2.784627 -3.852442 0
M  V30 14 C -0.148826 -2.002710 -4.657138 0
M  V30 15 C -0.598149 -1.051430 -5.664809 0
M  V30 16 C -1.939235 -0.740952 -5.964892 0
M  V30 17 C -2.473800 0.118343 -6.856902 0
M  V30 18 C -1.519217 0.802107 -7.589810 0
M  V30 19 C -0.185831 0.566211 -7.365231 0
M  V30 20 N 0.224079 -0.309433 -6.456501 0
M  V30 21 C 1.238139 -2.036739 -4.545871 0
M  V30 22 C 1.855562 -2.854251 -3.623406 0
M  V30 23 N -0.051997 -3.186143 1.543890 0
M  V30 24 C -0.229456 -2.660242 2.707200 0
M  V30 25 N -1.583438 -2.590622 3.098058 0
M  V30 26 C -2.264753 -1.847253 4.122555 0
M  V30 27 C -2.216397 -0.377757 3.802819 0
M  V30 28 C -1.433492 0.664148 4.231627 0
M  V30 29 C -1.605934 1.901764 3.649872 0
M  V30 30 C -2.506081 2.193677 2.660376 0
M  V30 31 C -2.667415 3.483571 2.026967 0
M  V30 32 C -1.969990 4.639520 2.251272 0
M  V30 33 C -2.145887 5.845601 1.600293 0
M  V30 34 C -3.106730 5.923150 0.622096 0
M  V30 35 C -3.804974 4.774382 0.393899 0
M  V30 36 N -3.580549 3.661154 1.060397 0
M  V30 37 C -3.309787 1.145845 2.215875 0
M  V30 38 C -3.149915 -0.099079 2.787236 0
M  V30 39 N 0.907763 -2.343042 3.258970 0
M  V30 40 C 2.113477 -2.514072 2.750952 0
M  V30 41 H 4.793102 0.254859 4.850772 0
M  V30 42 H 2.966578 0.458242 4.631843 0
M  V30 43 H 4.066028 0.062492 3.242936 0
M  V30 44 H 4.634936 -2.031113 4.958628 0
M  V30 45 H 2.845886 -1.342053 6.483816 0
M  V30 46 H 2.178636 -2.776150 5.579373 0
M  V30 47 H 1.704208 -1.097395 5.141769 0
M  V30 48 H 3.899251 -3.549045 0.360052 0
M  V30 49 H 0.198749 -4.060820 -0.697237 0
M  V30 50 H 0.957658 -5.556571 -1.859527 0
M  V30 51 H 2.570052 -4.821611 -1.865827 0
M  V30 52 H -1.039652 -4.197167 -2.328129 0
M  V30 53 H -2.020913 -2.697590 -3.991907 0
M  V30 54 H -2.631938 -1.318531 -5.326429 0
M  V30 55 H -3.548674 0.202685 -6.913261 0
M  V30 56 H -1.899259 1.518342 -8.326370 0
M  V30 57 H 0.567429 1.112980 -7.938007 0
M  V30 58 H 1.937530 -1.448616 -5.141490 0
M  V30 59 H 2.919361 -2.952149 -3.452408 0
M  V30 60 H -2.343969 -3.170002 2.621321 0
M  V30 61 H -3.298334 -2.129141 4.323065 0
M  V30 62 H -1.713528 -1.915608 5.115054 0
M  V30 63 H -0.747641 0.356434 4.989215 0
M  V30 64 H -0.962830 2.660775 4.045614 0
M  V30 65 H -1.198404 4.603844 3.014585 0
M  V30 66 H -1.533333 6.692269 1.855910 0
M  V30 67 H -3.229869 6.864743 0.122928 0
M  V30 68 H -4.579745 4.764823 -0.358767 0
M  V30 69 H -4.025362 1.338299 1.437265 0
M  V30 70 H -3.836135 -0.838654 2.365699 0
M  V30 END ATOM
M  V30 BEGIN BOND
M  V30 1 1 1 2
M  V30 2 1 2 3
M  V30 3 1 2 4
M  V30 4 2 4 5
M  V30 5 1 5 6
M  V30 6 1 6 7
M  V30 7 2 7 8
M  V30 8 1 8 9
M  V30 9 1 9 10
M  V30 10 1 10 11
M  V30 11 2 11 12
M  V30 12 1 12 13
M  V30 13 2 13 14
M  V30 14 1 14 15
M  V30 15 2 15 16
M  V30 16 1 16 17
M  V30 17 2 17 18
M  V30 18 1 18 19
M  V30 19 2 19 20
M  V30 20 1 14 21
M  V30 21 2 21 22
M  V30 22 1 8 23
M  V30 23 2 23 24
M  V30 24 1 24 25
M  V30 25 1 25 26
M  V30 26 1 26 27
M  V30 27 2 27 28
M  V30 28 1 28 29
M  V30 29 2 29 30
M  V30 30 1 30 31
M  V30 31 2 31 32
M  V30 32 1 32 33
M  V30 33 2 33 34
M  V30 34 1 34 35
M  V30 35 2 35 36
M  V30 36 1 30 37
M  V30 37 2 37 38
M  V30 38 1 24 39
M  V30 39 2 39 40
M  V30 40 1 40 4
M  V30 41 1 40 7
M  V30 42 1 22 11
M  V30 43 1 38 27
M  V30 44 1 20 15
M  V30 45 1 36 31
M  V30 46 1 1 41
M  V30 47 1 1 42
M  V30 48 1 1 43
M  V30 49 1 2 44
M  V30 50 1 3 45
M  V30 51 1 3 46
M  V30 52 1 3 47
M  V30 53 1 6 48
M  V30 54 1 9 49
M  V30 55 1 10 50
M  V30 56 1 10 51
M  V30 57 1 12 52
M  V30 58 1 13 53
M  V30 59 1 16 54
M  V30 60 1 17 55
M  V30 61 1 18 56
M  V30 62 1 19 57
M  V30 63 1 21 58
M  V30 64 1 22 59
M  V30 65 1 25 60
M  V30 66 1 26 61
M  V30 67 1 26 62
M  V30 68 1 28 63
M  V30 69 1 29 64
M  V30 70 1 32 65
M  V30 71 1 33 66
M  V30 72 1 34 67
M  V30 73 1 35 68
M  V30 74 1 37 69
M  V30 75 1 38 70
M  V30 END BOND
M  V30 END CTAB
M  END
>  <Dataset>  (379) 
ChEMBL_Kinases

>  <Ligand_Instance>  (379) 
nan

>  <PDB_ID>  (379) 
nan

>  <Standardized_SMILES>  (379) 
CC(C)c1n[nH]c2c(NCc3ccc(-c4ccccn4)cc3)nc(NCc3ccc(-c4ccccn4)cc3)nc12

>  <Name>  (379) 
nan

>  <Pocket>  (379) 
nan

>  <ATP_Site>  (379) 
nan

>  <Peripheral>  (379) 
nan

>  <Num_H_Atoms_ProtBoundConf>  (379) 
nan

>  <Num_Resolved_Atoms>  (379) 
nan

>  <Num_Not_Resolved_Atoms>  (379) 
nan

$$$$
CHEMBL3775858
     RDKit          3D

  0  0  0  0  0  0  0  0  0  0999 V3000
M  V30 BEGIN CTAB
M  V30 COUNTS 29 31 0 0 0
M  V30 BEGIN ATOM
M  V30 1 O -1.956071 -2.447186 2.549824 0
M  V30 2 C -0.617474 -2.696286 2.464040 0
M  V30 3 C 0.065186 -3.441874 3.441880 0
M  V30 4 C 1.439966 -3.676227 3.320299 0
M  V30 5 C 2.168718 -3.187637 2.244598 0
M  V30 6 Cl 3.885355 -3.547911 2.203392 0
M  V30 7 C 1.547213 -2.440108 1.239885 0
M  V30 8 C 2.292501 -1.970897 0.190144 0
M  V30 9 C 1.582985 -1.235371 -0.758810 0
M  V30 10 C 0.230036 -1.037572 -0.584459 0
M  V30 11 N -0.580408 -0.281000 -1.511357 0
M  V30 12 C -0.552257 0.999088 -0.858843 0
M  V30 13 C 0.311616 2.057708 -1.078133 0
M  V30 14 C 0.182757 3.214446 -0.342881 0
M  V30 15 C -0.795552 3.393484 0.642664 0
M  V30 16 C -1.633159 2.303971 0.821589 0
M  V30 17 N -1.481678 1.199720 0.092879 0
M  V30 18 N -0.442254 -1.540105 0.491615 0
M  V30 19 C 0.206423 -2.270762 1.455052 0
M  V30 20 H -2.635540 -2.597111 1.840645 0
M  V30 21 H -0.506383 -3.819741 4.277379 0
M  V30 22 H 1.933509 -4.261819 4.109209 0
M  V30 23 H 3.343177 -2.163452 0.118495 0
M  V30 24 H 2.089067 -0.819146 -1.630972 0
M  V30 25 H -1.101370 -0.441889 -2.415455 0
M  V30 26 H 1.049222 1.882693 -1.841448 0
M  V30 27 H 0.919258 3.991387 -0.598449 0
M  V30 28 H -0.838359 4.326395 1.181030 0
M  V30 29 H -2.383590 2.454804 1.584884 0
M  V30 END ATOM
M  V30 BEGIN BOND
M  V30 1 1 1 2
M  V30 2 2 2 3
M  V30 3 1 3 4
M  V30 4 2 4 5
M  V30 5 1 5 6
M  V30 6 1 5 7
M  V30 7 2 7 8
M  V30 8 1 8 9
M  V30 9 2 9 10
M  V30 10 1 10 11
M  V30 11 1 11 12
M  V30 12 2 12 13
M  V30 13 1 13 14
M  V30 14 2 14 15
M  V30 15 1 15 16
M  V30 16 2 16 17
M  V30 17 1 10 18
M  V30 18 2 18 19
M  V30 19 1 19 2
M  V30 20 1 19 7
M  V30 21 1 17 12
M  V30 22 1 1 20
M  V30 23 1 3 21
M  V30 24 1 4 22
M  V30 25 1 8 23
M  V30 26 1 9 24
M  V30 27 1 11 25
M  V30 28 1 13 26
M  V30 29 1 14 27
M  V30 30 1 15 28
M  V30 31 1 16 29
M  V30 END BOND
M  V30 END CTAB
M  END
>  <Dataset>  (380) 
ChEMBL_Kinases

>  <Ligand_Instance>  (380) 
nan

>  <PDB_ID>  (380) 
nan

>  <Standardized_SMILES>  (380) 
Oc1ccc(Cl)c2ccc(Nc3ccccn3)nc12

>  <Name>  (380) 
nan

>  <Pocket>  (380) 
nan

>  <ATP_Site>  (380) 
nan

>  <Peripheral>  (380) 
nan

>  <Num_H_Atoms_ProtBoundConf>  (380) 
nan

>  <Num_Resolved_Atoms>  (380) 
nan

>  <Num_Not_Resolved_Atoms>  (380) 
nan

$$$$
CHEMBL5083789
     RDKit          3D

  0  0  0  0  0  0  0  0  0  0999 V3000
M  V30 BEGIN CTAB
M  V30 COUNTS 62 66 0 0 0
M  V30 BEGIN ATOM
M  V30 1 C 1.189675 -3.068953 4.627661 0
M  V30 2 C 1.049964 -1.665853 4.158308 0
M  V30 3 C 1.017292 -0.593351 5.057632 0
M  V30 4 C 0.888046 0.715581 4.637406 0
M  V30 5 C 0.788520 0.954323 3.271480 0
M  V30 6 N 0.652262 2.274575 2.760702 0
M  V30 7 C 1.714062 3.135921 2.394237 0
M  V30 8 O 2.893513 2.726009 2.519862 0
M  V30 9 C 1.522474 4.482065 1.875043 0
M  V30 10 C 2.634421 5.231076 1.545623 0
M  V30 11 C 2.361711 6.493737 1.062031 0
M  V30 12 N 1.122818 7.002241 0.905082 0
M  V30 13 C 0.035853 6.247300 1.236018 0
M  V30 14 O -1.100835 6.982075 0.987382 0
M  V30 15 C -2.367055 6.439136 1.242118 0
M  V30 16 F -3.151316 6.385144 0.102749 0
M  V30 17 F -3.020629 7.195241 2.228303 0
M  V30 18 C 0.254332 4.992689 1.718247 0
M  V30 19 C 0.821784 -0.116946 2.384457 0
M  V30 20 C 0.952576 -1.440508 2.810378 0
M  V30 21 C 0.974340 -2.480690 1.783989 0
M  V30 22 C 1.836351 -3.557287 1.714090 0
M  V30 23 C 1.741930 -4.467224 0.679905 0
M  V30 24 C 0.788964 -4.330266 -0.310269 0
M  V30 25 C -0.079010 -3.239177 -0.232801 0
M  V30 26 C 0.004132 -2.321308 0.796102 0
M  V30 27 O -1.081530 -2.974147 -1.152166 0
M  V30 28 C -1.599065 -3.580345 -2.290811 0
M  V30 29 C -2.190342 -2.444944 -3.138132 0
M  V30 30 C -2.999968 -2.962451 -4.286346 0
M  V30 31 O -3.966309 -3.883226 -3.881247 0
M  V30 32 C -3.415455 -4.971530 -3.245820 0
M  V30 33 C -2.644970 -4.622766 -1.985443 0
M  V30 34 C -0.560151 -4.235228 -3.180542 0
M  V30 35 C 0.033145 -5.421238 -2.511984 0
M  V30 36 O -0.112257 -6.602379 -2.943549 0
M  V30 37 N 0.832211 -5.368576 -1.311494 0
M  V30 38 H 0.609958 -3.130666 5.595273 0
M  V30 39 H 2.218358 -3.360889 4.872997 0
M  V30 40 H 0.656905 -3.775797 3.958514 0
M  V30 41 H 1.095863 -0.787810 6.126399 0
M  V30 42 H 0.861503 1.554942 5.321724 0
M  V30 43 H -0.333280 2.587085 2.667301 0
M  V30 44 H 3.632176 4.836741 1.666097 0
M  V30 45 H 3.273663 7.061607 0.809929 0
M  V30 46 H -2.346914 5.411006 1.641636 0
M  V30 47 H -0.631425 4.463040 1.954709 0
M  V30 48 H 0.741234 0.112353 1.330799 0
M  V30 49 H 2.557384 -3.625844 2.499109 0
M  V30 50 H 2.420814 -5.305208 0.635166 0
M  V30 51 H -0.708355 -1.485573 0.799088 0
M  V30 52 H -2.717305 -1.714952 -2.491679 0
M  V30 53 H -1.282079 -1.935055 -3.572696 0
M  V30 54 H -2.361167 -3.300098 -5.101981 0
M  V30 55 H -3.589339 -2.084347 -4.668264 0
M  V30 56 H -4.266692 -5.642524 -2.972315 0
M  V30 57 H -2.755818 -5.597953 -3.885932 0
M  V30 58 H -2.123039 -5.553516 -1.671091 0
M  V30 59 H -3.338280 -4.279958 -1.184964 0
M  V30 60 H -1.026375 -4.505661 -4.138947 0
M  V30 61 H 0.275268 -3.536267 -3.417036 0
M  V30 62 H 1.514275 -6.135618 -1.118331 0
M  V30 END ATOM
M  V30 BEGIN BOND
M  V30 1 1 1 2
M  V30 2 2 2 3
M  V30 3 1 3 4
M  V30 4 2 4 5
M  V30 5 1 5 6
M  V30 6 1 6 7
M  V30 7 2 7 8
M  V30 8 1 7 9
M  V30 9 2 9 10
M  V30 10 1 10 11
M  V30 11 2 11 12
M  V30 12 1 12 13
M  V30 13 1 13 14
M  V30 14 1 14 15
M  V30 15 1 15 16
M  V30 16 1 15 17
M  V30 17 2 13 18
M  V30 18 1 5 19
M  V30 19 2 19 20
M  V30 20 1 20 21
M  V30 21 2 21 22
M  V30 22 1 22 23
M  V30 23 2 23 24
M  V30 24 1 24 25
M  V30 25 2 25 26
M  V30 26 1 25 27
M  V30 27 1 27 28
M  V30 28 1 28 29
M  V30 29 1 29 30
M  V30 30 1 30 31
M  V30 31 1 31 32
M  V30 32 1 32 33
M  V30 33 1 28 34
M  V30 34 1 34 35
M  V30 35 2 35 36
M  V30 36 1 35 37
M  V30 37 1 20 2
M  V30 38 1 26 21
M  V30 39 1 33 28
M  V30 40 1 18 9
M  V30 41 1 37 24
M  V30 42 1 1 38
M  V30 43 1 1 39
M  V30 44 1 1 40
M  V30 45 1 3 41
M  V30 46 1 4 42
M  V30 47 1 6 43
M  V30 48 1 10 44
M  V30 49 1 11 45
M  V30 50 1 15 46
M  V30 51 1 18 47
M  V30 52 1 19 48
M  V30 53 1 22 49
M  V30 54 1 23 50
M  V30 55 1 26 51
M  V30 56 1 29 52
M  V30 57 1 29 53
M  V30 58 1 30 54
M  V30 59 1 30 55
M  V30 60 1 32 56
M  V30 61 1 32 57
M  V30 62 1 33 58
M  V30 63 1 33 59
M  V30 64 1 34 60
M  V30 65 1 34 61
M  V30 66 1 37 62
M  V30 END BOND
M  V30 END CTAB
M  END
>  <Dataset>  (381) 
ChEMBL_Kinases

>  <Ligand_Instance>  (381) 
nan

>  <PDB_ID>  (381) 
nan

>  <Standardized_SMILES>  (381) 
Cc1ccc(NC(=O)c2ccnc(OC(F)F)c2)cc1-c1ccc2c(c1)OC1(CCOCC1)CC(=O)N2

>  <Name>  (381) 
nan

>  <Pocket>  (381) 
nan

>  <ATP_Site>  (381) 
nan

>  <Peripheral>  (381) 
nan

>  <Num_H_Atoms_ProtBoundConf>  (381) 
nan

>  <Num_Resolved_Atoms>  (381) 
nan

>  <Num_Not_Resolved_Atoms>  (381) 
nan

$$$$
CHEMBL3774509
     RDKit          3D

  0  0  0  0  0  0  0  0  0  0999 V3000
M  V30 BEGIN CTAB
M  V30 COUNTS 50 54 0 0 0
M  V30 BEGIN ATOM
M  V30 1 C -1.587358 -6.642294 1.975203 0
M  V30 2 N -0.375966 -5.972375 1.534881 0
M  V30 3 C -0.271669 -4.799937 0.885792 0
M  V30 4 C 1.064798 -4.495605 0.638239 0
M  V30 5 C 1.510130 -3.271111 -0.060089 0
M  V30 6 C 2.732773 -2.664405 0.235907 0
M  V30 7 C 3.112137 -1.513843 -0.444311 0
M  V30 8 C 2.259132 -0.978968 -1.419636 0
M  V30 9 C 2.553222 0.201785 -2.191939 0
M  V30 10 C 2.144213 1.495643 -1.676301 0
M  V30 11 N 2.459571 2.594621 -2.417951 0
M  V30 12 N 2.011702 3.664752 -1.792578 0
M  V30 13 C 1.389478 3.377740 -0.635328 0
M  V30 14 C 0.761142 4.072952 0.374022 0
M  V30 15 C 0.226882 3.356488 1.445400 0
M  V30 16 C 0.337190 1.973704 1.473823 0
M  V30 17 S -0.338070 1.121770 2.821741 0
M  V30 18 O 0.535701 -0.062588 3.103225 0
M  V30 19 O -0.295113 1.969246 4.081304 0
M  V30 20 N -1.978021 0.659460 2.578112 0
M  V30 21 C -2.839290 1.795277 2.389395 0
M  V30 22 C -4.282995 1.714286 2.741782 0
M  V30 23 C -3.893916 1.655559 1.297598 0
M  V30 24 C 0.968527 1.288048 0.457303 0
M  V30 25 C 1.493684 2.002901 -0.597585 0
M  V30 26 C 1.031960 -1.586185 -1.718306 0
M  V30 27 C 0.659424 -2.744140 -1.027692 0
M  V30 28 C 1.758824 -5.570288 1.185576 0
M  V30 29 N 0.848060 -6.425214 1.709311 0
M  V30 30 H -1.732996 -6.522774 3.068314 0
M  V30 31 H -2.461907 -6.120945 1.492025 0
M  V30 32 H -1.646992 -7.702691 1.658670 0
M  V30 33 H -1.141623 -4.239507 0.631039 0
M  V30 34 H 3.376044 -3.091588 0.990214 0
M  V30 35 H 4.042719 -1.010080 -0.251939 0
M  V30 36 H 2.187624 0.122861 -3.262619 0
M  V30 37 H 3.676780 0.239175 -2.334867 0
M  V30 38 H 2.131313 4.653834 -2.167435 0
M  V30 39 H 0.738087 5.146822 0.240061 0
M  V30 40 H -0.246993 3.957665 2.194310 0
M  V30 41 H -2.000819 0.070286 1.717941 0
M  V30 42 H -2.373806 2.800999 2.419125 0
M  V30 43 H -4.636701 0.782002 3.257618 0
M  V30 44 H -4.739525 2.619707 3.186297 0
M  V30 45 H -4.153252 2.534922 0.679254 0
M  V30 46 H -4.036676 0.683307 0.793985 0
M  V30 47 H 1.034801 0.213343 0.514107 0
M  V30 48 H 0.351621 -1.201586 -2.462925 0
M  V30 49 H -0.301009 -3.208771 -1.269677 0
M  V30 50 H 2.838678 -5.585700 1.128871 0
M  V30 END ATOM
M  V30 BEGIN BOND
M  V30 1 1 1 2
M  V30 2 1 2 3
M  V30 3 2 3 4
M  V30 4 1 4 5
M  V30 5 2 5 6
M  V30 6 1 6 7
M  V30 7 2 7 8
M  V30 8 1 8 9
M  V30 9 1 9 10
M  V30 10 2 10 11
M  V30 11 1 11 12
M  V30 12 1 12 13
M  V30 13 2 13 14
M  V30 14 1 14 15
M  V30 15 2 15 16
M  V30 16 1 16 17
M  V30 17 2 17 18
M  V30 18 2 17 19
M  V30 19 1 17 20
M  V30 20 1 20 21
M  V30 21 1 21 22
M  V30 22 1 22 23
M  V30 23 1 16 24
M  V30 24 2 24 25
M  V30 25 1 8 26
M  V30 26 2 26 27
M  V30 27 1 4 28
M  V30 28 2 28 29
M  V30 29 1 29 2
M  V30 30 1 27 5
M  V30 31 1 25 10
M  V30 32 1 25 13
M  V30 33 1 23 21
M  V30 34 1 1 30
M  V30 35 1 1 31
M  V30 36 1 1 32
M  V30 37 1 3 33
M  V30 38 1 6 34
M  V30 39 1 7 35
M  V30 40 1 9 36
M  V30 41 1 9 37
M  V30 42 1 12 38
M  V30 43 1 14 39
M  V30 44 1 15 40
M  V30 45 1 20 41
M  V30 46 1 21 42
M  V30 47 1 22 43
M  V30 48 1 22 44
M  V30 49 1 23 45
M  V30 50 1 23 46
M  V30 51 1 24 47
M  V30 52 1 26 48
M  V30 53 1 27 49
M  V30 54 1 28 50
M  V30 END BOND
M  V30 END CTAB
M  END
>  <Dataset>  (382) 
ChEMBL_Kinases

>  <Ligand_Instance>  (382) 
nan

>  <PDB_ID>  (382) 
nan

>  <Standardized_SMILES>  (382) 
Cn1cc(-c2ccc(Cc3n[nH]c4ccc(S(=O)(=O)NC5CC5)cc34)cc2)cn1

>  <Name>  (382) 
nan

>  <Pocket>  (382) 
nan

>  <ATP_Site>  (382) 
nan

>  <Peripheral>  (382) 
nan

>  <Num_H_Atoms_ProtBoundConf>  (382) 
nan

>  <Num_Resolved_Atoms>  (382) 
nan

>  <Num_Not_Resolved_Atoms>  (382) 
nan

$$$$
CHEMBL5083859
     RDKit          3D

  0  0  0  0  0  0  0  0  0  0999 V3000
M  V30 BEGIN CTAB
M  V30 COUNTS 52 56 0 0 0
M  V30 BEGIN ATOM
M  V30 1 C 3.728273 -6.310442 0.806820 0
M  V30 2 C 4.026258 -4.980077 1.406542 0
M  V30 3 N 5.139420 -4.638626 2.081381 0
M  V30 4 N 5.064429 -3.371635 2.472257 0
M  V30 5 C 3.902425 -2.822288 2.074188 0
M  V30 6 N 3.334701 -1.591237 2.205320 0
M  V30 7 C 2.117834 -1.348975 1.675812 0
M  V30 8 C 1.447015 -0.049079 1.778450 0
M  V30 9 C 2.070488 1.001310 2.447161 0
M  V30 10 C 1.413603 2.234169 2.534153 0
M  V30 11 C 0.164343 2.440166 1.976023 0
M  V30 12 N -0.344057 3.754830 2.165235 0
M  V30 13 S -1.081338 4.627216 0.868137 0
M  V30 14 O -0.068239 4.690131 -0.245293 0
M  V30 15 O -1.444435 6.000645 1.346985 0
M  V30 16 C -2.503917 3.798995 0.276859 0
M  V30 17 C -2.679408 3.340095 -1.025541 0
M  V30 18 C -3.843703 2.696989 -1.390198 0
M  V30 19 Cl -4.015859 2.134375 -3.055328 0
M  V30 20 C -4.865851 2.485797 -0.492436 0
M  V30 21 C -4.699411 2.941087 0.811916 0
M  V30 22 C -3.531889 3.585315 1.175313 0
M  V30 23 F -3.436259 4.003993 2.466116 0
M  V30 24 C -0.434580 1.389091 1.319420 0
M  V30 25 C 0.188088 0.165634 1.218411 0
M  V30 26 N 1.476974 -2.335097 1.020236 0
M  V30 27 C 2.005886 -3.572278 0.867527 0
M  V30 28 O 1.299853 -4.572710 0.174365 0
M  V30 29 C 0.054164 -4.244671 -0.340589 0
M  V30 30 C 0.088204 -3.740873 -1.642286 0
M  V30 31 C -1.102986 -3.380658 -2.254111 0
M  V30 32 C -2.309636 -3.526420 -1.563520 0
M  V30 33 O -3.460478 -3.158405 -2.205954 0
M  V30 34 N -2.289033 -4.017185 -0.309602 0
M  V30 35 C -1.150877 -4.379288 0.320980 0
M  V30 36 C 3.249555 -3.836437 1.403097 0
M  V30 37 H 4.626591 -6.746628 0.316824 0
M  V30 38 H 2.946995 -6.224896 0.023091 0
M  V30 39 H 3.298223 -7.011920 1.579832 0
M  V30 40 H 5.757893 -2.789580 3.017587 0
M  V30 41 H 3.051431 0.850496 2.889118 0
M  V30 42 H 1.960130 2.985036 3.062857 0
M  V30 43 H -0.262630 4.197909 3.128253 0
M  V30 44 H -1.849772 3.528494 -1.695693 0
M  V30 45 H -5.790025 1.984447 -0.750445 0
M  V30 46 H -5.489878 2.787565 1.539979 0
M  V30 47 H -1.396917 1.600340 0.907320 0
M  V30 48 H -0.312625 -0.644493 0.692683 0
M  V30 49 H 1.003663 -3.617464 -2.199123 0
M  V30 50 H -1.122667 -2.979377 -3.278648 0
M  V30 51 H -3.457652 -2.454495 -2.944040 0
M  V30 52 H -1.107978 -4.775434 1.326248 0
M  V30 END ATOM
M  V30 BEGIN BOND
M  V30 1 1 1 2
M  V30 2 2 2 3
M  V30 3 1 3 4
M  V30 4 1 4 5
M  V30 5 2 5 6
M  V30 6 1 6 7
M  V30 7 1 7 8
M  V30 8 2 8 9
M  V30 9 1 9 10
M  V30 10 2 10 11
M  V30 11 1 11 12
M  V30 12 1 12 13
M  V30 13 2 13 14
M  V30 14 2 13 15
M  V30 15 1 13 16
M  V30 16 2 16 17
M  V30 17 1 17 18
M  V30 18 1 18 19
M  V30 19 2 18 20
M  V30 20 1 20 21
M  V30 21 2 21 22
M  V30 22 1 22 23
M  V30 23 1 11 24
M  V30 24 2 24 25
M  V30 25 2 7 26
M  V30 26 1 26 27
M  V30 27 1 27 28
M  V30 28 1 28 29
M  V30 29 2 29 30
M  V30 30 1 30 31
M  V30 31 2 31 32
M  V30 32 1 32 33
M  V30 33 1 32 34
M  V30 34 2 34 35
M  V30 35 2 27 36
M  V30 36 1 36 2
M  V30 37 1 36 5
M  V30 38 1 25 8
M  V30 39 1 35 29
M  V30 40 1 22 16
M  V30 41 1 1 37
M  V30 42 1 1 38
M  V30 43 1 1 39
M  V30 44 1 4 40
M  V30 45 1 9 41
M  V30 46 1 10 42
M  V30 47 1 12 43
M  V30 48 1 17 44
M  V30 49 1 20 45
M  V30 50 1 21 46
M  V30 51 1 24 47
M  V30 52 1 25 48
M  V30 53 1 30 49
M  V30 54 1 31 50
M  V30 55 1 33 51
M  V30 56 1 35 52
M  V30 END BOND
M  V30 END CTAB
M  END
>  <Dataset>  (383) 
ChEMBL_Kinases

>  <Ligand_Instance>  (383) 
nan

>  <PDB_ID>  (383) 
nan

>  <Standardized_SMILES>  (383) 
Cc1n[nH]c2nc(-c3ccc(NS(=O)(=O)c4cc(Cl)ccc4F)cc3)nc(Oc3ccc(O)nc3)c12

>  <Name>  (383) 
nan

>  <Pocket>  (383) 
nan

>  <ATP_Site>  (383) 
nan

>  <Peripheral>  (383) 
nan

>  <Num_H_Atoms_ProtBoundConf>  (383) 
nan

>  <Num_Resolved_Atoms>  (383) 
nan

>  <Num_Not_Resolved_Atoms>  (383) 
nan

$$$$
CHEMBL3775775
     RDKit          3D

  0  0  0  0  0  0  0  0  0  0999 V3000
M  V30 BEGIN CTAB
M  V30 COUNTS 55 58 0 0 0
M  V30 BEGIN ATOM
M  V30 1 C 3.432355 -1.380386 6.439603 0
M  V30 2 N 3.616951 -0.746536 5.149724 0
M  V30 3 C 4.775004 -0.867961 4.338322 0
M  V30 4 O 5.705564 -1.584157 4.784116 0
M  V30 5 C 4.943775 -0.222769 3.044109 0
M  V30 6 C 6.168640 -0.444778 2.408329 0
M  V30 7 C 6.367977 0.162379 1.163199 0
M  V30 8 C 5.385426 0.949151 0.592662 0
M  V30 9 N 5.276772 1.656139 -0.564537 0
M  V30 10 N 4.090552 2.256779 -0.630981 0
M  V30 11 C 3.354636 1.979085 0.475730 0
M  V30 12 C 1.978124 2.474453 0.735413 0
M  V30 13 C 0.940611 1.443229 0.481668 0
M  V30 14 C 0.379715 0.512584 1.324475 0
M  V30 15 C -0.582462 -0.359975 0.864766 0
M  V30 16 C -1.034182 -0.354509 -0.441279 0
M  V30 17 C -2.049199 -1.288736 -0.914908 0
M  V30 18 C -2.187778 -2.583613 -0.420595 0
M  V30 19 N -3.227718 -3.163808 -1.081212 0
M  V30 20 N -3.752166 -2.319400 -1.957839 0
M  V30 21 C -4.886443 -2.577981 -2.859227 0
M  V30 22 C -6.171172 -2.188642 -2.116730 0
M  V30 23 C -7.374712 -2.419940 -2.971763 0
M  V30 24 C -6.248514 -3.091778 -0.886133 0
M  V30 25 O -6.049183 -0.883776 -1.649751 0
M  V30 26 C -3.035566 -1.169225 -1.861483 0
M  V30 27 C -0.479652 0.576796 -1.302437 0
M  V30 28 C 0.490078 1.450652 -0.825911 0
M  V30 29 C 4.179104 1.165338 1.222645 0
M  V30 30 C 3.988455 0.568472 2.442567 0
M  V30 31 H 3.977159 -2.329811 6.506415 0
M  V30 32 H 2.346951 -1.599582 6.611675 0
M  V30 33 H 3.755361 -0.738046 7.285467 0
M  V30 34 H 2.825579 -0.159416 4.810405 0
M  V30 35 H 6.965250 -1.061424 2.832271 0
M  V30 36 H 7.311736 0.019542 0.622625 0
M  V30 37 H 6.058233 1.686834 -1.273778 0
M  V30 38 H 1.788989 3.405328 0.178067 0
M  V30 39 H 1.857452 2.763169 1.816587 0
M  V30 40 H 0.772116 0.560203 2.329295 0
M  V30 41 H -0.981359 -1.069926 1.588835 0
M  V30 42 H -1.567412 -3.034718 0.354680 0
M  V30 43 H -4.816723 -1.901163 -3.730773 0
M  V30 44 H -4.941238 -3.616308 -3.191398 0
M  V30 45 H -7.432091 -3.534236 -3.131832 0
M  V30 46 H -8.281317 -2.190806 -2.371930 0
M  V30 47 H -7.292511 -1.894082 -3.921852 0
M  V30 48 H -5.877153 -4.087117 -1.240743 0
M  V30 49 H -7.304555 -3.232700 -0.647886 0
M  V30 50 H -5.665585 -2.708352 -0.048632 0
M  V30 51 H -5.431289 -0.926779 -0.854975 0
M  V30 52 H -3.194843 -0.266947 -2.437267 0
M  V30 53 H -0.832102 0.583207 -2.330213 0
M  V30 54 H 0.847695 2.137505 -1.608974 0
M  V30 55 H 3.061745 0.707601 2.978634 0
M  V30 END ATOM
M  V30 BEGIN BOND
M  V30 1 1 1 2
M  V30 2 1 2 3
M  V30 3 2 3 4
M  V30 4 1 3 5
M  V30 5 2 5 6
M  V30 6 1 6 7
M  V30 7 2 7 8
M  V30 8 1 8 9
M  V30 9 1 9 10
M  V30 10 2 10 11
M  V30 11 1 11 12
M  V30 12 1 12 13
M  V30 13 2 13 14
M  V30 14 1 14 15
M  V30 15 2 15 16
M  V30 16 1 16 17
M  V30 17 1 17 18
M  V30 18 2 18 19
M  V30 19 1 19 20
M  V30 20 1 20 21
M  V30 21 1 21 22
M  V30 22 1 22 23
M  V30 23 1 22 24
M  V30 24 1 22 25
M  V30 25 1 20 26
M  V30 26 1 16 27
M  V30 27 2 27 28
M  V30 28 1 11 29
M  V30 29 2 29 30
M  V30 30 1 30 5
M  V30 31 1 29 8
M  V30 32 1 28 13
M  V30 33 2 26 17
M  V30 34 1 1 31
M  V30 35 1 1 32
M  V30 36 1 1 33
M  V30 37 1 2 34
M  V30 38 1 6 35
M  V30 39 1 7 36
M  V30 40 1 9 37
M  V30 41 1 12 38
M  V30 42 1 12 39
M  V30 43 1 14 40
M  V30 44 1 15 41
M  V30 45 1 18 42
M  V30 46 1 21 43
M  V30 47 1 21 44
M  V30 48 1 23 45
M  V30 49 1 23 46
M  V30 50 1 23 47
M  V30 51 1 24 48
M  V30 52 1 24 49
M  V30 53 1 24 50
M  V30 54 1 25 51
M  V30 55 1 26 52
M  V30 56 1 27 53
M  V30 57 1 28 54
M  V30 58 1 30 55
M  V30 END BOND
M  V30 END CTAB
M  END
>  <Dataset>  (384) 
ChEMBL_Kinases

>  <Ligand_Instance>  (384) 
nan

>  <PDB_ID>  (384) 
nan

>  <Standardized_SMILES>  (384) 
CNC(=O)c1ccc2[nH]nc(Cc3ccc(-c4cnn(CC(C)(C)O)c4)cc3)c2c1

>  <Name>  (384) 
nan

>  <Pocket>  (384) 
nan

>  <ATP_Site>  (384) 
nan

>  <Peripheral>  (384) 
nan

>  <Num_H_Atoms_ProtBoundConf>  (384) 
nan

>  <Num_Resolved_Atoms>  (384) 
nan

>  <Num_Not_Resolved_Atoms>  (384) 
nan

$$$$
CHEMBL3775773
     RDKit          3D

  0  0  0  0  0  0  0  0  0  0999 V3000
M  V30 BEGIN CTAB
M  V30 COUNTS 52 56 0 0 0
M  V30 BEGIN ATOM
M  V30 1 C -0.820543 -2.984904 7.607968 0
M  V30 2 N -0.172239 -3.069530 6.303967 0
M  V30 3 C 0.364012 -2.064192 5.596828 0
M  V30 4 C 0.893856 -2.538956 4.393817 0
M  V30 5 C 1.574969 -1.859418 3.297444 0
M  V30 6 C 1.396170 -2.391519 2.027012 0
M  V30 7 C 2.045320 -1.756113 0.968393 0
M  V30 8 C 2.849673 -0.642689 1.081977 0
M  V30 9 C 3.498235 -0.013080 -0.066332 0
M  V30 10 C 2.841693 1.141065 -0.653670 0
M  V30 11 N 3.242093 2.414308 -0.490314 0
M  V30 12 N 2.459692 3.227820 -1.136322 0
M  V30 13 C 1.523021 2.500867 -1.740570 0
M  V30 14 C 0.470144 2.914580 -2.538020 0
M  V30 15 C -0.398008 1.969791 -3.067536 0
M  V30 16 C -0.173527 0.638799 -2.774320 0
M  V30 17 C -1.018419 -0.450033 -3.268115 0
M  V30 18 O -0.671281 -1.383128 -4.072178 0
M  V30 19 N -2.372040 -0.455724 -2.790313 0
M  V30 20 C -3.124535 0.424325 -1.883184 0
M  V30 21 C -3.753743 -0.610536 -0.945551 0
M  V30 22 C -4.127377 -1.771276 -1.843969 0
M  V30 23 F -3.783837 -2.994144 -1.331013 0
M  V30 24 F -5.490156 -1.802265 -2.066698 0
M  V30 25 C -3.416853 -1.436449 -3.126075 0
M  V30 26 C 0.864482 0.177893 -1.983427 0
M  V30 27 C 1.722344 1.143273 -1.462518 0
M  V30 28 C 3.008358 -0.135983 2.363131 0
M  V30 29 C 2.375307 -0.744426 3.445022 0
M  V30 30 C 0.632056 -3.916219 4.434181 0
M  V30 31 N -0.007963 -4.190658 5.596192 0
M  V30 32 H -1.565004 -2.153094 7.520000 0
M  V30 33 H -1.256896 -3.952600 7.885727 0
M  V30 34 H -0.061375 -2.623118 8.330334 0
M  V30 35 H 0.412806 -1.004414 5.864224 0
M  V30 36 H 0.774718 -3.268823 1.863313 0
M  V30 37 H 1.868433 -2.222920 0.010713 0
M  V30 38 H 4.568213 0.228575 0.117156 0
M  V30 39 H 3.547616 -0.805628 -0.871972 0
M  V30 40 H 2.598644 4.276610 -1.140087 0
M  V30 41 H 0.244359 3.933598 -2.800917 0
M  V30 42 H -1.259687 2.114881 -3.701743 0
M  V30 43 H -2.493518 1.141051 -1.354252 0
M  V30 44 H -3.942840 0.868837 -2.489262 0
M  V30 45 H -4.639624 -0.237711 -0.427607 0
M  V30 46 H -3.015886 -0.988454 -0.232037 0
M  V30 47 H -2.858256 -2.354052 -3.475557 0
M  V30 48 H -4.061924 -1.119127 -3.942597 0
M  V30 49 H 1.070325 -0.830849 -1.738393 0
M  V30 50 H 3.627521 0.747329 2.570094 0
M  V30 51 H 2.453975 -0.400853 4.485022 0
M  V30 52 H 0.921838 -4.587258 3.635722 0
M  V30 END ATOM
M  V30 BEGIN BOND
M  V30 1 1 1 2
M  V30 2 1 2 3
M  V30 3 2 3 4
M  V30 4 1 4 5
M  V30 5 2 5 6
M  V30 6 1 6 7
M  V30 7 2 7 8
M  V30 8 1 8 9
M  V30 9 1 9 10
M  V30 10 2 10 11
M  V30 11 1 11 12
M  V30 12 1 12 13
M  V30 13 2 13 14
M  V30 14 1 14 15
M  V30 15 2 15 16
M  V30 16 1 16 17
M  V30 17 2 17 18
M  V30 18 1 17 19
M  V30 19 1 19 20
M  V30 20 1 20 21
M  V30 21 1 21 22
M  V30 22 1 22 23
M  V30 23 1 22 24
M  V30 24 1 22 25
M  V30 25 1 16 26
M  V30 26 2 26 27
M  V30 27 1 8 28
M  V30 28 2 28 29
M  V30 29 1 4 30
M  V30 30 2 30 31
M  V30 31 1 31 2
M  V30 32 1 29 5
M  V30 33 1 27 10
M  V30 34 1 27 13
M  V30 35 1 25 19
M  V30 36 1 1 32
M  V30 37 1 1 33
M  V30 38 1 1 34
M  V30 39 1 3 35
M  V30 40 1 6 36
M  V30 41 1 7 37
M  V30 42 1 9 38
M  V30 43 1 9 39
M  V30 44 1 12 40
M  V30 45 1 14 41
M  V30 46 1 15 42
M  V30 47 1 20 43
M  V30 48 1 20 44
M  V30 49 1 21 45
M  V30 50 1 21 46
M  V30 51 1 25 47
M  V30 52 1 25 48
M  V30 53 1 26 49
M  V30 54 1 28 50
M  V30 55 1 29 51
M  V30 56 1 30 52
M  V30 END BOND
M  V30 END CTAB
M  END
>  <Dataset>  (385) 
ChEMBL_Kinases

>  <Ligand_Instance>  (385) 
nan

>  <PDB_ID>  (385) 
nan

>  <Standardized_SMILES>  (385) 
Cn1cc(-c2ccc(Cc3n[nH]c4ccc(C(=O)N5CCC(F)(F)C5)cc34)cc2)cn1

>  <Name>  (385) 
nan

>  <Pocket>  (385) 
nan

>  <ATP_Site>  (385) 
nan

>  <Peripheral>  (385) 
nan

>  <Num_H_Atoms_ProtBoundConf>  (385) 
nan

>  <Num_Resolved_Atoms>  (385) 
nan

>  <Num_Not_Resolved_Atoms>  (385) 
nan

$$$$
CHEMBL377577
     RDKit          3D

  0  0  0  0  0  0  0  0  0  0999 V3000
M  V30 BEGIN CTAB
M  V30 COUNTS 61 62 0 0 0
M  V30 BEGIN ATOM
M  V30 1 C 0.733817 -4.458335 5.438747 0
M  V30 2 O 0.901171 -4.030182 4.122386 0
M  V30 3 C 1.640176 -2.903820 3.781653 0
M  V30 4 C 2.263330 -2.133934 4.772138 0
M  V30 5 C 2.988778 -1.023779 4.398369 0
M  V30 6 C 3.107662 -0.662691 3.058772 0
M  V30 7 C 2.507620 -1.397374 2.064549 0
M  V30 8 C 2.651297 -0.978077 0.676702 0
M  V30 9 C 2.605992 0.241529 0.220740 0
M  V30 10 C 2.394842 1.440180 1.054849 0
M  V30 11 C 1.609021 2.326054 0.075851 0
M  V30 12 C 2.124913 3.771613 0.222731 0
M  V30 13 O 3.513839 3.653547 0.016769 0
M  V30 14 C 0.178251 2.228444 0.459519 0
M  V30 15 O -0.313732 0.931058 0.259387 0
M  V30 16 C -0.513028 0.346484 -1.007027 0
M  V30 17 O -0.271586 0.989075 -2.084997 0
M  V30 18 C -1.015318 -1.049858 -1.149996 0
M  V30 19 C -2.476130 -1.206834 -0.988478 0
M  V30 20 C -3.324048 -0.443944 -1.938393 0
M  V30 21 C -3.137548 -0.753793 -3.385736 0
M  V30 22 C -4.790289 -0.644059 -1.614921 0
M  V30 23 C -2.822683 -2.675273 -0.935348 0
M  V30 24 C -2.430572 -3.449154 -2.159640 0
M  V30 25 C -2.150160 -3.354533 0.260380 0
M  V30 26 O 1.957697 1.946757 -1.218183 0
M  V30 27 C 2.746258 0.770570 -1.141523 0
M  V30 28 O 3.481029 0.174197 -2.003199 0
M  V30 29 C 1.793387 -2.496896 2.478731 0
M  V30 30 H 0.505426 -3.564421 6.049993 0
M  V30 31 H -0.040485 -5.247972 5.542909 0
M  V30 32 H 1.680300 -4.893981 5.838076 0
M  V30 33 H 2.176985 -2.406611 5.823885 0
M  V30 34 H 3.452293 -0.464886 5.211247 0
M  V30 35 H 3.698977 0.211365 2.918090 0
M  V30 36 H 2.813380 -1.759055 -0.056308 0
M  V30 37 H 1.792020 1.258522 1.968340 0
M  V30 38 H 3.343428 1.977436 1.247125 0
M  V30 39 H 1.961698 4.172995 1.225670 0
M  V30 40 H 1.724129 4.356755 -0.603030 0
M  V30 41 H 3.713889 3.548752 -0.959592 0
M  V30 42 H -0.465305 3.014312 0.017346 0
M  V30 43 H 0.119588 2.397671 1.572624 0
M  V30 44 H -0.612614 -1.433572 -2.110060 0
M  V30 45 H -0.534232 -1.637375 -0.310773 0
M  V30 46 H -2.725086 -0.810355 0.044076 0
M  V30 47 H -3.106764 0.643484 -1.778868 0
M  V30 48 H -4.002028 -1.353892 -3.786270 0
M  V30 49 H -2.215915 -1.267696 -3.652152 0
M  V30 50 H -3.189515 0.193831 -4.000504 0
M  V30 51 H -4.964637 -0.887374 -0.533418 0
M  V30 52 H -5.276596 -1.418962 -2.239021 0
M  V30 53 H -5.316693 0.308854 -1.806969 0
M  V30 54 H -3.908503 -2.841574 -0.782890 0
M  V30 55 H -3.224744 -3.453026 -2.941045 0
M  V30 56 H -2.390630 -4.531520 -1.830848 0
M  V30 57 H -1.427160 -3.240877 -2.539876 0
M  V30 58 H -2.708628 -4.268978 0.505858 0
M  V30 59 H -2.044373 -2.672898 1.113708 0
M  V30 60 H -1.135777 -3.686838 -0.101369 0
M  V30 61 H 1.325771 -3.059705 1.654643 0
M  V30 END ATOM
M  V30 BEGIN BOND
M  V30 1 1 1 2
M  V30 2 1 2 3
M  V30 3 2 3 4
M  V30 4 1 4 5
M  V30 5 2 5 6
M  V30 6 1 6 7
M  V30 7 1 7 8
M  V30 8 2 8 9
M  V30 9 1 9 10
M  V30 10 1 10 11
M  V30 11 1 11 12
M  V30 12 1 12 13
M  V30 13 1 11 14
M  V30 14 1 14 15
M  V30 15 1 15 16
M  V30 16 2 16 17
M  V30 17 1 16 18
M  V30 18 1 18 19
M  V30 19 1 19 20
M  V30 20 1 20 21
M  V30 21 1 20 22
M  V30 22 1 19 23
M  V30 23 1 23 24
M  V30 24 1 23 25
M  V30 25 1 11 26
M  V30 26 1 26 27
M  V30 27 2 27 28
M  V30 28 2 7 29
M  V30 29 1 29 3
M  V30 30 1 27 9
M  V30 31 1 1 30
M  V30 32 1 1 31
M  V30 33 1 1 32
M  V30 34 1 4 33
M  V30 35 1 5 34
M  V30 36 1 6 35
M  V30 37 1 8 36
M  V30 38 1 10 37
M  V30 39 1 10 38
M  V30 40 1 12 39
M  V30 41 1 12 40
M  V30 42 1 13 41
M  V30 43 1 14 42
M  V30 44 1 14 43
M  V30 45 1 18 44
M  V30 46 1 18 45
M  V30 47 1 19 46
M  V30 48 1 20 47
M  V30 49 1 21 48
M  V30 50 1 21 49
M  V30 51 1 21 50
M  V30 52 1 22 51
M  V30 53 1 22 52
M  V30 54 1 22 53
M  V30 55 1 23 54
M  V30 56 1 24 55
M  V30 57 1 24 56
M  V30 58 1 24 57
M  V30 59 1 25 58
M  V30 60 1 25 59
M  V30 61 1 25 60
M  V30 62 1 29 61
M  V30 END BOND
M  V30 END CTAB
M  END
>  <Dataset>  (386) 
ChEMBL_Kinases

>  <Ligand_Instance>  (386) 
nan

>  <PDB_ID>  (386) 
nan

>  <Standardized_SMILES>  (386) 
COc1cccc(/C=C2\CC(CO)(COC(=O)CC(C(C)C)C(C)C)OC2=O)c1

>  <Name>  (386) 
nan

>  <Pocket>  (386) 
nan

>  <ATP_Site>  (386) 
nan

>  <Peripheral>  (386) 
nan

>  <Num_H_Atoms_ProtBoundConf>  (386) 
nan

>  <Num_Resolved_Atoms>  (386) 
nan

>  <Num_Not_Resolved_Atoms>  (386) 
nan

$$$$
CHEMBL5083894
     RDKit          3D

  0  0  0  0  0  0  0  0  0  0999 V3000
M  V30 BEGIN CTAB
M  V30 COUNTS 61 65 0 0 0
M  V30 BEGIN ATOM
M  V30 1 C -1.154659 -2.766523 4.548089 0
M  V30 2 C 0.009870 -2.069874 3.955509 0
M  V30 3 C 1.201298 -1.914184 4.631558 0
M  V30 4 C 2.275547 -1.263533 4.060869 0
M  V30 5 C 2.113032 -0.771625 2.781704 0
M  V30 6 N 3.275266 -0.110165 2.263039 0
M  V30 7 C 3.176243 1.274364 2.620186 0
M  V30 8 O 2.100768 1.484550 3.278565 0
M  V30 9 C 4.194589 2.284650 2.259457 0
M  V30 10 C 5.371698 2.091011 1.549762 0
M  V30 11 C 6.167592 3.200276 1.336323 0
M  V30 12 N 5.817459 4.415442 1.796083 0
M  V30 13 C 4.692679 4.639367 2.482587 0
M  V30 14 C 4.358015 6.018948 2.968610 0
M  V30 15 F 3.337775 5.863218 3.917269 0
M  V30 16 F 5.461227 6.542469 3.596676 0
M  V30 17 F 3.850075 6.822304 1.987885 0
M  V30 18 C 3.866039 3.553758 2.718564 0
M  V30 19 C 0.927668 -0.927574 2.111536 0
M  V30 20 C -0.153056 -1.578348 2.677043 0
M  V30 21 C -1.354902 -1.669019 1.848926 0
M  V30 22 C -2.656328 -1.412715 2.234796 0
M  V30 23 C -3.696539 -1.543502 1.335555 0
M  V30 24 C -3.426597 -1.933723 0.042621 0
M  V30 25 C -2.147609 -2.203154 -0.399734 0
M  V30 26 C -1.144483 -2.057193 0.538953 0
M  V30 27 O -1.705625 -2.602235 -1.653608 0
M  V30 28 C -2.499935 -2.661296 -2.848723 0
M  V30 29 C -3.159394 -3.999091 -3.012340 0
M  V30 30 C -2.526123 -4.811055 -4.150324 0
M  V30 31 O -2.578385 -4.130604 -5.343317 0
M  V30 32 C -2.114859 -2.835701 -5.304511 0
M  V30 33 C -1.505013 -2.520383 -3.978769 0
M  V30 34 C -3.517655 -1.578729 -2.924017 0
M  V30 35 C -4.762807 -1.785388 -2.136554 0
M  V30 36 O -4.564196 -2.027096 -0.762473 0
M  V30 37 H -1.794431 -3.229044 3.786818 0
M  V30 38 H -1.769816 -2.077493 5.197708 0
M  V30 39 H -0.796934 -3.619362 5.195684 0
M  V30 40 H 1.233885 -2.334227 5.631631 0
M  V30 41 H 3.166545 -1.189879 4.665595 0
M  V30 42 H 4.129263 -0.416936 1.709633 0
M  V30 43 H 5.520067 1.075185 1.247456 0
M  V30 44 H 7.075514 3.002898 0.778420 0
M  V30 45 H 2.951785 3.788419 3.287962 0
M  V30 46 H 0.948593 -0.484954 1.105921 0
M  V30 47 H -2.784629 -1.113986 3.252628 0
M  V30 48 H -4.704848 -1.340492 1.650162 0
M  V30 49 H -0.131638 -2.277194 0.164807 0
M  V30 50 H -4.234117 -3.935626 -3.299613 0
M  V30 51 H -3.143402 -4.634774 -2.106541 0
M  V30 52 H -1.525039 -5.128047 -3.844061 0
M  V30 53 H -3.217981 -5.694670 -4.277812 0
M  V30 54 H -1.267361 -2.789358 -6.050114 0
M  V30 55 H -2.871416 -2.115730 -5.645608 0
M  V30 56 H -0.691658 -3.266352 -3.805107 0
M  V30 57 H -1.002094 -1.536369 -3.971483 0
M  V30 58 H -3.802897 -1.420418 -3.969199 0
M  V30 59 H -3.042715 -0.636818 -2.557527 0
M  V30 60 H -5.312929 -0.799941 -2.170940 0
M  V30 61 H -5.488237 -2.503095 -2.568787 0
M  V30 END ATOM
M  V30 BEGIN BOND
M  V30 1 1 1 2
M  V30 2 2 2 3
M  V30 3 1 3 4
M  V30 4 2 4 5
M  V30 5 1 5 6
M  V30 6 1 6 7
M  V30 7 2 7 8
M  V30 8 1 7 9
M  V30 9 2 9 10
M  V30 10 1 10 11
M  V30 11 2 11 12
M  V30 12 1 12 13
M  V30 13 1 13 14
M  V30 14 1 14 15
M  V30 15 1 14 16
M  V30 16 1 14 17
M  V30 17 2 13 18
M  V30 18 1 5 19
M  V30 19 2 19 20
M  V30 20 1 20 21
M  V30 21 2 21 22
M  V30 22 1 22 23
M  V30 23 2 23 24
M  V30 24 1 24 25
M  V30 25 2 25 26
M  V30 26 1 25 27
M  V30 27 1 27 28
M  V30 28 1 28 29
M  V30 29 1 29 30
M  V30 30 1 30 31
M  V30 31 1 31 32
M  V30 32 1 32 33
M  V30 33 1 28 34
M  V30 34 1 34 35
M  V30 35 1 35 36
M  V30 36 1 20 2
M  V30 37 1 26 21
M  V30 38 1 33 28
M  V30 39 1 18 9
M  V30 40 1 36 24
M  V30 41 1 1 37
M  V30 42 1 1 38
M  V30 43 1 1 39
M  V30 44 1 3 40
M  V30 45 1 4 41
M  V30 46 1 6 42
M  V30 47 1 10 43
M  V30 48 1 11 44
M  V30 49 1 18 45
M  V30 50 1 19 46
M  V30 51 1 22 47
M  V30 52 1 23 48
M  V30 53 1 26 49
M  V30 54 1 29 50
M  V30 55 1 29 51
M  V30 56 1 30 52
M  V30 57 1 30 53
M  V30 58 1 32 54
M  V30 59 1 32 55
M  V30 60 1 33 56
M  V30 61 1 33 57
M  V30 62 1 34 58
M  V30 63 1 34 59
M  V30 64 1 35 60
M  V30 65 1 35 61
M  V30 END BOND
M  V30 END CTAB
M  END
>  <Dataset>  (387) 
ChEMBL_Kinases

>  <Ligand_Instance>  (387) 
nan

>  <PDB_ID>  (387) 
nan

>  <Standardized_SMILES>  (387) 
Cc1ccc(NC(=O)c2ccnc(C(F)(F)F)c2)cc1-c1ccc2c(c1)OC1(CCOCC1)CCO2

>  <Name>  (387) 
nan

>  <Pocket>  (387) 
nan

>  <ATP_Site>  (387) 
nan

>  <Peripheral>  (387) 
nan

>  <Num_H_Atoms_ProtBoundConf>  (387) 
nan

>  <Num_Resolved_Atoms>  (387) 
nan

>  <Num_Not_Resolved_Atoms>  (387) 
nan

$$$$
CHEMBL3775681
     RDKit          3D

  0  0  0  0  0  0  0  0  0  0999 V3000
M  V30 BEGIN CTAB
M  V30 COUNTS 59 63 0 0 0
M  V30 BEGIN ATOM
M  V30 1 C 0.260993 -3.915295 5.636708 0
M  V30 2 C 1.641327 -3.379529 5.232673 0
M  V30 3 C 2.379215 -2.946315 6.480492 0
M  V30 4 C 1.499435 -2.237642 4.294593 0
M  V30 5 N 1.382081 -0.943616 4.601048 0
M  V30 6 N 1.268723 -0.201373 3.515815 0
M  V30 7 C 1.304385 -0.972603 2.388242 0
M  V30 8 C 1.236392 -0.813972 0.997112 0
M  V30 9 N 1.083639 0.557868 0.719647 0
M  V30 10 C 0.930798 1.930333 0.441518 0
M  V30 11 C -0.265069 2.344624 -0.325643 0
M  V30 12 C -0.202692 2.385249 -1.702568 0
M  V30 13 C -1.309233 2.771299 -2.434867 0
M  V30 14 C -2.513346 3.130714 -1.847282 0
M  V30 15 C -3.622718 3.530078 -2.722262 0
M  V30 16 C -4.852473 3.902934 -2.201179 0
M  V30 17 C -5.775388 4.249278 -3.165831 0
M  V30 18 C -5.631407 4.268606 -4.515703 0
M  V30 19 C -4.354398 3.874059 -4.913064 0
M  V30 20 N -3.365560 3.511437 -4.050177 0
M  V30 21 C -2.592828 3.095743 -0.472578 0
M  V30 22 C -1.470971 2.705847 0.229089 0
M  V30 23 N 1.316663 -1.908480 0.244377 0
M  V30 24 C 1.455719 -3.136849 0.699558 0
M  V30 25 N 1.519113 -4.168538 -0.264520 0
M  V30 26 C 1.418418 -3.886789 -1.667847 0
M  V30 27 C 2.726954 -4.140034 -2.355175 0
M  V30 28 S 3.641575 -5.534045 -1.684197 0
M  V30 29 C 3.124962 -5.945417 -0.002471 0
M  V30 30 C 1.684880 -5.509398 0.221326 0
M  V30 31 N 1.513814 -3.229929 2.012735 0
M  V30 32 C 1.451725 -2.262047 2.916670 0
M  V30 33 H 0.085934 -3.736331 6.714785 0
M  V30 34 H -0.496603 -3.316157 5.081100 0
M  V30 35 H 0.144944 -4.986509 5.374993 0
M  V30 36 H 2.234631 -4.169230 4.725055 0
M  V30 37 H 1.923314 -3.500966 7.341671 0
M  V30 38 H 3.449061 -3.191739 6.389767 0
M  V30 39 H 2.175983 -1.888463 6.653365 0
M  V30 40 H 1.163973 0.832330 3.485283 0
M  V30 41 H 1.049679 0.429701 -0.347410 0
M  V30 42 H 0.828201 2.515462 1.420611 0
M  V30 43 H 1.889802 2.356256 0.018808 0
M  V30 44 H 0.728122 2.108571 -2.180910 0
M  V30 45 H -1.158829 2.771309 -3.519469 0
M  V30 46 H -5.052248 3.917366 -1.154847 0
M  V30 47 H -6.747544 4.544017 -2.746913 0
M  V30 48 H -6.369845 4.543698 -5.235548 0
M  V30 49 H -4.063071 3.830624 -5.971145 0
M  V30 50 H -3.506001 3.367141 0.026892 0
M  V30 51 H -1.476784 2.658686 1.329623 0
M  V30 52 H 0.617869 -4.569932 -2.070300 0
M  V30 53 H 1.049526 -2.845876 -1.863008 0
M  V30 54 H 2.600402 -4.303222 -3.456804 0
M  V30 55 H 3.363329 -3.226310 -2.191307 0
M  V30 56 H 3.139761 -7.057881 0.141601 0
M  V30 57 H 3.776422 -5.429394 0.703793 0
M  V30 58 H 0.970929 -6.224499 -0.269442 0
M  V30 59 H 1.463185 -5.569786 1.303067 0
M  V30 END ATOM
M  V30 BEGIN BOND
M  V30 1 1 1 2
M  V30 2 1 2 3
M  V30 3 1 2 4
M  V30 4 2 4 5
M  V30 5 1 5 6
M  V30 6 1 6 7
M  V30 7 2 7 8
M  V30 8 1 8 9
M  V30 9 1 9 10
M  V30 10 1 10 11
M  V30 11 2 11 12
M  V30 12 1 12 13
M  V30 13 2 13 14
M  V30 14 1 14 15
M  V30 15 2 15 16
M  V30 16 1 16 17
M  V30 17 2 17 18
M  V30 18 1 18 19
M  V30 19 2 19 20
M  V30 20 1 14 21
M  V30 21 2 21 22
M  V30 22 1 8 23
M  V30 23 2 23 24
M  V30 24 1 24 25
M  V30 25 1 25 26
M  V30 26 1 26 27
M  V30 27 1 27 28
M  V30 28 1 28 29
M  V30 29 1 29 30
M  V30 30 1 24 31
M  V30 31 2 31 32
M  V30 32 1 32 4
M  V30 33 1 32 7
M  V30 34 1 22 11
M  V30 35 1 30 25
M  V30 36 1 20 15
M  V30 37 1 1 33
M  V30 38 1 1 34
M  V30 39 1 1 35
M  V30 40 1 2 36
M  V30 41 1 3 37
M  V30 42 1 3 38
M  V30 43 1 3 39
M  V30 44 1 6 40
M  V30 45 1 9 41
M  V30 46 1 10 42
M  V30 47 1 10 43
M  V30 48 1 12 44
M  V30 49 1 13 45
M  V30 50 1 16 46
M  V30 51 1 17 47
M  V30 52 1 18 48
M  V30 53 1 19 49
M  V30 54 1 21 50
M  V30 55 1 22 51
M  V30 56 1 26 52
M  V30 57 1 26 53
M  V30 58 1 27 54
M  V30 59 1 27 55
M  V30 60 1 29 56
M  V30 61 1 29 57
M  V30 62 1 30 58
M  V30 63 1 30 59
M  V30 END BOND
M  V30 END CTAB
M  END
>  <Dataset>  (388) 
ChEMBL_Kinases

>  <Ligand_Instance>  (388) 
nan

>  <PDB_ID>  (388) 
nan

>  <Standardized_SMILES>  (388) 
CC(C)c1n[nH]c2c(NCc3ccc(-c4ccccn4)cc3)nc(N3CCSCC3)nc12

>  <Name>  (388) 
nan

>  <Pocket>  (388) 
nan

>  <ATP_Site>  (388) 
nan

>  <Peripheral>  (388) 
nan

>  <Num_H_Atoms_ProtBoundConf>  (388) 
nan

>  <Num_Resolved_Atoms>  (388) 
nan

>  <Num_Not_Resolved_Atoms>  (388) 
nan

$$$$
CHEMBL3775680
     RDKit          3D

  0  0  0  0  0  0  0  0  0  0999 V3000
M  V30 BEGIN CTAB
M  V30 COUNTS 49 53 0 0 0
M  V30 BEGIN ATOM
M  V30 1 C 0.604224 -8.109587 -0.830775 0
M  V30 2 N 0.140011 -6.757719 -1.075566 0
M  V30 3 C 0.810163 -5.603415 -0.910644 0
M  V30 4 C 0.053073 -4.499912 -1.243071 0
M  V30 5 C 0.494675 -3.112813 -1.171808 0
M  V30 6 C 1.836451 -2.817737 -1.401210 0
M  V30 7 C 2.235873 -1.479503 -1.326211 0
M  V30 8 C 1.367845 -0.421377 -1.034358 0
M  V30 9 C 1.972793 0.931346 -0.998944 0
M  V30 10 C 2.510742 1.291814 0.335340 0
M  V30 11 N 3.823597 1.275121 0.674449 0
M  V30 12 N 3.988058 1.637886 1.929254 0
M  V30 13 C 2.809165 1.916292 2.499018 0
M  V30 14 C 2.373572 2.331226 3.743033 0
M  V30 15 C 1.041168 2.523866 3.977735 0
M  V30 16 C 0.079227 2.314857 2.992997 0
M  V30 17 C -1.314897 2.541927 3.321400 0
M  V30 18 O -1.586613 2.913001 4.490512 0
M  V30 19 N -2.338287 2.351129 2.352593 0
M  V30 20 C -3.735093 2.587485 2.709789 0
M  V30 21 C -4.623306 3.229410 1.653391 0
M  V30 22 C -4.795673 1.780934 1.980567 0
M  V30 23 C 0.559528 1.901472 1.767857 0
M  V30 24 C 1.877804 1.696492 1.488309 0
M  V30 25 C 0.061804 -0.772767 -0.818425 0
M  V30 26 C -0.368044 -2.080511 -0.884090 0
M  V30 27 C -1.161055 -5.065781 -1.634438 0
M  V30 28 N -1.078275 -6.417507 -1.523345 0
M  V30 29 H 1.726232 -8.139134 -0.952711 0
M  V30 30 H 0.431246 -8.352966 0.240592 0
M  V30 31 H 0.132938 -8.824038 -1.507803 0
M  V30 32 H 1.827691 -5.604511 -0.553671 0
M  V30 33 H 2.578565 -3.575185 -1.633980 0
M  V30 34 H 3.285492 -1.283254 -1.508313 0
M  V30 35 H 2.800826 0.963844 -1.733208 0
M  V30 36 H 1.232293 1.673026 -1.363990 0
M  V30 37 H 4.911225 1.703919 2.425362 0
M  V30 38 H 3.168097 2.474943 4.460894 0
M  V30 39 H 0.770951 2.851454 4.981760 0
M  V30 40 H -2.146865 2.046708 1.382982 0
M  V30 41 H -3.933936 2.908498 3.743796 0
M  V30 42 H -5.396357 3.927384 2.007972 0
M  V30 43 H -4.082083 3.500679 0.719082 0
M  V30 44 H -4.442361 1.046169 1.208509 0
M  V30 45 H -5.720206 1.495168 2.525544 0
M  V30 46 H -0.167886 1.740263 1.008300 0
M  V30 47 H -0.603051 0.026481 -0.597429 0
M  V30 48 H -1.414477 -2.307760 -0.704633 0
M  V30 49 H -2.003963 -4.464771 -1.966816 0
M  V30 END ATOM
M  V30 BEGIN BOND
M  V30 1 1 1 2
M  V30 2 1 2 3
M  V30 3 2 3 4
M  V30 4 1 4 5
M  V30 5 2 5 6
M  V30 6 1 6 7
M  V30 7 2 7 8
M  V30 8 1 8 9
M  V30 9 1 9 10
M  V30 10 2 10 11
M  V30 11 1 11 12
M  V30 12 1 12 13
M  V30 13 2 13 14
M  V30 14 1 14 15
M  V30 15 2 15 16
M  V30 16 1 16 17
M  V30 17 2 17 18
M  V30 18 1 17 19
M  V30 19 1 19 20
M  V30 20 1 20 21
M  V30 21 1 21 22
M  V30 22 1 16 23
M  V30 23 2 23 24
M  V30 24 1 8 25
M  V30 25 2 25 26
M  V30 26 1 4 27
M  V30 27 2 27 28
M  V30 28 1 28 2
M  V30 29 1 26 5
M  V30 30 1 24 10
M  V30 31 1 24 13
M  V30 32 1 22 20
M  V30 33 1 1 29
M  V30 34 1 1 30
M  V30 35 1 1 31
M  V30 36 1 3 32
M  V30 37 1 6 33
M  V30 38 1 7 34
M  V30 39 1 9 35
M  V30 40 1 9 36
M  V30 41 1 12 37
M  V30 42 1 14 38
M  V30 43 1 15 39
M  V30 44 1 19 40
M  V30 45 1 20 41
M  V30 46 1 21 42
M  V30 47 1 21 43
M  V30 48 1 22 44
M  V30 49 1 22 45
M  V30 50 1 23 46
M  V30 51 1 25 47
M  V30 52 1 26 48
M  V30 53 1 27 49
M  V30 END BOND
M  V30 END CTAB
M  END
>  <Dataset>  (389) 
ChEMBL_Kinases

>  <Ligand_Instance>  (389) 
nan

>  <PDB_ID>  (389) 
nan

>  <Standardized_SMILES>  (389) 
Cn1cc(-c2ccc(Cc3n[nH]c4ccc(C(=O)NC5CC5)cc34)cc2)cn1

>  <Name>  (389) 
nan

>  <Pocket>  (389) 
nan

>  <ATP_Site>  (389) 
nan

>  <Peripheral>  (389) 
nan

>  <Num_H_Atoms_ProtBoundConf>  (389) 
nan

>  <Num_Resolved_Atoms>  (389) 
nan

>  <Num_Not_Resolved_Atoms>  (389) 
nan

$$$$
CHEMBL377568
     RDKit          3D

  0  0  0  0  0  0  0  0  0  0999 V3000
M  V30 BEGIN CTAB
M  V30 COUNTS 39 41 0 0 0
M  V30 BEGIN ATOM
M  V30 1 N 1.511666 -7.655560 -0.162163 0
M  V30 2 C 2.141660 -6.579475 0.517121 0
M  V30 3 N 3.125041 -6.720220 1.436977 0
M  V30 4 C 3.662909 -5.622720 2.030879 0
M  V30 5 C 3.263314 -4.330520 1.752273 0
M  V30 6 C 2.266567 -4.257456 0.814598 0
M  V30 7 C 1.724509 -2.932870 0.400916 0
M  V30 8 C 0.765523 -2.516399 -0.473052 0
M  V30 9 C 0.586615 -1.158989 -0.542579 0
M  V30 10 C 1.292976 -0.322996 0.184569 0
M  V30 11 C 1.289471 1.127914 0.285004 0
M  V30 12 O 2.091584 1.679395 1.079148 0
M  V30 13 N 0.367700 1.836154 -0.532199 0
M  V30 14 C 0.307211 3.259927 -0.487728 0
M  V30 15 C -0.035987 3.815824 0.876222 0
M  V30 16 C -1.368137 3.323878 1.338242 0
M  V30 17 C -1.484427 2.335970 2.294045 0
M  V30 18 C -2.693041 1.844991 2.754270 0
M  V30 19 C -3.851556 2.400675 2.200982 0
M  V30 20 Cl -5.401300 1.778828 2.782073 0
M  V30 21 C -3.807910 3.393083 1.239506 0
M  V30 22 C -2.566248 3.827809 0.834534 0
M  V30 23 Cl -2.513546 5.096056 -0.394518 0
M  V30 24 S 2.371743 -1.381783 1.124714 0
M  V30 25 N 1.713440 -5.317215 0.209571 0
M  V30 26 H 0.490433 -7.894136 0.002978 0
M  V30 27 H 1.966391 -8.290158 -0.857893 0
M  V30 28 H 4.449523 -5.811649 2.761129 0
M  V30 29 H 3.691294 -3.464559 2.224530 0
M  V30 30 H 0.245115 -3.288654 -1.020376 0
M  V30 31 H -0.173234 -0.752286 -1.229605 0
M  V30 32 H -0.275168 1.281864 -1.175441 0
M  V30 33 H 1.221074 3.778218 -0.865530 0
M  V30 34 H -0.502093 3.598996 -1.171943 0
M  V30 35 H -0.037438 4.916040 0.845475 0
M  V30 36 H 0.700580 3.533909 1.656636 0
M  V30 37 H -0.536046 1.952984 2.678901 0
M  V30 38 H -2.689625 1.069940 3.505706 0
M  V30 39 H -4.723615 3.804386 0.828145 0
M  V30 END ATOM
M  V30 BEGIN BOND
M  V30 1 1 1 2
M  V30 2 2 2 3
M  V30 3 1 3 4
M  V30 4 2 4 5
M  V30 5 1 5 6
M  V30 6 1 6 7
M  V30 7 2 7 8
M  V30 8 1 8 9
M  V30 9 2 9 10
M  V30 10 1 10 11
M  V30 11 2 11 12
M  V30 12 1 11 13
M  V30 13 1 13 14
M  V30 14 1 14 15
M  V30 15 1 15 16
M  V30 16 2 16 17
M  V30 17 1 17 18
M  V30 18 2 18 19
M  V30 19 1 19 20
M  V30 20 1 19 21
M  V30 21 2 21 22
M  V30 22 1 22 23
M  V30 23 1 10 24
M  V30 24 2 6 25
M  V30 25 1 25 2
M  V30 26 1 24 7
M  V30 27 1 22 16
M  V30 28 1 1 26
M  V30 29 1 1 27
M  V30 30 1 4 28
M  V30 31 1 5 29
M  V30 32 1 8 30
M  V30 33 1 9 31
M  V30 34 1 13 32
M  V30 35 1 14 33
M  V30 36 1 14 34
M  V30 37 1 15 35
M  V30 38 1 15 36
M  V30 39 1 17 37
M  V30 40 1 18 38
M  V30 41 1 21 39
M  V30 END BOND
M  V30 END CTAB
M  END
>  <Dataset>  (390) 
ChEMBL_Kinases

>  <Ligand_Instance>  (390) 
nan

>  <PDB_ID>  (390) 
nan

>  <Standardized_SMILES>  (390) 
Nc1nccc(-c2ccc(C(=O)NCCc3ccc(Cl)cc3Cl)s2)n1

>  <Name>  (390) 
nan

>  <Pocket>  (390) 
nan

>  <ATP_Site>  (390) 
nan

>  <Peripheral>  (390) 
nan

>  <Num_H_Atoms_ProtBoundConf>  (390) 
nan

>  <Num_Resolved_Atoms>  (390) 
nan

>  <Num_Not_Resolved_Atoms>  (390) 
nan

$$$$
CHEMBL3775677
     RDKit          3D

  0  0  0  0  0  0  0  0  0  0999 V3000
M  V30 BEGIN CTAB
M  V30 COUNTS 59 62 0 0 0
M  V30 BEGIN ATOM
M  V30 1 C 2.878411 -2.623261 4.550170 0
M  V30 2 C 3.798836 -2.659357 3.344778 0
M  V30 3 C 3.478586 -3.776679 2.385744 0
M  V30 4 C 3.810171 -1.352128 2.608153 0
M  V30 5 N 4.559099 -0.210412 2.640796 0
M  V30 6 N 4.106673 0.625501 1.745443 0
M  V30 7 C 3.061789 0.107029 1.084387 0
M  V30 8 C 2.270102 0.606611 0.071698 0
M  V30 9 N 2.411575 1.886739 -0.485219 0
M  V30 10 C 1.604280 2.452537 -1.561166 0
M  V30 11 C 0.157233 2.383668 -1.253386 0
M  V30 12 C -0.578555 1.321808 -1.765005 0
M  V30 13 C -1.939702 1.217257 -1.459687 0
M  V30 14 C -2.565284 2.153568 -0.658238 0
M  V30 15 C -3.986908 1.960128 -0.369828 0
M  V30 16 C -4.753425 2.779325 0.387126 0
M  V30 17 C -6.113133 2.520402 0.613218 0
M  V30 18 C -6.707221 1.387470 0.047382 0
M  V30 19 C -5.892088 0.573393 -0.720537 0
M  V30 20 N -4.618071 0.893259 -0.882762 0
M  V30 21 C -1.859790 3.215597 -0.140600 0
M  V30 22 C -0.494052 3.322108 -0.444585 0
M  V30 23 N 1.322729 -0.217056 -0.324261 0
M  V30 24 C 1.051038 -1.442206 0.131543 0
M  V30 25 N -0.023516 -2.140259 -0.450449 0
M  V30 26 C -0.226517 -3.263245 -1.342584 0
M  V30 27 C 0.251386 -4.571647 -0.751253 0
M  V30 28 O -0.016491 -5.567157 -1.686294 0
M  V30 29 C -0.621222 -4.876054 0.469185 0
M  V30 30 O -0.318987 -6.134854 0.999438 0
M  V30 31 N 1.843039 -1.890959 1.115066 0
M  V30 32 C 2.848641 -1.148967 1.610293 0
M  V30 33 H 2.325631 -3.569238 4.665343 0
M  V30 34 H 3.458040 -2.370943 5.480606 0
M  V30 35 H 2.171459 -1.770287 4.421641 0
M  V30 36 H 4.813970 -2.844336 3.744629 0
M  V30 37 H 3.854147 -3.572057 1.373842 0
M  V30 38 H 2.361678 -3.942902 2.312425 0
M  V30 39 H 3.871214 -4.759922 2.702996 0
M  V30 40 H 4.517597 1.567238 1.577013 0
M  V30 41 H 3.174504 2.527556 -0.109745 0
M  V30 42 H 1.800300 1.878161 -2.482414 0
M  V30 43 H 1.861429 3.516302 -1.754925 0
M  V30 44 H -0.201805 0.538218 -2.415590 0
M  V30 45 H -2.511006 0.368529 -1.870024 0
M  V30 46 H -4.321679 3.653293 0.833588 0
M  V30 47 H -6.692754 3.192875 1.220911 0
M  V30 48 H -7.747028 1.248751 0.263039 0
M  V30 49 H -6.363852 -0.286439 -1.145234 0
M  V30 50 H -2.341436 3.957010 0.489732 0
M  V30 51 H 0.045026 4.157266 -0.038441 0
M  V30 52 H -0.876223 -1.624907 -0.069858 0
M  V30 53 H -1.309268 -3.350200 -1.528632 0
M  V30 54 H 0.255274 -3.081668 -2.340285 0
M  V30 55 H 1.324064 -4.591200 -0.512760 0
M  V30 56 H 0.432538 -6.430464 -1.507161 0
M  V30 57 H -1.682185 -4.867209 0.111197 0
M  V30 58 H -0.447125 -4.078872 1.206277 0
M  V30 59 H 0.157738 -6.011650 1.872810 0
M  V30 END ATOM
M  V30 BEGIN BOND
M  V30 1 1 1 2
M  V30 2 1 2 3
M  V30 3 1 2 4
M  V30 4 2 4 5
M  V30 5 1 5 6
M  V30 6 1 6 7
M  V30 7 2 7 8
M  V30 8 1 8 9
M  V30 9 1 9 10
M  V30 10 1 10 11
M  V30 11 2 11 12
M  V30 12 1 12 13
M  V30 13 2 13 14
M  V30 14 1 14 15
M  V30 15 2 15 16
M  V30 16 1 16 17
M  V30 17 2 17 18
M  V30 18 1 18 19
M  V30 19 2 19 20
M  V30 20 1 14 21
M  V30 21 2 21 22
M  V30 22 1 8 23
M  V30 23 2 23 24
M  V30 24 1 24 25
M  V30 25 1 25 26
M  V30 26 1 26 27
M  V30 27 1 27 28
M  V30 28 1 27 29
M  V30 29 1 29 30
M  V30 30 1 24 31
M  V30 31 2 31 32
M  V30 32 1 32 4
M  V30 33 1 32 7
M  V30 34 1 22 11
M  V30 35 1 20 15
M  V30 36 1 1 33
M  V30 37 1 1 34
M  V30 38 1 1 35
M  V30 39 1 2 36
M  V30 40 1 3 37
M  V30 41 1 3 38
M  V30 42 1 3 39
M  V30 43 1 6 40
M  V30 44 1 9 41
M  V30 45 1 10 42
M  V30 46 1 10 43
M  V30 47 1 12 44
M  V30 48 1 13 45
M  V30 49 1 16 46
M  V30 50 1 17 47
M  V30 51 1 18 48
M  V30 52 1 19 49
M  V30 53 1 21 50
M  V30 54 1 22 51
M  V30 55 1 25 52
M  V30 56 1 26 53
M  V30 57 1 26 54
M  V30 58 1 27 55
M  V30 59 1 28 56
M  V30 60 1 29 57
M  V30 61 1 29 58
M  V30 62 1 30 59
M  V30 END BOND
M  V30 END CTAB
M  END
>  <Dataset>  (391) 
ChEMBL_Kinases

>  <Ligand_Instance>  (391) 
nan

>  <PDB_ID>  (391) 
nan

>  <Standardized_SMILES>  (391) 
CC(C)c1n[nH]c2c(NCc3ccc(-c4ccccn4)cc3)nc(NCC(O)CO)nc12

>  <Name>  (391) 
nan

>  <Pocket>  (391) 
nan

>  <ATP_Site>  (391) 
nan

>  <Peripheral>  (391) 
nan

>  <Num_H_Atoms_ProtBoundConf>  (391) 
nan

>  <Num_Resolved_Atoms>  (391) 
nan

>  <Num_Not_Resolved_Atoms>  (391) 
nan

$$$$
CHEMBL3775657
     RDKit          3D

  0  0  0  0  0  0  0  0  0  0999 V3000
M  V30 BEGIN CTAB
M  V30 COUNTS 62 65 0 0 0
M  V30 BEGIN ATOM
M  V30 1 C 3.358197 -3.715485 3.664708 0
M  V30 2 C 4.288536 -3.326874 2.534796 0
M  V30 3 C 5.734533 -3.524005 2.891348 0
M  V30 4 C 4.020799 -1.953895 2.031015 0
M  V30 5 N 4.544090 -0.782867 2.433688 0
M  V30 6 N 4.042074 0.226033 1.723001 0
M  V30 7 C 3.182630 -0.329370 0.853638 0
M  V30 8 C 2.395385 0.289721 -0.114598 0
M  V30 9 N 2.354097 1.684789 -0.370309 0
M  V30 10 C 1.594594 2.429295 -1.324340 0
M  V30 11 C 0.120201 2.298025 -1.177063 0
M  V30 12 C -0.708335 1.393232 -1.806819 0
M  V30 13 C -2.060076 1.414069 -1.537183 0
M  V30 14 C -2.672112 2.287101 -0.667014 0
M  V30 15 C -4.112842 2.203326 -0.470472 0
M  V30 16 C -4.813572 3.028405 0.375418 0
M  V30 17 C -6.192345 2.875114 0.500936 0
M  V30 18 C -6.870410 1.899423 -0.217083 0
M  V30 19 C -6.115124 1.097758 -1.052839 0
M  V30 20 N -4.767894 1.256524 -1.167736 0
M  V30 21 C -1.837761 3.188519 -0.041579 0
M  V30 22 C -0.474212 3.188863 -0.294941 0
M  V30 23 N 1.623180 -0.530158 -0.847124 0
M  V30 24 C 1.561461 -1.860830 -0.713227 0
M  V30 25 N 0.678345 -2.542503 -1.594799 0
M  V30 26 C -0.708096 -2.700550 -1.206577 0
M  V30 27 C -0.731818 -3.469495 0.097265 0
M  V30 28 N -2.062383 -3.686709 0.580400 0
M  V30 29 C -2.121975 -4.411698 1.818901 0
M  V30 30 C -2.902545 -2.512405 0.546248 0
M  V30 31 N 2.337762 -2.437027 0.236445 0
M  V30 32 C 3.137473 -1.678882 1.008873 0
M  V30 33 H 3.250541 -4.825975 3.711724 0
M  V30 34 H 2.344804 -3.324083 3.413192 0
M  V30 35 H 3.656180 -3.274337 4.641173 0
M  V30 36 H 4.073836 -4.072901 1.715224 0
M  V30 37 H 6.054158 -4.587651 2.786810 0
M  V30 38 H 5.827996 -3.323441 3.996444 0
M  V30 39 H 6.419609 -2.896264 2.322822 0
M  V30 40 H 4.265647 1.237683 1.817530 0
M  V30 41 H 3.006702 2.229410 0.271076 0
M  V30 42 H 1.896204 2.068464 -2.343581 0
M  V30 43 H 1.839725 3.492334 -1.297355 0
M  V30 44 H -0.228753 0.711220 -2.493153 0
M  V30 45 H -2.597652 0.641387 -2.106350 0
M  V30 46 H -4.291879 3.790531 0.938389 0
M  V30 47 H -6.787051 3.499788 1.152966 0
M  V30 48 H -7.923490 1.741633 -0.156775 0
M  V30 49 H -6.557546 0.309237 -1.652807 0
M  V30 50 H -2.279136 3.892322 0.649966 0
M  V30 51 H 0.094044 3.932997 0.243841 0
M  V30 52 H 0.969370 -2.942179 -2.517069 0
M  V30 53 H -1.317513 -3.178894 -1.974792 0
M  V30 54 H -1.091304 -1.663624 -0.996698 0
M  V30 55 H -0.242384 -2.788303 0.850849 0
M  V30 56 H -0.222107 -4.430373 0.005901 0
M  V30 57 H -1.293290 -5.128000 1.879126 0
M  V30 58 H -1.982465 -3.680262 2.646446 0
M  V30 59 H -3.131626 -4.879773 1.880242 0
M  V30 60 H -3.260371 -2.409075 -0.500808 0
M  V30 61 H -3.736391 -2.680808 1.265585 0
M  V30 62 H -2.378897 -1.580749 0.840813 0
M  V30 END ATOM
M  V30 BEGIN BOND
M  V30 1 1 1 2
M  V30 2 1 2 3
M  V30 3 1 2 4
M  V30 4 2 4 5
M  V30 5 1 5 6
M  V30 6 1 6 7
M  V30 7 2 7 8
M  V30 8 1 8 9
M  V30 9 1 9 10
M  V30 10 1 10 11
M  V30 11 2 11 12
M  V30 12 1 12 13
M  V30 13 2 13 14
M  V30 14 1 14 15
M  V30 15 2 15 16
M  V30 16 1 16 17
M  V30 17 2 17 18
M  V30 18 1 18 19
M  V30 19 2 19 20
M  V30 20 1 14 21
M  V30 21 2 21 22
M  V30 22 1 8 23
M  V30 23 2 23 24
M  V30 24 1 24 25
M  V30 25 1 25 26
M  V30 26 1 26 27
M  V30 27 1 27 28
M  V30 28 1 28 29
M  V30 29 1 28 30
M  V30 30 1 24 31
M  V30 31 2 31 32
M  V30 32 1 32 4
M  V30 33 1 32 7
M  V30 34 1 22 11
M  V30 35 1 20 15
M  V30 36 1 1 33
M  V30 37 1 1 34
M  V30 38 1 1 35
M  V30 39 1 2 36
M  V30 40 1 3 37
M  V30 41 1 3 38
M  V30 42 1 3 39
M  V30 43 1 6 40
M  V30 44 1 9 41
M  V30 45 1 10 42
M  V30 46 1 10 43
M  V30 47 1 12 44
M  V30 48 1 13 45
M  V30 49 1 16 46
M  V30 50 1 17 47
M  V30 51 1 18 48
M  V30 52 1 19 49
M  V30 53 1 21 50
M  V30 54 1 22 51
M  V30 55 1 25 52
M  V30 56 1 26 53
M  V30 57 1 26 54
M  V30 58 1 27 55
M  V30 59 1 27 56
M  V30 60 1 29 57
M  V30 61 1 29 58
M  V30 62 1 29 59
M  V30 63 1 30 60
M  V30 64 1 30 61
M  V30 65 1 30 62
M  V30 END BOND
M  V30 END CTAB
M  END
>  <Dataset>  (392) 
ChEMBL_Kinases

>  <Ligand_Instance>  (392) 
nan

>  <PDB_ID>  (392) 
nan

>  <Standardized_SMILES>  (392) 
CC(C)c1n[nH]c2c(NCc3ccc(-c4ccccn4)cc3)nc(NCCN(C)C)nc12

>  <Name>  (392) 
nan

>  <Pocket>  (392) 
nan

>  <ATP_Site>  (392) 
nan

>  <Peripheral>  (392) 
nan

>  <Num_H_Atoms_ProtBoundConf>  (392) 
nan

>  <Num_Resolved_Atoms>  (392) 
nan

>  <Num_Not_Resolved_Atoms>  (392) 
nan

$$$$
CHEMBL3775614
     RDKit          3D

  0  0  0  0  0  0  0  0  0  0999 V3000
M  V30 BEGIN CTAB
M  V30 COUNTS 42 45 0 0 0
M  V30 BEGIN ATOM
M  V30 1 C 0.465946 -7.178302 0.918843 0
M  V30 2 N 0.752906 -6.127872 -0.052386 0
M  V30 3 C 0.495505 -4.802088 0.098933 0
M  V30 4 C 0.914223 -4.136068 -1.041437 0
M  V30 5 C 0.761721 -2.672787 -1.162430 0
M  V30 6 C -0.335817 -2.113917 -0.519422 0
M  V30 7 C -0.581198 -0.742553 -0.560572 0
M  V30 8 C 0.268100 0.095468 -1.247231 0
M  V30 9 C 0.094746 1.570118 -1.343515 0
M  V30 10 C 0.844442 2.313416 -0.305088 0
M  V30 11 N 2.009383 2.981398 -0.529534 0
M  V30 12 N 2.463005 3.547976 0.551497 0
M  V30 13 C 1.626174 3.293170 1.570968 0
M  V30 14 C 1.639461 3.652269 2.910089 0
M  V30 15 C 0.587653 3.198993 3.682805 0
M  V30 16 C -0.435615 2.426385 3.168580 0
M  V30 17 C -1.531167 1.952175 3.965927 0
M  V30 18 N -1.710260 2.206108 5.353927 0
M  V30 19 O -2.474511 1.235394 3.482641 0
M  V30 20 C -0.404764 2.096253 1.836540 0
M  V30 21 C 0.615087 2.522239 1.036264 0
M  V30 22 C 1.347641 -0.467867 -1.878110 0
M  V30 23 C 1.611612 -1.834133 -1.849583 0
M  V30 24 C 1.435923 -5.122253 -1.887375 0
M  V30 25 N 1.310492 -6.293488 -1.237923 0
M  V30 26 H 0.204861 -6.758917 1.900014 0
M  V30 27 H 1.300164 -7.883757 0.973937 0
M  V30 28 H -0.443120 -7.745071 0.563997 0
M  V30 29 H 0.030768 -4.362433 0.989240 0
M  V30 30 H -1.033012 -2.743531 0.035239 0
M  V30 31 H -1.427460 -0.339176 -0.063324 0
M  V30 32 H -0.984562 1.828853 -1.330387 0
M  V30 33 H 0.450703 1.872691 -2.349959 0
M  V30 34 H 3.350412 4.105711 0.565800 0
M  V30 35 H 2.441366 4.255980 3.304772 0
M  V30 36 H 0.576511 3.470842 4.743727 0
M  V30 37 H -1.873110 3.063743 5.953034 0
M  V30 38 H -1.684186 1.363437 6.002615 0
M  V30 39 H -1.187696 1.500880 1.424472 0
M  V30 40 H 2.079556 0.121465 -2.451120 0
M  V30 41 H 2.462001 -2.307267 -2.340717 0
M  V30 42 H 1.831007 -4.836030 -2.852036 0
M  V30 END ATOM
M  V30 BEGIN BOND
M  V30 1 1 1 2
M  V30 2 1 2 3
M  V30 3 2 3 4
M  V30 4 1 4 5
M  V30 5 2 5 6
M  V30 6 1 6 7
M  V30 7 2 7 8
M  V30 8 1 8 9
M  V30 9 1 9 10
M  V30 10 2 10 11
M  V30 11 1 11 12
M  V30 12 1 12 13
M  V30 13 2 13 14
M  V30 14 1 14 15
M  V30 15 2 15 16
M  V30 16 1 16 17
M  V30 17 1 17 18
M  V30 18 2 17 19
M  V30 19 1 16 20
M  V30 20 2 20 21
M  V30 21 1 8 22
M  V30 22 2 22 23
M  V30 23 1 4 24
M  V30 24 2 24 25
M  V30 25 1 25 2
M  V30 26 1 23 5
M  V30 27 1 21 10
M  V30 28 1 21 13
M  V30 29 1 1 26
M  V30 30 1 1 27
M  V30 31 1 1 28
M  V30 32 1 3 29
M  V30 33 1 6 30
M  V30 34 1 7 31
M  V30 35 1 9 32
M  V30 36 1 9 33
M  V30 37 1 12 34
M  V30 38 1 14 35
M  V30 39 1 15 36
M  V30 40 1 18 37
M  V30 41 1 18 38
M  V30 42 1 20 39
M  V30 43 1 22 40
M  V30 44 1 23 41
M  V30 45 1 24 42
M  V30 END BOND
M  V30 END CTAB
M  END
>  <Dataset>  (393) 
ChEMBL_Kinases

>  <Ligand_Instance>  (393) 
nan

>  <PDB_ID>  (393) 
nan

>  <Standardized_SMILES>  (393) 
Cn1cc(-c2ccc(Cc3n[nH]c4ccc(C(N)=O)cc34)cc2)cn1

>  <Name>  (393) 
nan

>  <Pocket>  (393) 
nan

>  <ATP_Site>  (393) 
nan

>  <Peripheral>  (393) 
nan

>  <Num_H_Atoms_ProtBoundConf>  (393) 
nan

>  <Num_Resolved_Atoms>  (393) 
nan

>  <Num_Not_Resolved_Atoms>  (393) 
nan

$$$$
CHEMBL3775792
     RDKit          3D

  0  0  0  0  0  0  0  0  0  0999 V3000
M  V30 BEGIN CTAB
M  V30 COUNTS 61 64 0 0 0
M  V30 BEGIN ATOM
M  V30 1 C 2.576791 -2.955377 4.533839 0
M  V30 2 C 3.443699 -3.119754 3.307590 0
M  V30 3 C 4.869355 -3.462196 3.627724 0
M  V30 4 C 3.342341 -1.860374 2.497312 0
M  V30 5 N 4.115190 -0.749405 2.574818 0
M  V30 6 N 3.717881 0.156355 1.693697 0
M  V30 7 C 2.675020 -0.406005 1.055524 0
M  V30 8 C 1.908699 0.138292 0.041112 0
M  V30 9 N 2.057434 1.416422 -0.551829 0
M  V30 10 C 1.322682 2.061806 -1.594169 0
M  V30 11 C -0.105952 2.272450 -1.326340 0
M  V30 12 C -1.166547 1.447365 -1.639355 0
M  V30 13 C -2.467810 1.774661 -1.318660 0
M  V30 14 C -2.775597 2.948264 -0.666313 0
M  V30 15 C -4.170727 3.228061 -0.359887 0
M  V30 16 C -4.619468 4.342015 0.277290 0
M  V30 17 C -5.952132 4.566995 0.547785 0
M  V30 18 C -6.888861 3.637226 0.165678 0
M  V30 19 C -6.393853 2.523293 -0.476759 0
M  V30 20 N -5.098298 2.326368 -0.728267 0
M  V30 21 C -1.749054 3.795740 -0.337844 0
M  V30 22 C -0.445029 3.448134 -0.669442 0
M  V30 23 N 0.919388 -0.636486 -0.426816 0
M  V30 24 C 0.603707 -1.854904 -0.022850 0
M  V30 25 N -0.466670 -2.578988 -0.588259 0
M  V30 26 C -0.888119 -3.900075 -0.244233 0
M  V30 27 C 0.107516 -4.983808 -0.474742 0
M  V30 28 C 0.415717 -5.199310 -1.939929 0
M  V30 29 C -0.551603 -6.284927 0.003217 0
M  V30 30 O 1.290274 -4.876617 0.208223 0
M  V30 31 N 1.379784 -2.333629 0.963135 0
M  V30 32 C 2.390883 -1.672629 1.515892 0
M  V30 33 H 2.141799 -3.921523 4.818772 0
M  V30 34 H 3.037592 -2.375814 5.344038 0
M  V30 35 H 1.697948 -2.334824 4.191545 0
M  V30 36 H 3.025614 -3.965944 2.723006 0
M  V30 37 H 5.315950 -3.859436 2.686746 0
M  V30 38 H 4.841611 -4.296386 4.347795 0
M  V30 39 H 5.472825 -2.622422 4.011954 0
M  V30 40 H 4.117291 1.110397 1.517287 0
M  V30 41 H 2.871377 1.937421 -0.102148 0
M  V30 42 H 1.777997 3.022329 -1.831571 0
M  V30 43 H 1.387185 1.442092 -2.515601 0
M  V30 44 H -0.916821 0.540333 -2.148844 0
M  V30 45 H -3.228813 1.058197 -1.608499 0
M  V30 46 H -3.914040 5.087056 0.588720 0
M  V30 47 H -6.319736 5.454992 1.056823 0
M  V30 48 H -7.970308 3.702370 0.323374 0
M  V30 49 H -7.082551 1.759110 -0.800103 0
M  V30 50 H -1.950686 4.722519 0.172474 0
M  V30 51 H 0.316969 4.162603 -0.380803 0
M  V30 52 H -1.028659 -2.101516 -1.354455 0
M  V30 53 H -1.070904 -3.882727 0.872880 0
M  V30 54 H -1.835892 -4.195269 -0.721775 0
M  V30 55 H -0.324052 -5.899102 -2.400794 0
M  V30 56 H 0.358586 -4.249907 -2.486728 0
M  V30 57 H 1.409480 -5.667432 -2.094631 0
M  V30 58 H -1.067486 -6.079951 0.959437 0
M  V30 59 H -1.318819 -6.510027 -0.766320 0
M  V30 60 H 0.159572 -7.119389 0.046695 0
M  V30 61 H 1.672517 -5.787323 0.339013 0
M  V30 END ATOM
M  V30 BEGIN BOND
M  V30 1 1 1 2
M  V30 2 1 2 3
M  V30 3 1 2 4
M  V30 4 2 4 5
M  V30 5 1 5 6
M  V30 6 1 6 7
M  V30 7 2 7 8
M  V30 8 1 8 9
M  V30 9 1 9 10
M  V30 10 1 10 11
M  V30 11 2 11 12
M  V30 12 1 12 13
M  V30 13 2 13 14
M  V30 14 1 14 15
M  V30 15 2 15 16
M  V30 16 1 16 17
M  V30 17 2 17 18
M  V30 18 1 18 19
M  V30 19 2 19 20
M  V30 20 1 14 21
M  V30 21 2 21 22
M  V30 22 1 8 23
M  V30 23 2 23 24
M  V30 24 1 24 25
M  V30 25 1 25 26
M  V30 26 1 26 27
M  V30 27 1 27 28
M  V30 28 1 27 29
M  V30 29 1 27 30
M  V30 30 1 24 31
M  V30 31 2 31 32
M  V30 32 1 32 4
M  V30 33 1 32 7
M  V30 34 1 22 11
M  V30 35 1 20 15
M  V30 36 1 1 33
M  V30 37 1 1 34
M  V30 38 1 1 35
M  V30 39 1 2 36
M  V30 40 1 3 37
M  V30 41 1 3 38
M  V30 42 1 3 39
M  V30 43 1 6 40
M  V30 44 1 9 41
M  V30 45 1 10 42
M  V30 46 1 10 43
M  V30 47 1 12 44
M  V30 48 1 13 45
M  V30 49 1 16 46
M  V30 50 1 17 47
M  V30 51 1 18 48
M  V30 52 1 19 49
M  V30 53 1 21 50
M  V30 54 1 22 51
M  V30 55 1 25 52
M  V30 56 1 26 53
M  V30 57 1 26 54
M  V30 58 1 28 55
M  V30 59 1 28 56
M  V30 60 1 28 57
M  V30 61 1 29 58
M  V30 62 1 29 59
M  V30 63 1 29 60
M  V30 64 1 30 61
M  V30 END BOND
M  V30 END CTAB
M  END
>  <Dataset>  (394) 
ChEMBL_Kinases

>  <Ligand_Instance>  (394) 
nan

>  <PDB_ID>  (394) 
nan

>  <Standardized_SMILES>  (394) 
CC(C)c1n[nH]c2c(NCc3ccc(-c4ccccn4)cc3)nc(NCC(C)(C)O)nc12

>  <Name>  (394) 
nan

>  <Pocket>  (394) 
nan

>  <ATP_Site>  (394) 
nan

>  <Peripheral>  (394) 
nan

>  <Num_H_Atoms_ProtBoundConf>  (394) 
nan

>  <Num_Resolved_Atoms>  (394) 
nan

>  <Num_Not_Resolved_Atoms>  (394) 
nan

$$$$
CHEMBL377860
     RDKit          3D

  0  0  0  0  0  0  0  0  0  0999 V3000
M  V30 BEGIN CTAB
M  V30 COUNTS 40 41 0 0 0
M  V30 BEGIN ATOM
M  V30 1 C -1.338154 -6.062611 1.087669 0
M  V30 2 N -0.075687 -6.679822 0.656138 0
M  V30 3 C 0.949417 -5.828526 0.146874 0
M  V30 4 N 2.133662 -6.306782 -0.273287 0
M  V30 5 C 3.093930 -5.497350 -0.752162 0
M  V30 6 C 2.899591 -4.112479 -0.833696 0
M  V30 7 C 1.685831 -3.636087 -0.400815 0
M  V30 8 C 1.268388 -2.239666 -0.391493 0
M  V30 9 C 1.980055 -1.187259 -0.795717 0
M  V30 10 C 1.487800 0.088431 -0.740997 0
M  V30 11 C 0.195139 0.185390 -0.232092 0
M  V30 12 C -0.761600 1.293655 0.031212 0
M  V30 13 O -1.868701 1.014012 0.510941 0
M  V30 14 N -0.288595 2.562538 -0.303066 0
M  V30 15 C -1.088987 3.745904 -0.108172 0
M  V30 16 C -1.407806 3.896475 1.353684 0
M  V30 17 N -0.301198 4.044112 2.228722 0
M  V30 18 C 0.545665 2.910516 2.413471 0
M  V30 19 C -0.737480 4.506940 3.535489 0
M  V30 20 S -0.263583 -1.565084 0.149145 0
M  V30 21 N 0.774516 -4.506504 0.065206 0
M  V30 22 H -1.989166 -6.803382 1.578272 0
M  V30 23 H -1.851400 -5.588584 0.202624 0
M  V30 24 H -1.178003 -5.245894 1.812414 0
M  V30 25 H 0.104396 -7.708583 0.705083 0
M  V30 26 H 4.061796 -5.842108 -1.100799 0
M  V30 27 H 3.576626 -3.370418 -1.191007 0
M  V30 28 H 3.004953 -1.289205 -1.197625 0
M  V30 29 H 1.921751 1.034713 -1.022120 0
M  V30 30 H 0.668863 2.719159 -0.718297 0
M  V30 31 H -2.070250 3.641001 -0.637897 0
M  V30 32 H -0.621568 4.650649 -0.539297 0
M  V30 33 H -2.002573 2.995230 1.674394 0
M  V30 34 H -2.136017 4.755002 1.511198 0
M  V30 35 H 1.237390 2.691002 1.577787 0
M  V30 36 H -0.030751 1.991320 2.731219 0
M  V30 37 H 1.247636 3.058515 3.293762 0
M  V30 38 H -0.949103 5.597551 3.560114 0
M  V30 39 H 0.018284 4.234134 4.319513 0
M  V30 40 H -1.691588 4.005650 3.799434 0
M  V30 END ATOM
M  V30 BEGIN BOND
M  V30 1 1 1 2
M  V30 2 1 2 3
M  V30 3 2 3 4
M  V30 4 1 4 5
M  V30 5 2 5 6
M  V30 6 1 6 7
M  V30 7 1 7 8
M  V30 8 2 8 9
M  V30 9 1 9 10
M  V30 10 2 10 11
M  V30 11 1 11 12
M  V30 12 2 12 13
M  V30 13 1 12 14
M  V30 14 1 14 15
M  V30 15 1 15 16
M  V30 16 1 16 17
M  V30 17 1 17 18
M  V30 18 1 17 19
M  V30 19 1 11 20
M  V30 20 2 7 21
M  V30 21 1 21 3
M  V30 22 1 20 8
M  V30 23 1 1 22
M  V30 24 1 1 23
M  V30 25 1 1 24
M  V30 26 1 2 25
M  V30 27 1 5 26
M  V30 28 1 6 27
M  V30 29 1 9 28
M  V30 30 1 10 29
M  V30 31 1 14 30
M  V30 32 1 15 31
M  V30 33 1 15 32
M  V30 34 1 16 33
M  V30 35 1 16 34
M  V30 36 1 18 35
M  V30 37 1 18 36
M  V30 38 1 18 37
M  V30 39 1 19 38
M  V30 40 1 19 39
M  V30 41 1 19 40
M  V30 END BOND
M  V30 END CTAB
M  END
>  <Dataset>  (395) 
ChEMBL_Kinases

>  <Ligand_Instance>  (395) 
nan

>  <PDB_ID>  (395) 
nan

>  <Standardized_SMILES>  (395) 
CNc1nccc(-c2ccc(C(=O)NCCN(C)C)s2)n1

>  <Name>  (395) 
nan

>  <Pocket>  (395) 
nan

>  <ATP_Site>  (395) 
nan

>  <Peripheral>  (395) 
nan

>  <Num_H_Atoms_ProtBoundConf>  (395) 
nan

>  <Num_Resolved_Atoms>  (395) 
nan

>  <Num_Not_Resolved_Atoms>  (395) 
nan

$$$$
CHEMBL3702305
     RDKit          3D

  0  0  0  0  0  0  0  0  0  0999 V3000
M  V30 BEGIN CTAB
M  V30 COUNTS 60 62 0 0 0
M  V30 BEGIN ATOM
M  V30 1 C 0.206588 -1.164296 0.752813 0
M  V30 2 C -0.200546 -0.046422 1.631772 0
M  V30 3 C 0.678035 0.962451 1.694321 0
M  V30 4 C 1.961209 1.401016 1.173998 0
M  V30 5 O 2.404293 2.543305 1.565544 0
M  V30 6 N 2.888659 0.848203 0.295309 0
M  V30 7 C 4.129821 1.038339 -0.366509 0
M  V30 8 C 4.185318 2.150876 -1.365910 0
M  V30 9 C 3.894134 3.525245 -0.919859 0
M  V30 10 N 4.071776 4.428718 -2.066361 0
M  V30 11 C 3.793397 5.785623 -1.708608 0
M  V30 12 C 3.417080 3.942651 -3.235084 0
M  V30 13 S -0.053133 2.130163 2.804197 0
M  V30 14 C -1.558823 1.205512 3.161400 0
M  V30 15 N -2.661215 1.386916 3.907653 0
M  V30 16 C -3.646481 0.479373 3.951395 0
M  V30 17 N -3.455726 -0.600063 3.212086 0
M  V30 18 C -2.388002 -0.827937 2.460169 0
M  V30 19 N -2.549627 -2.070174 1.810966 0
M  V30 20 C -2.433872 -3.440742 2.232848 0
M  V30 21 C -2.126481 -3.623803 3.563952 0
M  V30 22 C -1.997699 -4.903759 4.079072 0
M  V30 23 C -2.197424 -5.941872 3.172938 0
M  V30 24 C -2.079974 -7.279209 3.654894 0
M  V30 25 N -1.984908 -8.363670 4.067666 0
M  V30 26 C -2.501281 -5.718650 1.855979 0
M  V30 27 C -2.634551 -4.461372 1.319287 0
M  V30 28 O -2.925246 -4.021832 0.056571 0
M  V30 29 C -3.156881 -4.907867 -0.998896 0
M  V30 30 C -2.088475 -4.763698 -2.083666 0
M  V30 31 F -2.074511 -3.485824 -2.602067 0
M  V30 32 C -4.474979 -4.609711 -1.731470 0
M  V30 33 F -4.460688 -3.327136 -2.260482 0
M  V30 34 C -1.340362 0.057612 2.367262 0
M  V30 35 H 1.157698 -1.643666 1.140689 0
M  V30 36 H 0.278760 -0.848722 -0.308757 0
M  V30 37 H -0.488675 -2.023872 0.727754 0
M  V30 38 H 2.465088 -0.095691 0.020929 0
M  V30 39 H 4.426580 0.116134 -0.928266 0
M  V30 40 H 4.947755 1.275868 0.387126 0
M  V30 41 H 5.247920 2.144653 -1.776448 0
M  V30 42 H 3.585324 1.906090 -2.290897 0
M  V30 43 H 2.777998 3.629199 -0.731548 0
M  V30 44 H 4.408485 3.837497 -0.024676 0
M  V30 45 H 3.028860 6.178798 -2.380289 0
M  V30 46 H 3.339884 5.790189 -0.675974 0
M  V30 47 H 4.663971 6.470387 -1.725936 0
M  V30 48 H 3.152122 4.808581 -3.895504 0
M  V30 49 H 2.442099 3.492856 -2.935864 0
M  V30 50 H 4.015343 3.203174 -3.806678 0
M  V30 51 H -4.433773 0.815655 4.603521 0
M  V30 52 H -2.814787 -1.772976 0.844347 0
M  V30 53 H -1.980829 -2.786958 4.230489 0
M  V30 54 H -1.757918 -5.014550 5.120106 0
M  V30 55 H -2.652627 -6.534350 1.167805 0
M  V30 56 H -3.197867 -5.939785 -0.631114 0
M  V30 57 H -1.098563 -5.115775 -1.736692 0
M  V30 58 H -2.392934 -5.453557 -2.916448 0
M  V30 59 H -4.482457 -5.316268 -2.603774 0
M  V30 60 H -5.320209 -4.795838 -1.062213 0
M  V30 END ATOM
M  V30 BEGIN BOND
M  V30 1 1 1 2
M  V30 2 2 2 3
M  V30 3 1 3 4
M  V30 4 2 4 5
M  V30 5 1 4 6
M  V30 6 1 6 7
M  V30 7 1 7 8
M  V30 8 1 8 9
M  V30 9 1 9 10
M  V30 10 1 10 11
M  V30 11 1 10 12
M  V30 12 1 3 13
M  V30 13 1 13 14
M  V30 14 2 14 15
M  V30 15 1 15 16
M  V30 16 2 16 17
M  V30 17 1 17 18
M  V30 18 1 18 19
M  V30 19 1 19 20
M  V30 20 2 20 21
M  V30 21 1 21 22
M  V30 22 2 22 23
M  V30 23 1 23 24
M  V30 24 3 24 25
M  V30 25 1 23 26
M  V30 26 2 26 27
M  V30 27 1 27 28
M  V30 28 1 28 29
M  V30 29 1 29 30
M  V30 30 1 30 31
M  V30 31 1 29 32
M  V30 32 1 32 33
M  V30 33 2 18 34
M  V30 34 1 34 2
M  V30 35 1 34 14
M  V30 36 1 27 20
M  V30 37 1 1 35
M  V30 38 1 1 36
M  V30 39 1 1 37
M  V30 40 1 6 38
M  V30 41 1 7 39
M  V30 42 1 7 40
M  V30 43 1 8 41
M  V30 44 1 8 42
M  V30 45 1 9 43
M  V30 46 1 9 44
M  V30 47 1 11 45
M  V30 48 1 11 46
M  V30 49 1 11 47
M  V30 50 1 12 48
M  V30 51 1 12 49
M  V30 52 1 12 50
M  V30 53 1 16 51
M  V30 54 1 19 52
M  V30 55 1 21 53
M  V30 56 1 22 54
M  V30 57 1 26 55
M  V30 58 1 29 56
M  V30 59 1 30 57
M  V30 60 1 30 58
M  V30 61 1 32 59
M  V30 62 1 32 60
M  V30 END BOND
M  V30 END CTAB
M  END
>  <Dataset>  (396) 
ChEMBL_Kinases

>  <Ligand_Instance>  (396) 
nan

>  <PDB_ID>  (396) 
nan

>  <Standardized_SMILES>  (396) 
Cc1c(C(=O)NCCCN(C)C)sc2ncnc(Nc3ccc(C#N)cc3OC(CF)CF)c12

>  <Name>  (396) 
nan

>  <Pocket>  (396) 
nan

>  <ATP_Site>  (396) 
nan

>  <Peripheral>  (396) 
nan

>  <Num_H_Atoms_ProtBoundConf>  (396) 
nan

>  <Num_Resolved_Atoms>  (396) 
nan

>  <Num_Not_Resolved_Atoms>  (396) 
nan

$$$$
CHEMBL377841
     RDKit          3D

  0  0  0  0  0  0  0  0  0  0999 V3000
M  V30 BEGIN CTAB
M  V30 COUNTS 41 44 0 0 0
M  V30 BEGIN ATOM
M  V30 1 C 0.780735 -5.047054 2.724949 0
M  V30 2 C 1.060104 -3.569042 2.512913 0
M  V30 3 N 0.597849 -3.138016 1.225377 0
M  V30 4 C -0.870719 -3.165153 1.150520 0
M  V30 5 C 1.250225 -2.694576 0.016858 0
M  V30 6 N 1.621506 -3.457293 -1.043392 0
M  V30 7 N 2.193063 -2.670518 -1.954762 0
M  V30 8 C 2.182078 -1.400453 -1.464180 0
M  V30 9 C 2.679704 -0.269595 -2.092043 0
M  V30 10 C 2.570699 0.928456 -1.418356 0
M  V30 11 C 1.976560 0.919079 -0.173227 0
M  V30 12 C 1.787361 2.115776 0.664302 0
M  V30 13 O 2.715638 2.927000 1.127722 0
M  V30 14 C 2.219258 3.887929 1.833115 0
M  V30 15 N 0.864012 3.723430 1.853127 0
M  V30 16 C 0.572225 2.614001 1.124085 0
M  V30 17 C -0.739522 2.042923 0.862929 0
M  V30 18 C -1.429740 1.866429 -0.321217 0
M  V30 19 C -2.681233 1.289166 -0.295379 0
M  V30 20 C -3.280497 0.875913 0.873336 0
M  V30 21 C -2.596146 1.047224 2.080117 0
M  V30 22 C -1.344238 1.624252 2.055588 0
M  V30 23 C 1.486217 -0.231270 0.431020 0
M  V30 24 N 1.595824 -1.409608 -0.236203 0
M  V30 25 H 0.923223 -5.310346 3.794940 0
M  V30 26 H -0.300785 -5.189104 2.509689 0
M  V30 27 H 1.393200 -5.662619 2.036260 0
M  V30 28 H 2.144375 -3.419055 2.684409 0
M  V30 29 H 0.479985 -3.021122 3.307169 0
M  V30 30 H -1.264583 -2.559586 0.321632 0
M  V30 31 H -1.332142 -2.774847 2.086172 0
M  V30 32 H -1.185519 -4.219105 0.944679 0
M  V30 33 H 3.133954 -0.312171 -3.065209 0
M  V30 34 H 2.924688 1.870708 -1.810746 0
M  V30 35 H 2.701104 4.710352 2.347841 0
M  V30 36 H -0.865652 2.227090 -1.166373 0
M  V30 37 H -3.159304 1.183585 -1.267753 0
M  V30 38 H -4.254798 0.429338 0.872044 0
M  V30 39 H -3.100230 0.710339 2.962641 0
M  V30 40 H -0.914003 1.703042 3.066275 0
M  V30 41 H 1.018360 -0.271549 1.394212 0
M  V30 END ATOM
M  V30 BEGIN BOND
M  V30 1 1 1 2
M  V30 2 1 2 3
M  V30 3 1 3 4
M  V30 4 1 3 5
M  V30 5 2 5 6
M  V30 6 1 6 7
M  V30 7 2 7 8
M  V30 8 1 8 9
M  V30 9 2 9 10
M  V30 10 1 10 11
M  V30 11 1 11 12
M  V30 12 1 12 13
M  V30 13 1 13 14
M  V30 14 2 14 15
M  V30 15 1 15 16
M  V30 16 1 16 17
M  V30 17 2 17 18
M  V30 18 1 18 19
M  V30 19 2 19 20
M  V30 20 1 20 21
M  V30 21 2 21 22
M  V30 22 2 11 23
M  V30 23 1 23 24
M  V30 24 1 24 5
M  V30 25 1 24 8
M  V30 26 2 16 12
M  V30 27 1 22 17
M  V30 28 1 1 25
M  V30 29 1 1 26
M  V30 30 1 1 27
M  V30 31 1 2 28
M  V30 32 1 2 29
M  V30 33 1 4 30
M  V30 34 1 4 31
M  V30 35 1 4 32
M  V30 36 1 9 33
M  V30 37 1 10 34
M  V30 38 1 14 35
M  V30 39 1 18 36
M  V30 40 1 19 37
M  V30 41 1 20 38
M  V30 42 1 21 39
M  V30 43 1 22 40
M  V30 44 1 23 41
M  V30 END BOND
M  V30 END CTAB
M  END
>  <Dataset>  (397) 
ChEMBL_Kinases

>  <Ligand_Instance>  (397) 
nan

>  <PDB_ID>  (397) 
nan

>  <Standardized_SMILES>  (397) 
CCN(C)c1nnc2ccc(-c3ocnc3-c3ccccc3)cn12

>  <Name>  (397) 
nan

>  <Pocket>  (397) 
nan

>  <ATP_Site>  (397) 
nan

>  <Peripheral>  (397) 
nan

>  <Num_H_Atoms_ProtBoundConf>  (397) 
nan

>  <Num_Resolved_Atoms>  (397) 
nan

>  <Num_Not_Resolved_Atoms>  (397) 
nan

$$$$
CHEMBL5083646
     RDKit          3D

  0  0  0  0  0  0  0  0  0  0999 V3000
M  V30 BEGIN CTAB
M  V30 COUNTS 62 66 0 0 0
M  V30 BEGIN ATOM
M  V30 1 C -2.769610 -4.353621 4.077445 0
M  V30 2 O -1.908350 -4.836407 3.069042 0
M  V30 3 C -0.719999 -4.183562 2.774786 0
M  V30 4 C -0.503193 -3.050770 3.569712 0
M  V30 5 C 0.661753 -2.297538 3.374327 0
M  V30 6 C 0.932217 -1.100507 4.200652 0
M  V30 7 C 1.308350 -0.074339 3.453133 0
M  V30 8 S 1.527435 0.064477 1.659261 0
M  V30 9 C 1.198899 1.847840 1.625242 0
M  V30 10 N 0.720301 2.554896 0.658938 0
M  V30 11 C 0.506337 3.953653 0.753043 0
M  V30 12 C 1.385032 4.963783 1.019660 0
M  V30 13 C 0.910927 6.256665 1.048949 0
M  V30 14 C -0.400616 6.613729 0.826624 0
M  V30 15 C -0.868356 8.015121 0.865707 0
M  V30 16 C -1.291564 5.568039 0.554680 0
M  V30 17 C -2.733998 5.915509 0.308553 0
M  V30 18 C -0.841420 4.250056 0.518536 0
M  V30 19 N 1.586397 2.282398 2.907007 0
M  V30 20 C 1.651342 1.270619 3.901078 0
M  V30 21 O 1.986942 1.504826 5.116062 0
M  V30 22 C 1.580767 -2.659726 2.422093 0
M  V30 23 C 1.312442 -3.777711 1.676425 0
M  V30 24 C 0.203325 -4.574457 1.793105 0
M  V30 25 O -0.253121 -5.693473 1.175114 0
M  V30 26 C 0.242863 -6.472875 0.155650 0
M  V30 27 C 0.437423 -5.781015 -1.140272 0
M  V30 28 C 1.562537 -5.205750 -1.681667 0
M  V30 29 C 1.551261 -4.582146 -2.905135 0
M  V30 30 C 0.413478 -4.488294 -3.677059 0
M  V30 31 C 0.450820 -3.855529 -4.893304 0
M  V30 32 C -0.678675 -3.753755 -5.675920 0
M  V30 33 C -1.853669 -4.323660 -5.170956 0
M  V30 34 C -1.878333 -4.962911 -3.936162 0
M  V30 35 C -0.740986 -5.059688 -3.158908 0
M  V30 36 C -0.711142 -5.679013 -1.934174 0
M  V30 37 H -3.725926 -4.907209 4.077313 0
M  V30 38 H -3.043060 -3.272404 3.922719 0
M  V30 39 H -2.326671 -4.434548 5.096478 0
M  V30 40 H -1.153163 -2.675296 4.344359 0
M  V30 41 H 0.854134 -1.004046 5.273408 0
M  V30 42 H 2.382190 4.633929 1.182473 0
M  V30 43 H 1.658773 7.015694 1.266299 0
M  V30 44 H -0.927002 8.466516 -0.155830 0
M  V30 45 H -0.190422 8.580036 1.526122 0
M  V30 46 H -1.874692 8.061116 1.307471 0
M  V30 47 H -3.298490 5.992820 1.255373 0
M  V30 48 H -3.201646 5.150641 -0.342572 0
M  V30 49 H -2.741865 6.923271 -0.150794 0
M  V30 50 H -1.637421 3.538092 0.295755 0
M  V30 51 H 1.808858 3.300824 3.095165 0
M  V30 52 H 2.505856 -2.161048 2.199024 0
M  V30 53 H 1.982698 -4.121681 0.924605 0
M  V30 54 H 1.187964 -7.016649 0.441367 0
M  V30 55 H -0.483808 -7.324769 -0.013977 0
M  V30 56 H 2.441818 -5.300794 -1.059884 0
M  V30 57 H 2.493417 -4.167155 -3.226141 0
M  V30 58 H 1.349781 -3.424896 -5.270847 0
M  V30 59 H -0.619232 -3.249295 -6.629888 0
M  V30 60 H -2.742279 -4.235969 -5.803282 0
M  V30 61 H -2.812933 -5.398759 -3.564965 0
M  V30 62 H -1.665877 -6.085526 -1.637313 0
M  V30 END ATOM
M  V30 BEGIN BOND
M  V30 1 1 1 2
M  V30 2 1 2 3
M  V30 3 2 3 4
M  V30 4 1 4 5
M  V30 5 1 5 6
M  V30 6 2 6 7
M  V30 7 1 7 8
M  V30 8 1 8 9
M  V30 9 2 9 10
M  V30 10 1 10 11
M  V30 11 2 11 12
M  V30 12 1 12 13
M  V30 13 2 13 14
M  V30 14 1 14 15
M  V30 15 1 14 16
M  V30 16 1 16 17
M  V30 17 2 16 18
M  V30 18 1 9 19
M  V30 19 1 19 20
M  V30 20 2 20 21
M  V30 21 2 5 22
M  V30 22 1 22 23
M  V30 23 2 23 24
M  V30 24 1 24 25
M  V30 25 1 25 26
M  V30 26 1 26 27
M  V30 27 2 27 28
M  V30 28 1 28 29
M  V30 29 2 29 30
M  V30 30 1 30 31
M  V30 31 2 31 32
M  V30 32 1 32 33
M  V30 33 2 33 34
M  V30 34 1 34 35
M  V30 35 2 35 36
M  V30 36 1 24 3
M  V30 37 1 36 27
M  V30 38 1 20 7
M  V30 39 1 35 30
M  V30 40 1 18 11
M  V30 41 1 1 37
M  V30 42 1 1 38
M  V30 43 1 1 39
M  V30 44 1 4 40
M  V30 45 1 6 41
M  V30 46 1 12 42
M  V30 47 1 13 43
M  V30 48 1 15 44
M  V30 49 1 15 45
M  V30 50 1 15 46
M  V30 51 1 17 47
M  V30 52 1 17 48
M  V30 53 1 17 49
M  V30 54 1 18 50
M  V30 55 1 19 51
M  V30 56 1 22 52
M  V30 57 1 23 53
M  V30 58 1 26 54
M  V30 59 1 26 55
M  V30 60 1 28 56
M  V30 61 1 29 57
M  V30 62 1 31 58
M  V30 63 1 32 59
M  V30 64 1 33 60
M  V30 65 1 34 61
M  V30 66 1 36 62
M  V30 END BOND
M  V30 END CTAB
M  END
>  <Dataset>  (398) 
ChEMBL_Kinases

>  <Ligand_Instance>  (398) 
nan

>  <PDB_ID>  (398) 
nan

>  <Standardized_SMILES>  (398) 
COc1cc(/C=C2\S/C(=N/c3ccc(C)c(C)c3)NC2=O)ccc1OCc1ccc2ccccc2c1

>  <Name>  (398) 
nan

>  <Pocket>  (398) 
nan

>  <ATP_Site>  (398) 
nan

>  <Peripheral>  (398) 
nan

>  <Num_H_Atoms_ProtBoundConf>  (398) 
nan

>  <Num_Resolved_Atoms>  (398) 
nan

>  <Num_Not_Resolved_Atoms>  (398) 
nan

$$$$
CHEMBL377838
     RDKit          3D

  0  0  0  0  0  0  0  0  0  0999 V3000
M  V30 BEGIN CTAB
M  V30 COUNTS 34 34 0 0 0
M  V30 BEGIN ATOM
M  V30 1 C -2.827205 -3.478069 1.447036 0
M  V30 2 C -1.637887 -3.116294 2.288982 0
M  V30 3 C -0.336223 -3.177231 1.496319 0
M  V30 4 C 0.825586 -2.811611 2.396002 0
M  V30 5 S 0.660662 -1.142185 3.061534 0
M  V30 6 C 0.818256 0.076065 1.768306 0
M  V30 7 N 1.041529 -0.195496 0.444203 0
M  V30 8 C 1.146990 0.850857 -0.429667 0
M  V30 9 N 1.381609 0.431747 -1.790408 0
M  V30 10 C 0.268277 0.190301 -2.636049 0
M  V30 11 C 0.388043 -0.243212 -4.050568 0
M  V30 12 O -0.845202 0.385066 -2.053190 0
M  V30 13 C 1.051281 2.188260 -0.126136 0
M  V30 14 C 0.823026 2.450625 1.229501 0
M  V30 15 N 0.712781 3.829573 1.631195 0
M  V30 16 C 0.709473 1.415256 2.154036 0
M  V30 17 C 0.470841 1.752919 3.549664 0
M  V30 18 N 0.293607 2.035366 4.661708 0
M  V30 19 H -3.415249 -4.311676 1.914925 0
M  V30 20 H -3.482043 -2.579309 1.393795 0
M  V30 21 H -2.571575 -3.785151 0.420439 0
M  V30 22 H -1.534904 -3.887951 3.090965 0
M  V30 23 H -1.722130 -2.105475 2.755359 0
M  V30 24 H -0.425605 -2.542500 0.600285 0
M  V30 25 H -0.196371 -4.221738 1.156043 0
M  V30 26 H 0.871114 -3.542714 3.212626 0
M  V30 27 H 1.758227 -2.864238 1.793593 0
M  V30 28 H 2.346131 0.304887 -2.159280 0
M  V30 29 H -0.626123 -0.616979 -4.373390 0
M  V30 30 H 1.086989 -1.064192 -4.204410 0
M  V30 31 H 0.655587 0.577605 -4.729684 0
M  V30 32 H 1.144868 2.947320 -0.864489 0
M  V30 33 H 1.236145 4.406784 2.303785 0
M  V30 34 H -0.072112 4.299907 1.105214 0
M  V30 END ATOM
M  V30 BEGIN BOND
M  V30 1 1 1 2
M  V30 2 1 2 3
M  V30 3 1 3 4
M  V30 4 1 4 5
M  V30 5 1 5 6
M  V30 6 2 6 7
M  V30 7 1 7 8
M  V30 8 1 8 9
M  V30 9 1 9 10
M  V30 10 1 10 11
M  V30 11 2 10 12
M  V30 12 2 8 13
M  V30 13 1 13 14
M  V30 14 1 14 15
M  V30 15 2 14 16
M  V30 16 1 16 17
M  V30 17 3 17 18
M  V30 18 1 16 6
M  V30 19 1 1 19
M  V30 20 1 1 20
M  V30 21 1 1 21
M  V30 22 1 2 22
M  V30 23 1 2 23
M  V30 24 1 3 24
M  V30 25 1 3 25
M  V30 26 1 4 26
M  V30 27 1 4 27
M  V30 28 1 9 28
M  V30 29 1 11 29
M  V30 30 1 11 30
M  V30 31 1 11 31
M  V30 32 1 13 32
M  V30 33 1 15 33
M  V30 34 1 15 34
M  V30 END BOND
M  V30 END CTAB
M  END
>  <Dataset>  (399) 
ChEMBL_Kinases

>  <Ligand_Instance>  (399) 
nan

>  <PDB_ID>  (399) 
nan

>  <Standardized_SMILES>  (399) 
CCCCSc1nc(NC(C)=O)cc(N)c1C#N

>  <Name>  (399) 
nan

>  <Pocket>  (399) 
nan

>  <ATP_Site>  (399) 
nan

>  <Peripheral>  (399) 
nan

>  <Num_H_Atoms_ProtBoundConf>  (399) 
nan

>  <Num_Resolved_Atoms>  (399) 
nan

>  <Num_Not_Resolved_Atoms>  (399) 
nan

$$$$
CHEMBL377783
     RDKit          3D

  0  0  0  0  0  0  0  0  0  0999 V3000
M  V30 BEGIN CTAB
M  V30 COUNTS 38 39 0 0 0
M  V30 BEGIN ATOM
M  V30 1 C 0.228247 -3.696107 0.265846 0
M  V30 2 C -0.403144 -2.493870 -0.388777 0
M  V30 3 C -1.682841 -2.155946 0.357836 0
M  V30 4 N 0.494032 -1.364858 -0.435719 0
M  V30 5 C 0.820519 -0.844189 -1.561113 0
M  V30 6 N 0.274280 -1.413584 -2.736443 0
M  V30 7 C 1.721569 0.286146 -1.480215 0
M  V30 8 C 2.103155 0.884796 -2.655709 0
M  V30 9 O 1.770734 0.590204 -3.997159 0
M  V30 10 N 2.935724 1.955486 -2.757124 0
M  V30 11 S 3.296191 2.244978 -0.987309 0
M  V30 12 C 2.272422 0.884545 -0.404649 0
M  V30 13 N 2.136737 0.562772 0.947469 0
M  V30 14 C 1.144764 0.469016 1.976999 0
M  V30 15 C 0.817867 -0.636820 2.726988 0
M  V30 16 C -0.184462 -0.521169 3.663735 0
M  V30 17 C -0.864312 0.661135 3.870752 0
M  V30 18 C -1.946720 0.748402 4.890879 0
M  V30 19 F -1.858034 -0.301960 5.767120 0
M  V30 20 F -1.790783 1.933474 5.586965 0
M  V30 21 F -3.198464 0.768260 4.265854 0
M  V30 22 C -0.531818 1.772924 3.114205 0
M  V30 23 C 0.469655 1.679703 2.168337 0
M  V30 24 Cl 0.784099 3.151895 1.286473 0
M  V30 25 H 1.214896 -3.919343 -0.160906 0
M  V30 26 H -0.430348 -4.575017 0.008054 0
M  V30 27 H 0.206226 -3.613847 1.362381 0
M  V30 28 H -0.671457 -2.798451 -1.418877 0
M  V30 29 H -2.170701 -1.322205 -0.186905 0
M  V30 30 H -1.476876 -1.858537 1.401179 0
M  V30 31 H -2.380129 -3.024899 0.275865 0
M  V30 32 H 1.172353 -1.924779 -2.991015 0
M  V30 33 H -0.696730 -1.085519 -2.806117 0
M  V30 34 H 1.012750 1.103417 -4.429840 0
M  V30 35 H 3.001106 0.279194 1.495338 0
M  V30 36 H 1.399631 -1.517486 2.501360 0
M  V30 37 H -0.410969 -1.412333 4.225041 0
M  V30 38 H -1.104451 2.683440 3.321382 0
M  V30 END ATOM
M  V30 BEGIN BOND
M  V30 1 1 1 2
M  V30 2 1 2 3
M  V30 3 1 2 4
M  V30 4 2 4 5
M  V30 5 1 5 6
M  V30 6 1 5 7
M  V30 7 1 7 8
M  V30 8 1 8 9
M  V30 9 2 8 10
M  V30 10 1 10 11
M  V30 11 1 11 12
M  V30 12 1 12 13
M  V30 13 1 13 14
M  V30 14 2 14 15
M  V30 15 1 15 16
M  V30 16 2 16 17
M  V30 17 1 17 18
M  V30 18 1 18 19
M  V30 19 1 18 20
M  V30 20 1 18 21
M  V30 21 1 17 22
M  V30 22 2 22 23
M  V30 23 1 23 24
M  V30 24 2 12 7
M  V30 25 1 23 14
M  V30 26 1 1 25
M  V30 27 1 1 26
M  V30 28 1 1 27
M  V30 29 1 2 28
M  V30 30 1 3 29
M  V30 31 1 3 30
M  V30 32 1 3 31
M  V30 33 1 6 32
M  V30 34 1 6 33
M  V30 35 1 9 34
M  V30 36 1 13 35
M  V30 37 1 15 36
M  V30 38 1 16 37
M  V30 39 1 22 38
M  V30 END BOND
M  V30 END CTAB
M  END
>  <Dataset>  (400) 
ChEMBL_Kinases

>  <Ligand_Instance>  (400) 
nan

>  <PDB_ID>  (400) 
nan

>  <Standardized_SMILES>  (400) 
CC(C)/N=C(\N)c1c(O)nsc1Nc1ccc(C(F)(F)F)cc1Cl

>  <Name>  (400) 
nan

>  <Pocket>  (400) 
nan

>  <ATP_Site>  (400) 
nan

>  <Peripheral>  (400) 
nan

>  <Num_H_Atoms_ProtBoundConf>  (400) 
nan

>  <Num_Resolved_Atoms>  (400) 
nan

>  <Num_Not_Resolved_Atoms>  (400) 
nan

$$$$
CHEMBL377771
     RDKit          3D

  0  0  0  0  0  0  0  0  0  0999 V3000
M  V30 BEGIN CTAB
M  V30 COUNTS 48 51 0 0 0
M  V30 BEGIN ATOM
M  V30 1 N -0.850131 -2.689772 3.781046 0
M  V30 2 C 0.421766 -3.187676 3.253313 0 CFG=2
M  V30 3 C 0.937016 -2.139613 2.296503 0
M  V30 4 O 2.171972 -2.479897 1.699071 0
M  V30 5 C 2.722217 -1.571954 0.803398 0
M  V30 6 C 3.942034 -1.852991 0.180421 0
M  V30 7 N 4.542370 -1.023625 -0.700982 0
M  V30 8 C 3.978143 0.166810 -1.042723 0
M  V30 9 C 2.779726 0.410720 -0.411543 0
M  V30 10 C 2.032550 1.725523 -0.708241 0
M  V30 11 N 1.043342 2.213471 -0.357233 0
M  V30 12 C 0.551560 3.375403 -0.728384 0
M  V30 13 C -0.716456 3.879501 -0.206372 0
M  V30 14 C -1.525740 3.230107 0.703166 0
M  V30 15 C -2.712653 3.760008 1.157394 0
M  V30 16 N -3.142459 4.952707 0.727926 0
M  V30 17 C -2.419297 5.641365 -0.149139 0
M  V30 18 C -1.239503 5.097050 -0.590203 0
M  V30 19 C 1.305183 4.090378 -1.640786 0
M  V30 20 S 2.770854 2.906514 -1.887314 0
M  V30 21 C 2.116096 -0.380102 0.487940 0
M  V30 22 C 0.094142 -4.479272 2.550254 0
M  V30 23 C -0.873032 -4.321909 1.437823 0
M  V30 24 C -2.215286 -4.455404 1.804115 0
M  V30 25 C -3.155082 -4.315129 0.791020 0
M  V30 26 C -2.846175 -4.055097 -0.538726 0
M  V30 27 C -1.511116 -3.930032 -0.861108 0
M  V30 28 C -0.553404 -4.063876 0.121829 0
M  V30 29 H -0.777561 -1.698632 4.085925 0
M  V30 30 H -1.222945 -3.330428 4.508323 0
M  V30 31 H 1.128393 -3.433368 4.056194 0
M  V30 32 H 0.198096 -2.124323 1.447428 0
M  V30 33 H 1.000256 -1.157071 2.805621 0
M  V30 34 H 4.454950 -2.797753 0.409459 0
M  V30 35 H 4.414054 0.861547 -1.737682 0
M  V30 36 H -1.179176 2.246888 1.062262 0
M  V30 37 H -3.315563 3.213138 1.872446 0
M  V30 38 H -2.762826 6.614676 -0.504284 0
M  V30 39 H -0.690629 5.706524 -1.307385 0
M  V30 40 H 1.077111 5.101517 -2.093212 0
M  V30 41 H 1.172436 -0.103618 0.934756 0
M  V30 42 H -0.278495 -5.204444 3.284763 0
M  V30 43 H 1.046570 -4.829666 2.074912 0
M  V30 44 H -2.541169 -4.657848 2.816496 0
M  V30 45 H -4.211070 -4.415258 1.052600 0
M  V30 46 H -3.656059 -3.965950 -1.239405 0
M  V30 47 H -1.241484 -3.727547 -1.888865 0
M  V30 48 H 0.480500 -3.968803 -0.118095 0
M  V30 END ATOM
M  V30 BEGIN BOND
M  V30 1 1 1 2
M  V30 2 1 2 3
M  V30 3 1 3 4
M  V30 4 1 4 5
M  V30 5 2 5 6
M  V30 6 1 6 7
M  V30 7 2 7 8
M  V30 8 1 8 9
M  V30 9 1 9 10
M  V30 10 2 10 11
M  V30 11 1 11 12
M  V30 12 1 12 13
M  V30 13 2 13 14
M  V30 14 1 14 15
M  V30 15 2 15 16
M  V30 16 1 16 17
M  V30 17 2 17 18
M  V30 18 2 12 19
M  V30 19 1 19 20
M  V30 20 2 9 21
M  V30 21 1 2 22
M  V30 22 1 22 23
M  V30 23 2 23 24
M  V30 24 1 24 25
M  V30 25 2 25 26
M  V30 26 1 26 27
M  V30 27 2 27 28
M  V30 28 1 21 5
M  V30 29 1 28 23
M  V30 30 1 20 10
M  V30 31 1 18 13
M  V30 32 1 1 29
M  V30 33 1 1 30
M  V30 34 1 2 31 CFG=1
M  V30 35 1 3 32
M  V30 36 1 3 33
M  V30 37 1 6 34
M  V30 38 1 8 35
M  V30 39 1 14 36
M  V30 40 1 15 37
M  V30 41 1 17 38
M  V30 42 1 18 39
M  V30 43 1 19 40
M  V30 44 1 21 41
M  V30 45 1 22 42
M  V30 46 1 22 43
M  V30 47 1 24 44
M  V30 48 1 25 45
M  V30 49 1 26 46
M  V30 50 1 27 47
M  V30 51 1 28 48
M  V30 END BOND
M  V30 END CTAB
M  END
>  <Dataset>  (401) 
ChEMBL_Kinases

>  <Ligand_Instance>  (401) 
nan

>  <PDB_ID>  (401) 
nan

>  <Standardized_SMILES>  (401) 
N[C@H](COc1cncc(-c2nc(-c3ccncc3)cs2)c1)Cc1ccccc1

>  <Name>  (401) 
nan

>  <Pocket>  (401) 
nan

>  <ATP_Site>  (401) 
nan

>  <Peripheral>  (401) 
nan

>  <Num_H_Atoms_ProtBoundConf>  (401) 
nan

>  <Num_Resolved_Atoms>  (401) 
nan

>  <Num_Not_Resolved_Atoms>  (401) 
nan

$$$$
CHEMBL377764
     RDKit          3D

  0  0  0  0  0  0  0  0  0  0999 V3000
M  V30 BEGIN CTAB
M  V30 COUNTS 56 60 0 0 0
M  V30 BEGIN ATOM
M  V30 1 C 1.716694 -6.315221 4.134482 0
M  V30 2 C 2.306741 -5.158680 4.178998 0
M  V30 3 C 2.112999 -4.319427 3.020351 0
M  V30 4 C 2.690541 -3.086163 2.980348 0
M  V30 5 C 2.514021 -2.284987 1.848160 0
M  V30 6 C 3.085951 -1.043645 1.771238 0
M  V30 7 C 2.896648 -0.297624 0.654132 0
M  V30 8 C 3.550485 0.931426 0.330059 0
M  V30 9 C 4.168334 2.099854 0.020972 0
M  V30 10 N 3.958462 3.390517 -0.202654 0
M  V30 11 C 2.716237 3.926702 -0.139550 0
M  V30 12 C 1.729518 3.007934 0.174865 0
M  V30 13 O 0.483807 3.581187 0.252221 0
M  V30 14 C -0.746732 3.050687 0.514041 0
M  V30 15 C -1.409462 2.135130 -0.431796 0 CFG=1
M  V30 16 N -0.752062 0.988117 -0.902278 0
M  V30 17 C -2.691200 1.641361 0.277885 0
M  V30 18 C -3.486899 0.698305 -0.477458 0
M  V30 19 C -4.636097 1.054390 -1.188519 0
M  V30 20 N -5.159833 -0.034036 -1.767550 0
M  V30 21 C -4.404975 -1.130258 -1.471662 0
M  V30 22 C -4.499205 -2.495193 -1.789449 0
M  V30 23 C -3.601634 -3.423559 -1.341170 0
M  V30 24 C -2.552269 -2.958335 -0.526129 0
M  V30 25 C -2.485108 -1.618173 -0.232218 0
M  V30 26 C -3.385412 -0.652807 -0.678607 0
M  V30 27 C 2.245365 1.695601 0.357706 0
M  V30 28 C 2.103459 -0.867293 -0.378207 0
M  V30 29 C 1.496292 -2.101588 -0.379079 0
M  V30 30 C 1.761965 -2.750338 0.794452 0
M  V30 31 C 1.193306 -3.997996 0.869226 0
M  V30 32 N 1.367491 -4.782456 1.978117 0
M  V30 33 H 1.124356 -7.154128 3.788337 0
M  V30 34 H 1.572642 -7.227626 4.698626 0
M  V30 35 H 2.866649 -4.949942 5.071218 0
M  V30 36 H 3.257955 -2.734356 3.802135 0
M  V30 37 H 3.668743 -0.623041 2.554335 0
M  V30 38 H 5.159023 1.546750 -0.005866 0
M  V30 39 H 2.770963 4.959508 -0.358270 0
M  V30 40 H -1.500054 3.906317 0.678242 0
M  V30 41 H -0.785365 2.536620 1.535559 0
M  V30 42 H -1.826103 2.685043 -1.325110 0
M  V30 43 H -1.335088 0.468502 -1.648035 0
M  V30 44 H 0.108308 1.203213 -1.484451 0
M  V30 45 H -2.388561 1.139425 1.232591 0
M  V30 46 H -3.319600 2.495360 0.587809 0
M  V30 47 H -5.041947 2.034948 -1.261267 0
M  V30 48 H -6.005171 -0.040225 -2.338012 0
M  V30 49 H -5.340373 -2.724856 -2.412932 0
M  V30 50 H -3.795223 -4.423389 -1.662188 0
M  V30 51 H -1.865815 -3.696508 -0.198625 0
M  V30 52 H -1.685687 -1.264113 0.391590 0
M  V30 53 H 1.205430 1.264905 0.641197 0
M  V30 54 H 1.974059 -0.227052 -1.276730 0
M  V30 55 H 0.920841 -2.418770 -1.222136 0
M  V30 56 H 0.596093 -4.445885 0.083900 0
M  V30 END ATOM
M  V30 BEGIN BOND
M  V30 1 2 1 2
M  V30 2 1 2 3
M  V30 3 2 3 4
M  V30 4 1 4 5
M  V30 5 2 5 6
M  V30 6 1 6 7
M  V30 7 1 7 8
M  V30 8 2 8 9
M  V30 9 1 9 10
M  V30 10 2 10 11
M  V30 11 1 11 12
M  V30 12 1 12 13
M  V30 13 1 13 14
M  V30 14 1 14 15
M  V30 15 1 15 16
M  V30 16 1 15 17
M  V30 17 1 17 18
M  V30 18 2 18 19
M  V30 19 1 19 20
M  V30 20 1 20 21
M  V30 21 2 21 22
M  V30 22 1 22 23
M  V30 23 2 23 24
M  V30 24 1 24 25
M  V30 25 2 25 26
M  V30 26 2 12 27
M  V30 27 2 7 28
M  V30 28 1 28 29
M  V30 29 2 29 30
M  V30 30 1 30 31
M  V30 31 2 31 32
M  V30 32 1 32 3
M  V30 33 1 30 5
M  V30 34 1 27 8
M  V30 35 1 26 18
M  V30 36 1 26 21
M  V30 37 1 1 33
M  V30 38 1 1 34
M  V30 39 1 2 35
M  V30 40 1 4 36
M  V30 41 1 6 37
M  V30 42 1 9 38
M  V30 43 1 11 39
M  V30 44 1 14 40
M  V30 45 1 14 41
M  V30 46 1 15 42 CFG=3
M  V30 47 1 16 43
M  V30 48 1 16 44
M  V30 49 1 17 45
M  V30 50 1 17 46
M  V30 51 1 19 47
M  V30 52 1 20 48
M  V30 53 1 22 49
M  V30 54 1 23 50
M  V30 55 1 24 51
M  V30 56 1 25 52
M  V30 57 1 27 53
M  V30 58 1 28 54
M  V30 59 1 29 55
M  V30 60 1 31 56
M  V30 END BOND
M  V30 END CTAB
M  END
>  <Dataset>  (402) 
ChEMBL_Kinases

>  <Ligand_Instance>  (402) 
nan

>  <PDB_ID>  (402) 
nan

>  <Standardized_SMILES>  (402) 
C=Cc1cc2cc(-c3cncc(OC[C@@H](N)Cc4c[nH]c5ccccc45)c3)ccc2cn1

>  <Name>  (402) 
nan

>  <Pocket>  (402) 
nan

>  <ATP_Site>  (402) 
nan

>  <Peripheral>  (402) 
nan

>  <Num_H_Atoms_ProtBoundConf>  (402) 
nan

>  <Num_Resolved_Atoms>  (402) 
nan

>  <Num_Not_Resolved_Atoms>  (402) 
nan

$$$$
CHEMBL377757
     RDKit          3D

  0  0  0  0  0  0  0  0  0  0999 V3000
M  V30 BEGIN CTAB
M  V30 COUNTS 40 44 0 0 0
M  V30 BEGIN ATOM
M  V30 1 F 1.368305 -4.251697 3.649059 0
M  V30 2 C 1.609492 -3.695280 2.447542 0
M  V30 3 C 2.515453 -2.646589 2.387025 0
M  V30 4 C 2.828435 -2.016324 1.221399 0
M  V30 5 F 3.680852 -0.998375 1.032394 0
M  V30 6 C 2.228186 -2.422309 0.025510 0
M  V30 7 C 2.386781 -1.926646 -1.329395 0
M  V30 8 N 2.828480 -2.584352 -2.414910 0
M  V30 9 C 2.779639 -1.672644 -3.416769 0
M  V30 10 O 2.324832 -0.515165 -2.942244 0
M  V30 11 C 2.070427 -0.627640 -1.658954 0
M  V30 12 C 1.557928 0.434165 -0.799509 0
M  V30 13 C 2.286455 1.595591 -0.631568 0
M  V30 14 C 1.816070 2.623568 0.188250 0
M  V30 15 C 0.591363 2.451464 0.835500 0
M  V30 16 N -0.144025 3.221026 1.682221 0
M  V30 17 N -1.250434 2.529453 1.988135 0
M  V30 18 C -1.204456 1.364843 1.350881 0
M  V30 19 C -2.254402 0.308738 1.434879 0
M  V30 20 C -3.623013 0.943172 1.319066 0
M  V30 21 C -3.621454 1.067085 2.835448 0
M  V30 22 C -2.623569 -0.070830 2.868810 0
M  V30 23 N -0.054703 1.291693 0.618645 0
M  V30 24 C 0.357498 0.272181 -0.161797 0
M  V30 25 C 1.310883 -3.478771 0.064475 0
M  V30 26 C 1.012688 -4.102816 1.275961 0
M  V30 27 F 0.118939 -5.142799 1.354789 0
M  V30 28 H 3.023772 -2.273979 3.279695 0
M  V30 29 H 3.068909 -1.849264 -4.465401 0
M  V30 30 H 3.236892 1.735424 -1.129992 0
M  V30 31 H 2.347051 3.550248 0.351850 0
M  V30 32 H -2.042839 -0.552209 0.785398 0
M  V30 33 H -4.415277 0.242819 0.944357 0
M  V30 34 H -3.653487 1.927827 0.797267 0
M  V30 35 H -3.237438 2.036948 3.204734 0
M  V30 36 H -4.607395 0.867945 3.307910 0
M  V30 37 H -1.805138 0.060296 3.597968 0
M  V30 38 H -3.173892 -1.018677 2.873531 0
M  V30 39 H -0.202650 -0.624323 -0.292539 0
M  V30 40 H 0.768323 -3.902240 -0.773791 0
M  V30 END ATOM
M  V30 BEGIN BOND
M  V30 1 1 1 2
M  V30 2 2 2 3
M  V30 3 1 3 4
M  V30 4 1 4 5
M  V30 5 2 4 6
M  V30 6 1 6 7
M  V30 7 1 7 8
M  V30 8 2 8 9
M  V30 9 1 9 10
M  V30 10 1 10 11
M  V30 11 1 11 12
M  V30 12 1 12 13
M  V30 13 2 13 14
M  V30 14 1 14 15
M  V30 15 2 15 16
M  V30 16 1 16 17
M  V30 17 2 17 18
M  V30 18 1 18 19
M  V30 19 1 19 20
M  V30 20 1 20 21
M  V30 21 1 21 22
M  V30 22 1 18 23
M  V30 23 1 23 24
M  V30 24 1 6 25
M  V30 25 2 25 26
M  V30 26 1 26 27
M  V30 27 1 26 2
M  V30 28 2 11 7
M  V30 29 2 24 12
M  V30 30 1 23 15
M  V30 31 1 22 19
M  V30 32 1 3 28
M  V30 33 1 9 29
M  V30 34 1 13 30
M  V30 35 1 14 31
M  V30 36 1 19 32
M  V30 37 1 20 33
M  V30 38 1 20 34
M  V30 39 1 21 35
M  V30 40 1 21 36
M  V30 41 1 22 37
M  V30 42 1 22 38
M  V30 43 1 24 39
M  V30 44 1 25 40
M  V30 END BOND
M  V30 END CTAB
M  END
>  <Dataset>  (403) 
ChEMBL_Kinases

>  <Ligand_Instance>  (403) 
nan

>  <PDB_ID>  (403) 
nan

>  <Standardized_SMILES>  (403) 
Fc1cc(F)c(-c2ncoc2-c2ccc3nnc(C4CCC4)n3c2)cc1F

>  <Name>  (403) 
nan

>  <Pocket>  (403) 
nan

>  <ATP_Site>  (403) 
nan

>  <Peripheral>  (403) 
nan

>  <Num_H_Atoms_ProtBoundConf>  (403) 
nan

>  <Num_Resolved_Atoms>  (403) 
nan

>  <Num_Not_Resolved_Atoms>  (403) 
nan

$$$$
CHEMBL3702306
     RDKit          3D

  0  0  0  0  0  0  0  0  0  0999 V3000
M  V30 BEGIN CTAB
M  V30 COUNTS 61 64 0 0 0
M  V30 BEGIN ATOM
M  V30 1 C 1.212952 -1.181843 0.938827 0
M  V30 2 C 0.244115 -0.171754 1.467579 0
M  V30 3 C 0.298377 1.027498 0.900731 0
M  V30 4 C 0.896728 1.815304 -0.128280 0
M  V30 5 O 0.573871 3.043425 -0.296131 0
M  V30 6 N 1.867978 1.533251 -1.120130 0
M  V30 7 C 2.395823 2.397162 -2.108398 0
M  V30 8 C 3.848043 2.779614 -1.886707 0
M  V30 9 C 4.071486 4.063704 -2.703623 0
M  V30 10 N 3.085452 4.163710 -3.704354 0
M  V30 11 C 2.372229 5.356144 -3.874449 0
M  V30 12 C 2.743004 3.021854 -4.452305 0
M  V30 13 C 2.246714 1.917982 -3.536564 0
M  V30 14 S -0.908411 1.969642 1.855544 0
M  V30 15 C -1.397615 0.649793 2.954380 0
M  V30 16 N -2.283294 0.536822 3.973471 0
M  V30 17 C -2.456498 -0.620235 4.627652 0
M  V30 18 N -1.699903 -1.607974 4.190353 0
M  V30 19 C -0.823555 -1.554588 3.205804 0
M  V30 20 N -0.274892 -2.843569 3.030031 0
M  V30 21 C -0.536837 -3.968994 2.177696 0
M  V30 22 C 0.358264 -4.541389 1.312510 0
M  V30 23 C 0.099668 -5.603260 0.491264 0
M  V30 24 C -1.158997 -6.163636 0.516142 0
M  V30 25 C -1.408696 -7.275590 -0.353115 0
M  V30 26 N -1.608070 -8.175487 -1.037676 0
M  V30 27 C -2.101257 -5.598234 1.396098 0
M  V30 28 C -1.805366 -4.504184 2.229501 0
M  V30 29 O -2.876156 -4.252824 2.884729 0
M  V30 30 C -3.964991 -3.996772 3.551406 0
M  V30 31 C -4.524889 -5.223153 4.314962 0
M  V30 32 F -4.812860 -6.222568 3.419649 0
M  V30 33 C -5.166596 -3.560874 2.678153 0
M  V30 34 F -6.265110 -3.312626 3.454846 0
M  V30 35 C -0.609175 -0.391129 2.508751 0
M  V30 36 H 0.893943 -1.689812 0.048984 0
M  V30 37 H 1.456819 -1.930865 1.733945 0
M  V30 38 H 2.228841 -0.719658 0.743460 0
M  V30 39 H 2.232452 0.560189 -1.125532 0
M  V30 40 H 1.848203 3.367518 -2.056120 0
M  V30 41 H 4.569636 2.060755 -2.272021 0
M  V30 42 H 3.951276 3.066481 -0.830623 0
M  V30 43 H 5.128998 4.094896 -3.103903 0
M  V30 44 H 4.006578 4.956096 -2.057280 0
M  V30 45 H 2.605015 5.978761 -4.759644 0
M  V30 46 H 1.274818 5.125155 -3.954213 0
M  V30 47 H 2.438548 5.963854 -2.931739 0
M  V30 48 H 3.607022 2.613202 -5.061083 0
M  V30 49 H 1.915528 3.298916 -5.148473 0
M  V30 50 H 1.154664 1.730945 -3.701239 0
M  V30 51 H 2.849930 0.988014 -3.696333 0
M  V30 52 H -3.192865 -0.545633 5.410578 0
M  V30 53 H 0.538141 -3.035852 3.688388 0
M  V30 54 H 1.365088 -4.165874 1.243169 0
M  V30 55 H 0.853124 -6.010717 -0.171919 0
M  V30 56 H -3.034577 -6.158204 1.287884 0
M  V30 57 H -3.876950 -3.191383 4.332018 0
M  V30 58 H -3.782362 -5.573622 5.049738 0
M  V30 59 H -5.497434 -4.927436 4.805337 0
M  V30 60 H -5.280019 -4.382964 1.955345 0
M  V30 61 H -4.913767 -2.638599 2.128359 0
M  V30 END ATOM
M  V30 BEGIN BOND
M  V30 1 1 1 2
M  V30 2 2 2 3
M  V30 3 1 3 4
M  V30 4 2 4 5
M  V30 5 1 4 6
M  V30 6 1 6 7
M  V30 7 1 7 8
M  V30 8 1 8 9
M  V30 9 1 9 10
M  V30 10 1 10 11
M  V30 11 1 10 12
M  V30 12 1 12 13
M  V30 13 1 3 14
M  V30 14 1 14 15
M  V30 15 2 15 16
M  V30 16 1 16 17
M  V30 17 2 17 18
M  V30 18 1 18 19
M  V30 19 1 19 20
M  V30 20 1 20 21
M  V30 21 2 21 22
M  V30 22 1 22 23
M  V30 23 2 23 24
M  V30 24 1 24 25
M  V30 25 3 25 26
M  V30 26 1 24 27
M  V30 27 2 27 28
M  V30 28 1 28 29
M  V30 29 1 29 30
M  V30 30 1 30 31
M  V30 31 1 31 32
M  V30 32 1 30 33
M  V30 33 1 33 34
M  V30 34 2 19 35
M  V30 35 1 35 2
M  V30 36 1 13 7
M  V30 37 1 35 15
M  V30 38 1 28 21
M  V30 39 1 1 36
M  V30 40 1 1 37
M  V30 41 1 1 38
M  V30 42 1 6 39
M  V30 43 1 7 40
M  V30 44 1 8 41
M  V30 45 1 8 42
M  V30 46 1 9 43
M  V30 47 1 9 44
M  V30 48 1 11 45
M  V30 49 1 11 46
M  V30 50 1 11 47
M  V30 51 1 12 48
M  V30 52 1 12 49
M  V30 53 1 13 50
M  V30 54 1 13 51
M  V30 55 1 17 52
M  V30 56 1 20 53
M  V30 57 1 22 54
M  V30 58 1 23 55
M  V30 59 1 27 56
M  V30 60 1 30 57
M  V30 61 1 31 58
M  V30 62 1 31 59
M  V30 63 1 33 60
M  V30 64 1 33 61
M  V30 END BOND
M  V30 END CTAB
M  END
>  <Dataset>  (404) 
ChEMBL_Kinases

>  <Ligand_Instance>  (404) 
nan

>  <PDB_ID>  (404) 
nan

>  <Standardized_SMILES>  (404) 
Cc1c(C(=O)NC2CCN(C)CC2)sc2ncnc(Nc3ccc(C#N)cc3OC(CF)CF)c12

>  <Name>  (404) 
nan

>  <Pocket>  (404) 
nan

>  <ATP_Site>  (404) 
nan

>  <Peripheral>  (404) 
nan

>  <Num_H_Atoms_ProtBoundConf>  (404) 
nan

>  <Num_Resolved_Atoms>  (404) 
nan

>  <Num_Not_Resolved_Atoms>  (404) 
nan

$$$$
CHEMBL3775935
     RDKit          3D

  0  0  0  0  0  0  0  0  0  0999 V3000
M  V30 BEGIN CTAB
M  V30 COUNTS 52 56 0 0 0
M  V30 BEGIN ATOM
M  V30 1 C 1.444048 -6.878674 5.782249 0
M  V30 2 N 1.324876 -5.856147 4.768487 0
M  V30 3 C 2.224058 -5.123127 4.107970 0
M  V30 4 C 1.559510 -4.265317 3.226950 0
M  V30 5 C 2.051889 -3.278133 2.299178 0
M  V30 6 C 3.190321 -2.494455 2.445857 0
M  V30 7 C 3.594270 -1.565355 1.482505 0
M  V30 8 C 2.876443 -1.377332 0.325607 0
M  V30 9 C 3.159446 -0.464576 -0.796153 0
M  V30 10 C 2.741747 0.915021 -0.488794 0
M  V30 11 N 3.622747 1.909854 -0.232097 0
M  V30 12 N 2.993662 3.052478 -0.009734 0
M  V30 13 C 1.643487 2.893646 -0.103909 0
M  V30 14 C 0.525249 3.686912 0.027820 0
M  V30 15 C -0.714724 3.134841 -0.139115 0
M  V30 16 C -0.871632 1.788980 -0.438974 0
M  V30 17 C -2.224588 1.278529 -0.590019 0
M  V30 18 O -2.314060 0.821965 0.603865 0
M  V30 19 N -3.260670 1.188709 -1.561437 0
M  V30 20 C -3.489467 1.581543 -2.961349 0
M  V30 21 C -4.760143 2.414587 -2.758035 0
M  V30 22 C -5.501570 1.628237 -1.693728 0
M  V30 23 C -4.516408 0.546412 -1.215356 0
M  V30 24 C 0.275731 1.034534 -0.562330 0
M  V30 25 C 1.534394 1.553932 -0.401687 0
M  V30 26 C 1.736913 -2.181149 0.207005 0
M  V30 27 C 1.309717 -3.103643 1.132859 0
M  V30 28 C 0.213548 -4.546523 3.417646 0
M  V30 29 N 0.129320 -5.523389 4.367399 0
M  V30 30 H 2.417506 -6.822076 6.346168 0
M  V30 31 H 0.627973 -6.806045 6.545164 0
M  V30 32 H 1.432066 -7.919985 5.347451 0
M  V30 33 H 3.289864 -5.184296 4.233419 0
M  V30 34 H 3.751654 -2.632493 3.340131 0
M  V30 35 H 4.466300 -0.960478 1.591931 0
M  V30 36 H 2.572379 -0.781418 -1.705938 0
M  V30 37 H 4.247344 -0.498989 -1.092523 0
M  V30 38 H 3.459086 3.964376 0.210038 0
M  V30 39 H 0.669644 4.744305 0.265938 0
M  V30 40 H -1.571529 3.811084 -0.020997 0
M  V30 41 H -2.650908 2.173678 -3.362486 0
M  V30 42 H -3.732942 0.672698 -3.563452 0
M  V30 43 H -4.382507 3.394735 -2.366992 0
M  V30 44 H -5.323787 2.511887 -3.700611 0
M  V30 45 H -6.455671 1.218872 -2.014315 0
M  V30 46 H -5.596889 2.308315 -0.809964 0
M  V30 47 H -4.728934 -0.361982 -1.785675 0
M  V30 48 H -4.647848 0.384751 -0.125366 0
M  V30 49 H 0.118434 0.009466 -0.797768 0
M  V30 50 H 1.101488 -2.114556 -0.688556 0
M  V30 51 H 0.425420 -3.689303 0.975081 0
M  V30 52 H -0.621916 -4.091448 2.920331 0
M  V30 END ATOM
M  V30 BEGIN BOND
M  V30 1 1 1 2
M  V30 2 1 2 3
M  V30 3 2 3 4
M  V30 4 1 4 5
M  V30 5 2 5 6
M  V30 6 1 6 7
M  V30 7 2 7 8
M  V30 8 1 8 9
M  V30 9 1 9 10
M  V30 10 2 10 11
M  V30 11 1 11 12
M  V30 12 1 12 13
M  V30 13 2 13 14
M  V30 14 1 14 15
M  V30 15 2 15 16
M  V30 16 1 16 17
M  V30 17 2 17 18
M  V30 18 1 17 19
M  V30 19 1 19 20
M  V30 20 1 20 21
M  V30 21 1 21 22
M  V30 22 1 22 23
M  V30 23 1 16 24
M  V30 24 2 24 25
M  V30 25 1 8 26
M  V30 26 2 26 27
M  V30 27 1 4 28
M  V30 28 2 28 29
M  V30 29 1 29 2
M  V30 30 1 27 5
M  V30 31 1 25 10
M  V30 32 1 25 13
M  V30 33 1 23 19
M  V30 34 1 1 30
M  V30 35 1 1 31
M  V30 36 1 1 32
M  V30 37 1 3 33
M  V30 38 1 6 34
M  V30 39 1 7 35
M  V30 40 1 9 36
M  V30 41 1 9 37
M  V30 42 1 12 38
M  V30 43 1 14 39
M  V30 44 1 15 40
M  V30 45 1 20 41
M  V30 46 1 20 42
M  V30 47 1 21 43
M  V30 48 1 21 44
M  V30 49 1 22 45
M  V30 50 1 22 46
M  V30 51 1 23 47
M  V30 52 1 23 48
M  V30 53 1 24 49
M  V30 54 1 26 50
M  V30 55 1 27 51
M  V30 56 1 28 52
M  V30 END BOND
M  V30 END CTAB
M  END
>  <Dataset>  (405) 
ChEMBL_Kinases

>  <Ligand_Instance>  (405) 
nan

>  <PDB_ID>  (405) 
nan

>  <Standardized_SMILES>  (405) 
Cn1cc(-c2ccc(Cc3n[nH]c4ccc(C(=O)N5CCCC5)cc34)cc2)cn1

>  <Name>  (405) 
nan

>  <Pocket>  (405) 
nan

>  <ATP_Site>  (405) 
nan

>  <Peripheral>  (405) 
nan

>  <Num_H_Atoms_ProtBoundConf>  (405) 
nan

>  <Num_Resolved_Atoms>  (405) 
nan

>  <Num_Not_Resolved_Atoms>  (405) 
nan

$$$$
CHEMBL377746
     RDKit          3D

  0  0  0  0  0  0  0  0  0  0999 V3000
M  V30 BEGIN CTAB
M  V30 COUNTS 37 39 0 0 0
M  V30 BEGIN ATOM
M  V30 1 C -0.585787 -3.817528 1.220099 0
M  V30 2 C 0.565948 -4.558058 0.600187 0
M  V30 3 C 1.661189 -3.717897 0.056763 0
M  V30 4 C 1.319636 -2.770336 -1.037235 0
M  V30 5 C 0.348165 -1.727683 -0.754447 0
M  V30 6 N -0.938717 -1.763944 -1.138014 0
M  V30 7 N -1.488173 -0.647547 -0.693618 0
M  V30 8 C -2.895891 -0.269726 -0.889083 0
M  V30 9 C -0.618021 0.139181 -0.025043 0
M  V30 10 C 0.582690 -0.539431 -0.050242 0
M  V30 11 C 1.650814 0.037208 0.558140 0
M  V30 12 O 2.749173 -0.561434 0.545366 0
M  V30 13 C 1.488390 1.273932 1.174386 0
M  V30 14 C 2.607943 1.811529 1.776230 0
M  V30 15 C 2.483639 3.055587 2.406397 0
M  V30 16 Cl 3.869248 3.799945 3.193767 0
M  V30 17 C 1.246022 3.666353 2.385451 0
M  V30 18 C 0.113880 3.148715 1.790920 0
M  V30 19 C 0.270815 1.920676 1.178366 0
M  V30 20 N -0.782111 1.342439 0.572723 0
M  V30 21 O -2.011627 1.979955 0.568195 0
M  V30 22 H -0.297727 -2.794337 1.456031 0
M  V30 23 H -1.508233 -3.868664 0.568969 0
M  V30 24 H -0.911190 -4.298447 2.185854 0
M  V30 25 H 1.011435 -5.185733 1.429571 0
M  V30 26 H 0.193509 -5.322845 -0.121041 0
M  V30 27 H 2.513986 -4.397208 -0.247567 0
M  V30 28 H 2.106786 -3.174334 0.946044 0
M  V30 29 H 2.276349 -2.327650 -1.391390 0
M  V30 30 H 0.990571 -3.401236 -1.921856 0
M  V30 31 H -3.452653 -1.150308 -1.227788 0
M  V30 32 H -3.322475 0.064062 0.081276 0
M  V30 33 H -2.971390 0.552936 -1.645983 0
M  V30 34 H 3.552461 1.285518 1.760412 0
M  V30 35 H 1.166110 4.632039 2.878340 0
M  V30 36 H -0.818866 3.691695 1.819371 0
M  V30 37 H -2.568252 1.936150 1.433420 0
M  V30 END ATOM
M  V30 BEGIN BOND
M  V30 1 1 1 2
M  V30 2 1 2 3
M  V30 3 1 3 4
M  V30 4 1 4 5
M  V30 5 2 5 6
M  V30 6 1 6 7
M  V30 7 1 7 8
M  V30 8 1 7 9
M  V30 9 2 9 10
M  V30 10 1 10 11
M  V30 11 2 11 12
M  V30 12 1 11 13
M  V30 13 2 13 14
M  V30 14 1 14 15
M  V30 15 1 15 16
M  V30 16 2 15 17
M  V30 17 1 17 18
M  V30 18 2 18 19
M  V30 19 1 19 20
M  V30 20 1 20 21
M  V30 21 1 10 5
M  V30 22 1 19 13
M  V30 23 1 20 9
M  V30 24 1 1 22
M  V30 25 1 1 23
M  V30 26 1 1 24
M  V30 27 1 2 25
M  V30 28 1 2 26
M  V30 29 1 3 27
M  V30 30 1 3 28
M  V30 31 1 4 29
M  V30 32 1 4 30
M  V30 33 1 8 31
M  V30 34 1 8 32
M  V30 35 1 8 33
M  V30 36 1 14 34
M  V30 37 1 17 35
M  V30 38 1 18 36
M  V30 39 1 21 37
M  V30 END BOND
M  V30 END CTAB
M  END
>  <Dataset>  (406) 
ChEMBL_Kinases

>  <Ligand_Instance>  (406) 
nan

>  <PDB_ID>  (406) 
nan

>  <Standardized_SMILES>  (406) 
CCCCc1nn(C)c2c1c(=O)c1cc(Cl)ccc1n2O

>  <Name>  (406) 
nan

>  <Pocket>  (406) 
nan

>  <ATP_Site>  (406) 
nan

>  <Peripheral>  (406) 
nan

>  <Num_H_Atoms_ProtBoundConf>  (406) 
nan

>  <Num_Resolved_Atoms>  (406) 
nan

>  <Num_Not_Resolved_Atoms>  (406) 
nan

$$$$
CHEMBL377717
     RDKit          3D

  0  0  0  0  0  0  0  0  0  0999 V3000
M  V30 BEGIN CTAB
M  V30 COUNTS 45 49 0 0 0
M  V30 BEGIN ATOM
M  V30 1 C 1.972735 -4.414794 4.245845 0
M  V30 2 C 1.073365 -3.904950 3.165497 0
M  V30 3 C -0.269255 -4.207437 3.279505 0
M  V30 4 C -1.146710 -3.754469 2.297488 0
M  V30 5 C -0.606607 -3.022111 1.260419 0
M  V30 6 C 0.731354 -2.722276 1.149672 0
M  V30 7 C 1.299274 -1.946599 0.051446 0
M  V30 8 N 2.209342 -2.479548 -0.813241 0
M  V30 9 N 2.553499 -1.570877 -1.702128 0
M  V30 10 C 1.892277 -0.420170 -1.460351 0
M  V30 11 C 1.091066 -0.641466 -0.349703 0
M  V30 12 C 0.174481 0.271890 0.332484 0
M  V30 13 C -0.875664 0.714372 -0.480529 0
M  V30 14 C -1.856771 1.579110 -0.047846 0
M  V30 15 C -1.788532 2.021180 1.248366 0
M  V30 16 C -0.759441 1.597783 2.071788 0
M  V30 17 C -0.901929 2.171689 3.318928 0
M  V30 18 C -2.050436 2.965310 3.247951 0
M  V30 19 N -2.550709 2.845800 1.988153 0
M  V30 20 C -3.763922 3.550442 1.562261 0
M  V30 21 C 0.219603 0.730289 1.628382 0
M  V30 22 C 2.255714 0.641955 -2.450552 0
M  V30 23 C 3.223462 -0.063606 -3.359345 0
M  V30 24 C 3.425376 -1.453823 -2.847514 0
M  V30 25 N 1.540803 -3.190919 2.137782 0
M  V30 26 H 2.020089 -5.528593 4.201600 0
M  V30 27 H 3.011456 -4.071562 4.016192 0
M  V30 28 H 1.643640 -4.115417 5.252620 0
M  V30 29 H -0.694395 -4.784170 4.097252 0
M  V30 30 H -2.212115 -3.969921 2.348497 0
M  V30 31 H -1.272266 -2.671074 0.502242 0
M  V30 32 H -0.990940 0.401427 -1.523908 0
M  V30 33 H -2.660522 1.915141 -0.676162 0
M  V30 34 H -0.253773 2.033825 4.177129 0
M  V30 35 H -2.441451 3.556390 4.071112 0
M  V30 36 H -4.215570 3.049037 0.664034 0
M  V30 37 H -4.533254 3.428011 2.372778 0
M  V30 38 H -3.564785 4.599566 1.319732 0
M  V30 39 H 1.050538 0.348328 2.188938 0
M  V30 40 H 1.363459 1.011671 -2.969502 0
M  V30 41 H 2.757135 1.501874 -1.919477 0
M  V30 42 H 2.823429 -0.014816 -4.400679 0
M  V30 43 H 4.188767 0.489824 -3.330873 0
M  V30 44 H 3.226655 -2.215192 -3.630084 0
M  V30 45 H 4.490364 -1.634128 -2.516055 0
M  V30 END ATOM
M  V30 BEGIN BOND
M  V30 1 1 1 2
M  V30 2 2 2 3
M  V30 3 1 3 4
M  V30 4 2 4 5
M  V30 5 1 5 6
M  V30 6 1 6 7
M  V30 7 2 7 8
M  V30 8 1 8 9
M  V30 9 1 9 10
M  V30 10 2 10 11
M  V30 11 1 11 12
M  V30 12 2 12 13
M  V30 13 1 13 14
M  V30 14 2 14 15
M  V30 15 1 15 16
M  V30 16 1 16 17
M  V30 17 2 17 18
M  V30 18 1 18 19
M  V30 19 1 19 20
M  V30 20 2 16 21
M  V30 21 1 10 22
M  V30 22 1 22 23
M  V30 23 1 23 24
M  V30 24 2 6 25
M  V30 25 1 25 2
M  V30 26 1 11 7
M  V30 27 1 21 12
M  V30 28 1 24 9
M  V30 29 1 19 15
M  V30 30 1 1 26
M  V30 31 1 1 27
M  V30 32 1 1 28
M  V30 33 1 3 29
M  V30 34 1 4 30
M  V30 35 1 5 31
M  V30 36 1 13 32
M  V30 37 1 14 33
M  V30 38 1 17 34
M  V30 39 1 18 35
M  V30 40 1 20 36
M  V30 41 1 20 37
M  V30 42 1 20 38
M  V30 43 1 21 39
M  V30 44 1 22 40
M  V30 45 1 22 41
M  V30 46 1 23 42
M  V30 47 1 23 43
M  V30 48 1 24 44
M  V30 49 1 24 45
M  V30 END BOND
M  V30 END CTAB
M  END
>  <Dataset>  (407) 
ChEMBL_Kinases

>  <Ligand_Instance>  (407) 
nan

>  <PDB_ID>  (407) 
nan

>  <Standardized_SMILES>  (407) 
Cc1cccc(-c2nn3c(c2-c2ccc4c(ccn4C)c2)CCC3)n1

>  <Name>  (407) 
nan

>  <Pocket>  (407) 
nan

>  <ATP_Site>  (407) 
nan

>  <Peripheral>  (407) 
nan

>  <Num_H_Atoms_ProtBoundConf>  (407) 
nan

>  <Num_Resolved_Atoms>  (407) 
nan

>  <Num_Not_Resolved_Atoms>  (407) 
nan

$$$$
CHEMBL377711
     RDKit          3D

  0  0  0  0  0  0  0  0  0  0999 V3000
M  V30 BEGIN CTAB
M  V30 COUNTS 65 70 0 0 0
M  V30 BEGIN ATOM
M  V30 1 C 3.777746 -2.651350 2.387775 0
M  V30 2 C 3.643893 -1.202692 2.700362 0
M  V30 3 C 3.950703 -0.745837 3.986673 0
M  V30 4 C 3.818212 0.614833 4.262377 0
M  V30 5 C 3.398139 1.478758 3.295955 0
M  V30 6 C 3.104522 1.001379 2.042970 0
M  V30 7 C 2.630816 1.748390 0.866805 0
M  V30 8 N 3.362452 2.018161 -0.255321 0
M  V30 9 N 2.618011 2.709943 -1.091396 0
M  V30 10 C 1.361647 2.956263 -0.615163 0
M  V30 11 C 1.416139 2.335707 0.609387 0
M  V30 12 C 0.341944 2.239747 1.614206 0
M  V30 13 C 0.220427 2.843690 2.847243 0
M  V30 14 C -0.891106 2.563270 3.611271 0
M  V30 15 C -1.858160 1.695298 3.145521 0
M  V30 16 N -3.007278 1.303331 3.765599 0
M  V30 17 C -3.640000 0.434707 2.926831 0
M  V30 18 N -2.904315 0.288585 1.812457 0
M  V30 19 C -3.031172 -0.465029 0.586935 0
M  V30 20 C -2.377334 -1.817900 0.653868 0
M  V30 21 C -2.583917 -2.443778 -0.722792 0
M  V30 22 N -2.019686 -3.725204 -0.866025 0
M  V30 23 C -2.564551 -4.810635 -0.170125 0
M  V30 24 C -2.951613 -5.998758 -0.992834 0
M  V30 25 C -3.292719 -5.705990 -2.424512 0
M  V30 26 C -2.483375 -4.606943 -3.033805 0
M  V30 27 C -1.445565 -4.042982 -2.109523 0
M  V30 28 C -1.778177 1.060703 1.904348 0
M  V30 29 C -0.643474 1.360612 1.148559 0
M  V30 30 C 0.561351 3.735778 -1.574182 0
M  V30 31 C 1.578017 4.186132 -2.593963 0
M  V30 32 C 2.755867 3.286586 -2.392415 0
M  V30 33 N 3.233668 -0.313643 1.780175 0
M  V30 34 H 3.815747 -3.230439 3.323841 0
M  V30 35 H 4.701981 -2.801114 1.803860 0
M  V30 36 H 2.928134 -3.003016 1.753814 0
M  V30 37 H 4.277365 -1.443900 4.717369 0
M  V30 38 H 4.041329 1.010579 5.234469 0
M  V30 39 H 3.266566 2.532913 3.408502 0
M  V30 40 H 1.059953 3.489827 3.058048 0
M  V30 41 H -0.919878 3.067692 4.555110 0
M  V30 42 H -4.573992 -0.113586 3.016078 0
M  V30 43 H -4.138360 -0.676630 0.484933 0
M  V30 44 H -2.745619 0.116028 -0.301448 0
M  V30 45 H -2.919383 -2.500776 1.359991 0
M  V30 46 H -1.336635 -1.823856 0.984179 0
M  V30 47 H -3.670188 -2.388553 -0.939373 0
M  V30 48 H -2.096549 -1.750577 -1.453253 0
M  V30 49 H -3.461574 -4.434204 0.403324 0
M  V30 50 H -1.861059 -5.122151 0.642698 0
M  V30 51 H -3.856410 -6.452739 -0.538219 0
M  V30 52 H -2.155997 -6.780406 -0.915659 0
M  V30 53 H -4.381243 -5.515500 -2.532512 0
M  V30 54 H -3.090148 -6.637746 -3.009327 0
M  V30 55 H -3.147254 -3.791798 -3.388452 0
M  V30 56 H -1.921795 -4.957259 -3.947870 0
M  V30 57 H -1.002795 -3.158243 -2.644870 0
M  V30 58 H -0.591523 -4.734445 -1.948638 0
M  V30 59 H -0.606125 0.846481 0.175286 0
M  V30 60 H -0.247873 3.130530 -2.022774 0
M  V30 61 H 0.151218 4.620021 -1.022450 0
M  V30 62 H 1.827984 5.263656 -2.460089 0
M  V30 63 H 1.198639 4.034721 -3.648805 0
M  V30 64 H 3.713119 3.835240 -2.523361 0
M  V30 65 H 2.760185 2.430310 -3.126872 0
M  V30 END ATOM
M  V30 BEGIN BOND
M  V30 1 1 1 2
M  V30 2 2 2 3
M  V30 3 1 3 4
M  V30 4 2 4 5
M  V30 5 1 5 6
M  V30 6 1 6 7
M  V30 7 2 7 8
M  V30 8 1 8 9
M  V30 9 1 9 10
M  V30 10 2 10 11
M  V30 11 1 11 12
M  V30 12 2 12 13
M  V30 13 1 13 14
M  V30 14 2 14 15
M  V30 15 1 15 16
M  V30 16 2 16 17
M  V30 17 1 17 18
M  V30 18 1 18 19
M  V30 19 1 19 20
M  V30 20 1 20 21
M  V30 21 1 21 22
M  V30 22 1 22 23
M  V30 23 1 23 24
M  V30 24 1 24 25
M  V30 25 1 25 26
M  V30 26 1 26 27
M  V30 27 1 18 28
M  V30 28 2 28 29
M  V30 29 1 10 30
M  V30 30 1 30 31
M  V30 31 1 31 32
M  V30 32 2 6 33
M  V30 33 1 33 2
M  V30 34 1 11 7
M  V30 35 1 29 12
M  V30 36 1 32 9
M  V30 37 1 28 15
M  V30 38 1 27 22
M  V30 39 1 1 34
M  V30 40 1 1 35
M  V30 41 1 1 36
M  V30 42 1 3 37
M  V30 43 1 4 38
M  V30 44 1 5 39
M  V30 45 1 13 40
M  V30 46 1 14 41
M  V30 47 1 17 42
M  V30 48 1 19 43
M  V30 49 1 19 44
M  V30 50 1 20 45
M  V30 51 1 20 46
M  V30 52 1 21 47
M  V30 53 1 21 48
M  V30 54 1 23 49
M  V30 55 1 23 50
M  V30 56 1 24 51
M  V30 57 1 24 52
M  V30 58 1 25 53
M  V30 59 1 25 54
M  V30 60 1 26 55
M  V30 61 1 26 56
M  V30 62 1 27 57
M  V30 63 1 27 58
M  V30 64 1 29 59
M  V30 65 1 30 60
M  V30 66 1 30 61
M  V30 67 1 31 62
M  V30 68 1 31 63
M  V30 69 1 32 64
M  V30 70 1 32 65
M  V30 END BOND
M  V30 END CTAB
M  END
>  <Dataset>  (408) 
ChEMBL_Kinases

>  <Ligand_Instance>  (408) 
nan

>  <PDB_ID>  (408) 
nan

>  <Standardized_SMILES>  (408) 
Cc1cccc(-c2nn3c(c2-c2ccc4ncn(CCCN5CCCCC5)c4c2)CCC3)n1

>  <Name>  (408) 
nan

>  <Pocket>  (408) 
nan

>  <ATP_Site>  (408) 
nan

>  <Peripheral>  (408) 
nan

>  <Num_H_Atoms_ProtBoundConf>  (408) 
nan

>  <Num_Resolved_Atoms>  (408) 
nan

>  <Num_Not_Resolved_Atoms>  (408) 
nan

$$$$
CHEMBL377690
     RDKit          3D

  0  0  0  0  0  0  0  0  0  0999 V3000
M  V30 BEGIN CTAB
M  V30 COUNTS 60 61 0 0 0
M  V30 BEGIN ATOM
M  V30 1 C -0.376528 -2.293161 5.995390 0
M  V30 2 C 0.309677 -2.157077 4.638513 0
M  V30 3 C 1.802761 -2.086120 4.806575 0
M  V30 4 C 2.495814 -1.959263 3.472901 0
M  V30 5 C 2.033559 -0.716709 2.797502 0
M  V30 6 C 2.713691 -0.519849 1.429622 0
M  V30 7 C 2.130189 0.759558 0.913318 0
M  V30 8 C 2.607879 1.198785 -0.396976 0
M  V30 9 C 1.857893 1.391653 -1.495930 0
M  V30 10 C 0.371490 1.131030 -1.376217 0
M  V30 11 C -0.063825 1.464036 -2.783028 0
M  V30 12 C 0.015008 0.311397 -3.722598 0
M  V30 13 O 1.258623 -0.317301 -3.749176 0
M  V30 14 C -1.419548 2.057950 -2.800795 0
M  V30 15 O -2.431371 1.181693 -2.494943 0
M  V30 16 C -2.753472 0.514770 -1.381874 0
M  V30 17 O -2.208300 0.507225 -0.267772 0
M  V30 18 C -3.931750 -0.383174 -1.375166 0
M  V30 19 C -3.617808 -1.823394 -1.608197 0
M  V30 20 C -2.700597 -2.406928 -0.600878 0
M  V30 21 C -1.323690 -2.360469 -0.855355 0
M  V30 22 C -0.336111 -2.847299 -0.043140 0
M  V30 23 C -0.725448 -3.437708 1.132920 0
M  V30 24 C -2.076789 -3.514803 1.443174 0
M  V30 25 C -3.038911 -3.009036 0.591618 0
M  V30 26 O 0.929465 2.427331 -3.216518 0
M  V30 27 C 2.141053 1.813362 -2.840126 0
M  V30 28 O 3.292462 1.561298 -3.321656 0
M  V30 29 H -0.052457 -1.463819 6.644764 0
M  V30 30 H -1.472795 -2.219854 5.841997 0
M  V30 31 H -0.204955 -3.277696 6.463219 0
M  V30 32 H 0.010264 -3.020152 4.025277 0
M  V30 33 H -0.106475 -1.248487 4.163636 0
M  V30 34 H 2.029788 -1.138562 5.378849 0
M  V30 35 H 2.192380 -2.911886 5.417846 0
M  V30 36 H 2.336615 -2.876240 2.888405 0
M  V30 37 H 3.593619 -1.830909 3.712345 0
M  V30 38 H 0.946368 -0.823004 2.506124 0
M  V30 39 H 2.175370 0.189085 3.385247 0
M  V30 40 H 2.550177 -1.385882 0.777127 0
M  V30 41 H 3.793975 -0.394474 1.658061 0
M  V30 42 H 2.435325 1.556706 1.650280 0
M  V30 43 H 1.022061 0.733422 0.997798 0
M  V30 44 H 3.662225 1.396993 -0.529719 0
M  V30 45 H 0.042539 1.837142 -0.616212 0
M  V30 46 H 0.222491 0.068278 -1.202211 0
M  V30 47 H -0.839771 -0.382910 -3.627222 0
M  V30 48 H -0.105795 0.736380 -4.763854 0
M  V30 49 H 1.470248 -0.649346 -4.656447 0
M  V30 50 H -1.629257 2.633396 -3.745589 0
M  V30 51 H -1.433538 2.873052 -1.985424 0
M  V30 52 H -4.647269 -0.013440 -2.159218 0
M  V30 53 H -4.518078 -0.335554 -0.417378 0
M  V30 54 H -4.584952 -2.374520 -1.640967 0
M  V30 55 H -3.174835 -1.995017 -2.623654 0
M  V30 56 H -1.006709 -1.899103 -1.781352 0
M  V30 57 H 0.698269 -2.760532 -0.332389 0
M  V30 58 H 0.064902 -3.821240 1.769272 0
M  V30 59 H -2.367725 -3.982283 2.372744 0
M  V30 60 H -4.100747 -3.052307 0.802326 0
M  V30 END ATOM
M  V30 BEGIN BOND
M  V30 1 1 1 2
M  V30 2 1 2 3
M  V30 3 1 3 4
M  V30 4 1 4 5
M  V30 5 1 5 6
M  V30 6 1 6 7
M  V30 7 1 7 8
M  V30 8 2 8 9
M  V30 9 1 9 10
M  V30 10 1 10 11
M  V30 11 1 11 12
M  V30 12 1 12 13
M  V30 13 1 11 14
M  V30 14 1 14 15
M  V30 15 1 15 16
M  V30 16 2 16 17
M  V30 17 1 16 18
M  V30 18 1 18 19
M  V30 19 1 19 20
M  V30 20 2 20 21
M  V30 21 1 21 22
M  V30 22 2 22 23
M  V30 23 1 23 24
M  V30 24 2 24 25
M  V30 25 1 11 26
M  V30 26 1 26 27
M  V30 27 2 27 28
M  V30 28 1 27 9
M  V30 29 1 25 20
M  V30 30 1 1 29
M  V30 31 1 1 30
M  V30 32 1 1 31
M  V30 33 1 2 32
M  V30 34 1 2 33
M  V30 35 1 3 34
M  V30 36 1 3 35
M  V30 37 1 4 36
M  V30 38 1 4 37
M  V30 39 1 5 38
M  V30 40 1 5 39
M  V30 41 1 6 40
M  V30 42 1 6 41
M  V30 43 1 7 42
M  V30 44 1 7 43
M  V30 45 1 8 44
M  V30 46 1 10 45
M  V30 47 1 10 46
M  V30 48 1 12 47
M  V30 49 1 12 48
M  V30 50 1 13 49
M  V30 51 1 14 50
M  V30 52 1 14 51
M  V30 53 1 18 52
M  V30 54 1 18 53
M  V30 55 1 19 54
M  V30 56 1 19 55
M  V30 57 1 21 56
M  V30 58 1 22 57
M  V30 59 1 23 58
M  V30 60 1 24 59
M  V30 61 1 25 60
M  V30 END BOND
M  V30 END CTAB
M  END
>  <Dataset>  (409) 
ChEMBL_Kinases

>  <Ligand_Instance>  (409) 
nan

>  <PDB_ID>  (409) 
nan

>  <Standardized_SMILES>  (409) 
CCCCCCC/C=C1\CC(CO)(COC(=O)CCc2ccccc2)OC1=O

>  <Name>  (409) 
nan

>  <Pocket>  (409) 
nan

>  <ATP_Site>  (409) 
nan

>  <Peripheral>  (409) 
nan

>  <Num_H_Atoms_ProtBoundConf>  (409) 
nan

>  <Num_Resolved_Atoms>  (409) 
nan

>  <Num_Not_Resolved_Atoms>  (409) 
nan

$$$$
CHEMBL377687
     RDKit          3D

  0  0  0  0  0  0  0  0  0  0999 V3000
M  V30 BEGIN CTAB
M  V30 COUNTS 65 71 0 0 0
M  V30 BEGIN ATOM
M  V30 1 O 6.583138 -1.178600 7.028228 0
M  V30 2 C 5.499059 -1.311374 6.396301 0
M  V30 3 N 4.304731 -1.933881 6.854265 0
M  V30 4 C 3.339726 -1.854747 5.813345 0
M  V30 5 C 2.043465 -2.317377 5.793996 0
M  V30 6 C 1.240849 -2.154942 4.694047 0
M  V30 7 C 1.685233 -1.513133 3.529008 0
M  V30 8 N 0.877845 -1.324877 2.378209 0
M  V30 9 C 1.090797 -0.730274 1.090991 0 CFG=2
M  V30 10 C 2.132783 -1.401309 0.254152 0
M  V30 11 O 2.340538 -0.825713 -0.972879 0
M  V30 12 C 1.471301 -0.697389 -2.008164 0
M  V30 13 C 2.209575 -0.014344 -2.994681 0
M  V30 14 N 1.723857 0.332282 -4.222691 0
M  V30 15 C 0.438155 0.013062 -4.557230 0
M  V30 16 C -0.309335 -0.655793 -3.613086 0
M  V30 17 C -1.686415 -1.060674 -3.825631 0
M  V30 18 C -2.551665 -0.310363 -4.627398 0
M  V30 19 C -3.863677 -0.730359 -4.810007 0
M  V30 20 C -4.377518 -1.858005 -4.242794 0
M  V30 21 C -3.535041 -2.608730 -3.448736 0
M  V30 22 C -2.231389 -2.195106 -3.264774 0
M  V30 23 C -4.296113 -3.770502 -2.946389 0
M  V30 24 O -3.784454 -4.652325 -2.181914 0
M  V30 25 C -5.641429 -3.642486 -3.504471 0
M  V30 26 O -6.490286 -4.529583 -3.215067 0
M  V30 27 N -5.663501 -2.453359 -4.300433 0
M  V30 28 C 0.187387 -1.001335 -2.378689 0
M  V30 29 C 1.312554 0.785652 1.161788 0
M  V30 30 C 0.114074 1.423487 1.771948 0
M  V30 31 C 0.092187 1.883496 3.095044 0
M  V30 32 N -1.097913 2.420281 3.420301 0
M  V30 33 C -1.854127 2.312436 2.313143 0
M  V30 34 C -3.140908 2.686445 2.060720 0
M  V30 35 C -3.697283 2.462250 0.822431 0
M  V30 36 C -2.970279 1.856534 -0.188894 0
M  V30 37 C -1.659667 1.469278 0.049674 0
M  V30 38 C -1.146492 1.710557 1.292510 0
M  V30 39 C 2.990074 -1.069901 3.603398 0
M  V30 40 C 3.824684 -1.215712 4.691409 0
M  V30 41 C 5.195020 -0.863159 5.042566 0
M  V30 42 O 5.983085 -0.253635 4.258390 0
M  V30 43 H 4.203781 -2.360351 7.799927 0
M  V30 44 H 1.612451 -2.819482 6.631308 0
M  V30 45 H 0.213126 -2.537531 4.716467 0
M  V30 46 H -0.096749 -1.731815 2.554947 0
M  V30 47 H 0.124968 -0.814368 0.550993 0
M  V30 48 H 3.084065 -1.632832 0.779202 0
M  V30 49 H 1.719112 -2.447929 0.048070 0
M  V30 50 H 3.241793 0.369434 -3.026033 0
M  V30 51 H -0.051823 0.235037 -5.493979 0
M  V30 52 H -2.209607 0.596825 -5.108890 0
M  V30 53 H -4.533026 -0.130439 -5.443284 0
M  V30 54 H -1.562795 -2.785260 -2.638117 0
M  V30 55 H -6.522286 -2.169262 -4.790747 0
M  V30 56 H -0.297144 -1.524914 -1.586769 0
M  V30 57 H 2.209139 1.072869 1.697234 0
M  V30 58 H 1.391390 1.087961 0.079800 0
M  V30 59 H 0.927015 1.826606 3.802373 0
M  V30 60 H -1.341366 2.825034 4.350469 0
M  V30 61 H -3.697780 3.162308 2.870352 0
M  V30 62 H -4.728191 2.800720 0.733846 0
M  V30 63 H -3.453983 1.704318 -1.140978 0
M  V30 64 H -1.075462 1.001464 -0.708238 0
M  V30 65 H 3.479684 -0.562972 2.814898 0
M  V30 END ATOM
M  V30 BEGIN BOND
M  V30 1 2 1 2
M  V30 2 1 2 3
M  V30 3 1 3 4
M  V30 4 2 4 5
M  V30 5 1 5 6
M  V30 6 2 6 7
M  V30 7 1 7 8
M  V30 8 1 8 9
M  V30 9 1 9 10
M  V30 10 1 10 11
M  V30 11 1 11 12
M  V30 12 2 12 13
M  V30 13 1 13 14
M  V30 14 2 14 15
M  V30 15 1 15 16
M  V30 16 1 16 17
M  V30 17 2 17 18
M  V30 18 1 18 19
M  V30 19 2 19 20
M  V30 20 1 20 21
M  V30 21 2 21 22
M  V30 22 1 21 23
M  V30 23 2 23 24
M  V30 24 1 23 25
M  V30 25 2 25 26
M  V30 26 1 25 27
M  V30 27 2 16 28
M  V30 28 1 9 29
M  V30 29 1 29 30
M  V30 30 2 30 31
M  V30 31 1 31 32
M  V30 32 1 32 33
M  V30 33 2 33 34
M  V30 34 1 34 35
M  V30 35 2 35 36
M  V30 36 1 36 37
M  V30 37 2 37 38
M  V30 38 1 7 39
M  V30 39 2 39 40
M  V30 40 1 40 41
M  V30 41 2 41 42
M  V30 42 1 41 2
M  V30 43 1 40 4
M  V30 44 1 28 12
M  V30 45 1 38 30
M  V30 46 1 22 17
M  V30 47 1 38 33
M  V30 48 1 27 20
M  V30 49 1 3 43
M  V30 50 1 5 44
M  V30 51 1 6 45
M  V30 52 1 8 46
M  V30 53 1 9 47 CFG=3
M  V30 54 1 10 48
M  V30 55 1 10 49
M  V30 56 1 13 50
M  V30 57 1 15 51
M  V30 58 1 18 52
M  V30 59 1 19 53
M  V30 60 1 22 54
M  V30 61 1 27 55
M  V30 62 1 28 56
M  V30 63 1 29 57
M  V30 64 1 29 58
M  V30 65 1 31 59
M  V30 66 1 32 60
M  V30 67 1 34 61
M  V30 68 1 35 62
M  V30 69 1 36 63
M  V30 70 1 37 64
M  V30 71 1 39 65
M  V30 END BOND
M  V30 END CTAB
M  END
>  <Dataset>  (410) 
ChEMBL_Kinases

>  <Ligand_Instance>  (410) 
nan

>  <PDB_ID>  (410) 
nan

>  <Standardized_SMILES>  (410) 
O=C1Nc2ccc(N[C@H](COc3cncc(-c4ccc5c(c4)C(=O)C(=O)N5)c3)Cc3c[nH]c4ccccc34)cc2C1=O

>  <Name>  (410) 
nan

>  <Pocket>  (410) 
nan

>  <ATP_Site>  (410) 
nan

>  <Peripheral>  (410) 
nan

>  <Num_H_Atoms_ProtBoundConf>  (410) 
nan

>  <Num_Resolved_Atoms>  (410) 
nan

>  <Num_Not_Resolved_Atoms>  (410) 
nan

$$$$
CHEMBL377609
     RDKit          3D

  0  0  0  0  0  0  0  0  0  0999 V3000
M  V30 BEGIN CTAB
M  V30 COUNTS 55 60 0 0 0
M  V30 BEGIN ATOM
M  V30 1 C 0.512969 -2.804887 6.102611 0
M  V30 2 C 0.702556 -1.698626 5.130193 0
M  V30 3 C 1.325129 -0.525188 5.478418 0
M  V30 4 C 1.462975 0.452544 4.523282 0
M  V30 5 C 0.977316 0.222254 3.265693 0
M  V30 6 C 0.347888 -0.897212 2.813646 0
M  V30 7 C -0.135132 -1.074581 1.534608 0
M  V30 8 N 0.083935 -0.049453 0.593226 0
M  V30 9 C 0.301649 0.969337 -0.342330 0 CFG=2
M  V30 10 C 1.618862 0.777765 -1.104283 0
M  V30 11 N 1.950217 2.028626 -1.765203 0
M  V30 12 C 2.577718 2.956831 -0.831331 0
M  V30 13 C 1.863417 2.689621 0.499381 0
M  V30 14 C 0.433517 2.386701 0.203686 0
M  V30 15 C 0.067596 3.299429 -0.993004 0
M  V30 16 C 0.759013 2.707613 -2.226634 0
M  V30 17 C -0.773715 -2.298950 1.269510 0
M  V30 18 C -1.320454 -2.582779 -0.054487 0
M  V30 19 N -1.407008 -1.955635 -1.227802 0
M  V30 20 C -2.005541 -2.608246 -2.191886 0
M  V30 21 C -2.235908 -2.198894 -3.510822 0
M  V30 22 C -2.907750 -3.139902 -4.295229 0
M  V30 23 C -3.304390 -4.362925 -3.801521 0
M  V30 24 C -3.022808 -4.664886 -2.473621 0
M  V30 25 C -2.359371 -3.793176 -1.616150 0
M  V30 26 N -1.933624 -3.735024 -0.348540 0
M  V30 27 C -0.855470 -3.198953 2.299799 0
M  V30 28 O -1.450595 -4.444215 2.201160 0
M  V30 29 N -0.374945 -2.978572 3.503200 0
M  V30 30 C 0.239913 -1.835785 3.813490 0
M  V30 31 H -0.583488 -2.986516 6.227176 0
M  V30 32 H 0.959700 -2.495516 7.063606 0
M  V30 33 H 0.976268 -3.726443 5.708442 0
M  V30 34 H 1.663350 -0.463551 6.495590 0
M  V30 35 H 1.956117 1.363476 4.826956 0
M  V30 36 H 1.119197 1.040779 2.618962 0
M  V30 37 H -0.382540 -0.433185 -0.226267 0
M  V30 38 H -0.453219 1.099819 -1.169932 0
M  V30 39 H 1.442474 0.038484 -1.918801 0
M  V30 40 H 2.453972 0.502215 -0.453464 0
M  V30 41 H 2.387419 3.996883 -1.159554 0
M  V30 42 H 3.655389 2.813772 -0.758885 0
M  V30 43 H 1.963834 3.628681 1.131527 0
M  V30 44 H 2.454231 1.879253 0.960800 0
M  V30 45 H -0.265178 2.626233 0.998474 0
M  V30 46 H -1.015795 3.348057 -1.135590 0
M  V30 47 H 0.416216 4.330359 -0.805187 0
M  V30 48 H 1.132562 3.583755 -2.811397 0
M  V30 49 H 0.130868 2.052331 -2.818009 0
M  V30 50 H -1.926986 -1.254498 -3.884526 0
M  V30 51 H -3.136031 -2.922124 -5.333913 0
M  V30 52 H -3.818745 -5.127256 -4.339115 0
M  V30 53 H -3.326035 -5.634394 -2.046721 0
M  V30 54 H -2.162951 -4.606243 0.172385 0
M  V30 55 H -0.833503 -5.238139 2.315632 0
M  V30 END ATOM
M  V30 BEGIN BOND
M  V30 1 1 1 2
M  V30 2 2 2 3
M  V30 3 1 3 4
M  V30 4 2 4 5
M  V30 5 1 5 6
M  V30 6 2 6 7
M  V30 7 1 7 8
M  V30 8 1 8 9
M  V30 9 1 9 10
M  V30 10 1 10 11
M  V30 11 1 11 12
M  V30 12 1 12 13
M  V30 13 1 13 14
M  V30 14 1 14 15
M  V30 15 1 15 16
M  V30 16 1 7 17
M  V30 17 1 17 18
M  V30 18 2 18 19
M  V30 19 1 19 20
M  V30 20 2 20 21
M  V30 21 1 21 22
M  V30 22 2 22 23
M  V30 23 1 23 24
M  V30 24 2 24 25
M  V30 25 1 25 26
M  V30 26 2 17 27
M  V30 27 1 27 28
M  V30 28 1 27 29
M  V30 29 2 29 30
M  V30 30 1 30 2
M  V30 31 1 30 6
M  V30 32 1 14 9
M  V30 33 1 26 18
M  V30 34 1 16 11
M  V30 35 1 25 20
M  V30 36 1 1 31
M  V30 37 1 1 32
M  V30 38 1 1 33
M  V30 39 1 3 34
M  V30 40 1 4 35
M  V30 41 1 5 36
M  V30 42 1 8 37
M  V30 43 1 9 38 CFG=3
M  V30 44 1 10 39
M  V30 45 1 10 40
M  V30 46 1 12 41
M  V30 47 1 12 42
M  V30 48 1 13 43
M  V30 49 1 13 44
M  V30 50 1 14 45
M  V30 51 1 15 46
M  V30 52 1 15 47
M  V30 53 1 16 48
M  V30 54 1 16 49
M  V30 55 1 21 50
M  V30 56 1 22 51
M  V30 57 1 23 52
M  V30 58 1 24 53
M  V30 59 1 26 54
M  V30 60 1 28 55
M  V30 END BOND
M  V30 END CTAB
M  END
>  <Dataset>  (411) 
ChEMBL_Kinases

>  <Ligand_Instance>  (411) 
nan

>  <PDB_ID>  (411) 
nan

>  <Standardized_SMILES>  (411) 
Cc1cccc2c(N[C@@H]3CN4CCC3CC4)c(-c3nc4ccccc4[nH]3)c(O)nc12

>  <Name>  (411) 
nan

>  <Pocket>  (411) 
nan

>  <ATP_Site>  (411) 
nan

>  <Peripheral>  (411) 
nan

>  <Num_H_Atoms_ProtBoundConf>  (411) 
nan

>  <Num_Resolved_Atoms>  (411) 
nan

>  <Num_Not_Resolved_Atoms>  (411) 
nan

$$$$
CHEMBL377606
     RDKit          3D

  0  0  0  0  0  0  0  0  0  0999 V3000
M  V30 BEGIN CTAB
M  V30 COUNTS 40 43 0 0 0
M  V30 BEGIN ATOM
M  V30 1 C -0.585368 -3.650976 0.887409 0
M  V30 2 C -0.129943 -3.326480 -0.532537 0
M  V30 3 C -1.152675 -2.564005 -1.296782 0
M  V30 4 O -0.030576 -4.594449 -1.156088 0
M  V30 5 C 1.223258 -2.756090 -0.524864 0
M  V30 6 N 2.391051 -3.414858 -0.630141 0
M  V30 7 N 3.415397 -2.599328 -0.584229 0
M  V30 8 C 2.918196 -1.359874 -0.443867 0
M  V30 9 C 3.545544 -0.139551 -0.342814 0
M  V30 10 C 2.799537 1.035462 -0.199236 0
M  V30 11 C 1.405752 0.898273 -0.165266 0
M  V30 12 C 0.716266 2.157450 -0.012853 0
M  V30 13 O 0.733240 3.215148 -0.813928 0
M  V30 14 C -0.031981 4.155348 -0.309846 0
M  V30 15 N -0.574271 3.733829 0.844249 0
M  V30 16 C -0.107945 2.475836 1.038720 0
M  V30 17 C -0.423265 1.607746 2.163502 0
M  V30 18 C -1.781154 1.297297 2.297318 0
M  V30 19 C -2.199891 0.470263 3.341630 0
M  V30 20 F -3.513345 0.137340 3.515435 0
M  V30 21 C -1.276534 -0.049279 4.252724 0
M  V30 22 C 0.051091 0.288445 4.075048 0
M  V30 23 C 0.496374 1.097126 3.061669 0
M  V30 24 F 1.797658 1.434530 2.878984 0
M  V30 25 C 0.857075 -0.344016 -0.271345 0
M  V30 26 N 1.563936 -1.478405 -0.409442 0
M  V30 27 H -1.158627 -4.611667 0.924371 0
M  V30 28 H 0.331672 -3.816444 1.488880 0
M  V30 29 H -1.264159 -2.876659 1.293126 0
M  V30 30 H -1.846747 -2.066230 -0.559251 0
M  V30 31 H -0.757065 -1.879141 -2.056988 0
M  V30 32 H -1.850415 -3.263696 -1.845850 0
M  V30 33 H 0.376086 -4.519623 -2.059203 0
M  V30 34 H 4.639657 -0.130674 -0.379569 0
M  V30 35 H 3.356860 1.960776 -0.125567 0
M  V30 36 H -0.135276 5.099965 -0.840649 0
M  V30 37 H -2.520962 1.674865 1.620270 0
M  V30 38 H -1.639324 -0.681558 5.041939 0
M  V30 39 H 0.766512 -0.110458 4.776586 0
M  V30 40 H -0.202160 -0.354683 -0.235714 0
M  V30 END ATOM
M  V30 BEGIN BOND
M  V30 1 1 1 2
M  V30 2 1 2 3
M  V30 3 1 2 4
M  V30 4 1 2 5
M  V30 5 2 5 6
M  V30 6 1 6 7
M  V30 7 2 7 8
M  V30 8 1 8 9
M  V30 9 2 9 10
M  V30 10 1 10 11
M  V30 11 1 11 12
M  V30 12 1 12 13
M  V30 13 1 13 14
M  V30 14 2 14 15
M  V30 15 1 15 16
M  V30 16 1 16 17
M  V30 17 2 17 18
M  V30 18 1 18 19
M  V30 19 1 19 20
M  V30 20 2 19 21
M  V30 21 1 21 22
M  V30 22 2 22 23
M  V30 23 1 23 24
M  V30 24 2 11 25
M  V30 25 1 25 26
M  V30 26 1 26 5
M  V30 27 1 26 8
M  V30 28 2 16 12
M  V30 29 1 23 17
M  V30 30 1 1 27
M  V30 31 1 1 28
M  V30 32 1 1 29
M  V30 33 1 3 30
M  V30 34 1 3 31
M  V30 35 1 3 32
M  V30 36 1 4 33
M  V30 37 1 9 34
M  V30 38 1 10 35
M  V30 39 1 14 36
M  V30 40 1 18 37
M  V30 41 1 21 38
M  V30 42 1 22 39
M  V30 43 1 25 40
M  V30 END BOND
M  V30 END CTAB
M  END
>  <Dataset>  (412) 
ChEMBL_Kinases

>  <Ligand_Instance>  (412) 
nan

>  <PDB_ID>  (412) 
nan

>  <Standardized_SMILES>  (412) 
CC(C)(O)c1nnc2ccc(-c3ocnc3-c3cc(F)ccc3F)cn12

>  <Name>  (412) 
nan

>  <Pocket>  (412) 
nan

>  <ATP_Site>  (412) 
nan

>  <Peripheral>  (412) 
nan

>  <Num_H_Atoms_ProtBoundConf>  (412) 
nan

>  <Num_Resolved_Atoms>  (412) 
nan

>  <Num_Not_Resolved_Atoms>  (412) 
nan

$$$$
CHEMBL377603
     RDKit          3D

  0  0  0  0  0  0  0  0  0  0999 V3000
M  V30 BEGIN CTAB
M  V30 COUNTS 72 77 0 0 0
M  V30 BEGIN ATOM
M  V30 1 C 2.628869 2.430427 3.550160 0
M  V30 2 C 1.812989 1.542563 2.584891 0
M  V30 3 C 0.389276 2.056064 2.635989 0
M  V30 4 C 1.947064 0.171021 3.218267 0
M  V30 5 C 3.329830 -0.315866 3.348955 0
M  V30 6 C 3.383246 -1.629332 3.850447 0
M  V30 7 C 4.696084 -2.029903 3.918030 0
M  V30 8 C 5.500947 -0.997019 3.468283 0
M  V30 9 N 4.623711 -0.036480 3.157255 0
M  V30 10 C 2.427850 1.643039 1.279040 0
M  V30 11 C 2.558545 2.988074 0.675180 0
M  V30 12 O 2.558516 4.146120 1.188981 0
M  V30 13 N 2.704685 2.864593 -0.747723 0
M  V30 14 C 2.230813 1.524314 -1.021880 0
M  V30 15 C 2.024887 1.096357 -2.341631 0
M  V30 16 C 1.336553 -0.119358 -2.439894 0
M  V30 17 C 0.893727 -0.833721 -1.346614 0
M  V30 18 C 0.181808 -2.098537 -1.556213 0
M  V30 19 C 0.470238 -2.972260 -2.578855 0
M  V30 20 N -0.272054 -4.078150 -2.628258 0
M  V30 21 C -1.256400 -4.400475 -1.779400 0
M  V30 22 C -1.602384 -3.546636 -0.710186 0
M  V30 23 O -2.601613 -4.013068 0.059826 0
M  V30 24 C -3.297207 -3.550915 1.137626 0
M  V30 25 C -4.248313 -2.474674 1.108336 0 CFG=1
M  V30 26 N -4.682712 -2.151694 2.490852 0
M  V30 27 C -4.174149 -1.221982 0.335300 0
M  V30 28 C -4.124488 -1.330439 -1.123145 0
M  V30 29 C -5.077773 -2.265418 -1.586802 0
M  V30 30 N -4.920956 -2.438695 -2.920954 0
M  V30 31 C -3.900898 -1.666174 -3.383586 0
M  V30 32 C -3.307084 -1.371874 -4.586030 0
M  V30 33 C -2.282659 -0.427734 -4.631548 0
M  V30 34 C -1.845610 0.224284 -3.454375 0
M  V30 35 C -2.443376 -0.070765 -2.234607 0
M  V30 36 C -3.457972 -1.016943 -2.276989 0
M  V30 37 C -0.825319 -2.411819 -0.679810 0
M  V30 38 C 1.171245 -0.295521 -0.084782 0
M  V30 39 C 1.843907 0.883252 0.138131 0
M  V30 40 H 3.336934 3.093239 3.018610 0
M  V30 41 H 1.934854 2.967195 4.221156 0
M  V30 42 H 3.245682 1.782613 4.192932 0
M  V30 43 H -0.345821 1.261119 2.916507 0
M  V30 44 H 0.250650 2.840874 3.433266 0
M  V30 45 H 0.072786 2.556252 1.676108 0
M  V30 46 H 1.230152 -0.564793 2.875887 0
M  V30 47 H 1.636605 0.296280 4.340831 0
M  V30 48 H 2.673114 -2.401773 4.198617 0
M  V30 49 H 5.178789 -2.957538 4.243695 0
M  V30 50 H 6.565541 -0.975694 3.386145 0
M  V30 51 H 4.957926 0.884841 2.812990 0
M  V30 52 H 3.510034 1.299762 1.344562 0
M  V30 53 H 3.072759 3.590419 -1.401586 0
M  V30 54 H 2.344237 1.611901 -3.228896 0
M  V30 55 H 1.170460 -0.476078 -3.444110 0
M  V30 56 H 1.258295 -2.719657 -3.262364 0
M  V30 57 H -1.745926 -5.354723 -1.988907 0
M  V30 58 H -3.861801 -4.483755 1.540424 0
M  V30 59 H -2.614133 -3.377131 2.039921 0
M  V30 60 H -5.276178 -2.995879 0.760730 0
M  V30 61 H -4.297639 -2.873220 3.145168 0
M  V30 62 H -4.204975 -1.257483 2.720756 0
M  V30 63 H -5.063257 -0.525909 0.544250 0
M  V30 64 H -3.296502 -0.643262 0.735834 0
M  V30 65 H -5.902274 -2.889267 -1.197975 0
M  V30 66 H -5.394969 -3.013020 -3.655983 0
M  V30 67 H -3.668756 -1.897962 -5.471380 0
M  V30 68 H -1.804489 -0.207710 -5.593885 0
M  V30 69 H -1.054084 0.951556 -3.570127 0
M  V30 70 H -2.105361 0.437673 -1.335042 0
M  V30 71 H -1.105419 -1.771022 0.154084 0
M  V30 72 H 0.791216 -0.910637 0.686152 0
M  V30 END ATOM
M  V30 BEGIN BOND
M  V30 1 1 1 2
M  V30 2 1 2 3
M  V30 3 1 2 4
M  V30 4 1 4 5
M  V30 5 2 5 6
M  V30 6 1 6 7
M  V30 7 2 7 8
M  V30 8 1 8 9
M  V30 9 1 2 10
M  V30 10 1 10 11
M  V30 11 2 11 12
M  V30 12 1 11 13
M  V30 13 1 13 14
M  V30 14 2 14 15
M  V30 15 1 15 16
M  V30 16 2 16 17
M  V30 17 1 17 18
M  V30 18 2 18 19
M  V30 19 1 19 20
M  V30 20 2 20 21
M  V30 21 1 21 22
M  V30 22 1 22 23
M  V30 23 1 23 24
M  V30 24 1 24 25
M  V30 25 1 25 26
M  V30 26 1 25 27
M  V30 27 1 27 28
M  V30 28 2 28 29
M  V30 29 1 29 30
M  V30 30 1 30 31
M  V30 31 2 31 32
M  V30 32 1 32 33
M  V30 33 2 33 34
M  V30 34 1 34 35
M  V30 35 2 35 36
M  V30 36 2 22 37
M  V30 37 1 17 38
M  V30 38 2 38 39
M  V30 39 1 9 5
M  V30 40 1 39 10
M  V30 41 1 39 14
M  V30 42 1 37 18
M  V30 43 1 36 28
M  V30 44 1 36 31
M  V30 45 1 1 40
M  V30 46 1 1 41
M  V30 47 1 1 42
M  V30 48 1 3 43
M  V30 49 1 3 44
M  V30 50 1 3 45
M  V30 51 1 4 46
M  V30 52 1 4 47
M  V30 53 1 6 48
M  V30 54 1 7 49
M  V30 55 1 8 50
M  V30 56 1 9 51
M  V30 57 1 10 52
M  V30 58 1 13 53
M  V30 59 1 15 54
M  V30 60 1 16 55
M  V30 61 1 19 56
M  V30 62 1 21 57
M  V30 63 1 24 58
M  V30 64 1 24 59
M  V30 65 1 25 60 CFG=3
M  V30 66 1 26 61
M  V30 67 1 26 62
M  V30 68 1 27 63
M  V30 69 1 27 64
M  V30 70 1 29 65
M  V30 71 1 30 66
M  V30 72 1 32 67
M  V30 73 1 33 68
M  V30 74 1 34 69
M  V30 75 1 35 70
M  V30 76 1 37 71
M  V30 77 1 38 72
M  V30 END BOND
M  V30 END CTAB
M  END
>  <Dataset>  (413) 
ChEMBL_Kinases

>  <Ligand_Instance>  (413) 
nan

>  <PDB_ID>  (413) 
nan

>  <Standardized_SMILES>  (413) 
CC(C)(Cc1ccc[nH]1)C1C(=O)Nc2ccc(-c3cncc(OC[C@@H](N)Cc4c[nH]c5ccccc45)c3)cc21

>  <Name>  (413) 
nan

>  <Pocket>  (413) 
nan

>  <ATP_Site>  (413) 
nan

>  <Peripheral>  (413) 
nan

>  <Num_H_Atoms_ProtBoundConf>  (413) 
nan

>  <Num_Resolved_Atoms>  (413) 
nan

>  <Num_Not_Resolved_Atoms>  (413) 
nan

$$$$
CHEMBL377597
     RDKit          3D

  0  0  0  0  0  0  0  0  0  0999 V3000
M  V30 BEGIN CTAB
M  V30 COUNTS 39 42 0 0 0
M  V30 BEGIN ATOM
M  V30 1 N 3.335103 -7.945783 0.309728 0
M  V30 2 C 2.355220 -6.978208 0.727412 0
M  V30 3 O 1.490703 -7.420511 1.522090 0
M  V30 4 C 2.405781 -5.607701 0.238758 0
M  V30 5 C 3.385750 -5.174321 -0.639660 0
M  V30 6 N 3.415686 -3.889939 -1.084505 0
M  V30 7 C 2.462044 -3.040912 -0.647572 0
M  V30 8 N 2.240917 -1.724342 -0.914467 0
M  V30 9 C 1.149962 -1.312317 -0.230713 0
M  V30 10 C 0.487257 -0.008249 -0.161895 0
M  V30 11 C 1.234550 1.084070 0.298768 0
M  V30 12 C 0.628939 2.346725 0.376556 0
M  V30 13 C -0.712632 2.474257 -0.011802 0
M  V30 14 O -1.379087 3.714004 0.042347 0
M  V30 15 C -2.067544 4.098278 1.210575 0
M  V30 16 C -2.738046 5.323629 1.292222 0
M  V30 17 C -3.405650 5.653991 2.477520 0
M  V30 18 C -3.404128 4.776805 3.562365 0
M  V30 19 Cl -4.256128 5.216270 5.052893 0
M  V30 20 C -2.728550 3.558500 3.459845 0
M  V30 21 C -2.062822 3.214228 2.296292 0
M  V30 22 C -1.437379 1.384225 -0.465008 0
M  V30 23 C -0.836935 0.127679 -0.543111 0
M  V30 24 N 0.655258 -2.361943 0.485948 0
M  V30 25 C 1.408915 -3.451125 0.278167 0
M  V30 26 C 1.404999 -4.762322 0.712290 0
M  V30 27 H 4.034438 -8.080359 1.092594 0
M  V30 28 H 4.024388 -8.066613 1.104308 0
M  V30 29 H 4.128032 -5.894320 -0.960305 0
M  V30 30 H 4.161845 -3.582095 -1.746062 0
M  V30 31 H 2.272420 0.978184 0.597693 0
M  V30 32 H 1.152098 3.232282 0.724436 0
M  V30 33 H -2.731619 5.996994 0.441299 0
M  V30 34 H -3.931519 6.604369 2.554776 0
M  V30 35 H -2.756469 2.913216 4.327275 0
M  V30 36 H -1.540963 2.263703 2.228799 0
M  V30 37 H -2.489162 1.515956 -0.762812 0
M  V30 38 H -1.400364 -0.735878 -0.898833 0
M  V30 39 H 0.631657 -5.081230 1.397900 0
M  V30 END ATOM
M  V30 BEGIN BOND
M  V30 1 1 1 2
M  V30 2 2 2 3
M  V30 3 1 2 4
M  V30 4 2 4 5
M  V30 5 1 5 6
M  V30 6 1 6 7
M  V30 7 2 7 8
M  V30 8 1 8 9
M  V30 9 1 9 10
M  V30 10 2 10 11
M  V30 11 1 11 12
M  V30 12 2 12 13
M  V30 13 1 13 14
M  V30 14 1 14 15
M  V30 15 2 15 16
M  V30 16 1 16 17
M  V30 17 2 17 18
M  V30 18 1 18 19
M  V30 19 1 18 20
M  V30 20 2 20 21
M  V30 21 1 13 22
M  V30 22 2 22 23
M  V30 23 2 9 24
M  V30 24 1 24 25
M  V30 25 2 25 26
M  V30 26 1 26 4
M  V30 27 1 25 7
M  V30 28 1 23 10
M  V30 29 1 21 15
M  V30 30 1 1 27
M  V30 31 1 1 28
M  V30 32 1 5 29
M  V30 33 1 6 30
M  V30 34 1 11 31
M  V30 35 1 12 32
M  V30 36 1 16 33
M  V30 37 1 17 34
M  V30 38 1 20 35
M  V30 39 1 21 36
M  V30 40 1 22 37
M  V30 41 1 23 38
M  V30 42 1 26 39
M  V30 END BOND
M  V30 END CTAB
M  END
>  <Dataset>  (414) 
ChEMBL_Kinases

>  <Ligand_Instance>  (414) 
nan

>  <PDB_ID>  (414) 
nan

>  <Standardized_SMILES>  (414) 
NC(=O)c1c[nH]c2nc(-c3ccc(Oc4ccc(Cl)cc4)cc3)nc-2c1

>  <Name>  (414) 
nan

>  <Pocket>  (414) 
nan

>  <ATP_Site>  (414) 
nan

>  <Peripheral>  (414) 
nan

>  <Num_H_Atoms_ProtBoundConf>  (414) 
nan

>  <Num_Resolved_Atoms>  (414) 
nan

>  <Num_Not_Resolved_Atoms>  (414) 
nan

$$$$
CHEMBL5083671
     RDKit          3D

  0  0  0  0  0  0  0  0  0  0999 V3000
M  V30 BEGIN CTAB
M  V30 COUNTS 54 57 0 0 0
M  V30 BEGIN ATOM
M  V30 1 N 3.403223 2.984944 7.043916 0
M  V30 2 C 3.609529 1.582945 7.281836 0
M  V30 3 C 4.350524 0.925040 6.161351 0
M  V30 4 N 3.611974 1.033970 4.937883 0
M  V30 5 C 3.161080 2.093113 4.123587 0
M  V30 6 O 3.434988 3.239301 4.483599 0
M  V30 7 C 2.399701 1.929308 2.895477 0
M  V30 8 C 2.042979 3.077201 2.220157 0
M  V30 9 C 1.314570 3.034878 1.035980 0
M  V30 10 C 0.912889 1.838777 0.478731 0
M  V30 11 C 1.270599 0.690002 1.155820 0
M  V30 12 C 1.993091 0.740625 2.329666 0
M  V30 13 C 0.966197 -0.688707 0.772591 0
M  V30 14 O 1.585318 -1.611494 1.385832 0
M  V30 15 C 0.007675 -1.103815 -0.259087 0
M  V30 16 C 0.096392 -2.458316 -0.499511 0
M  V30 17 C -0.755338 -2.974703 -1.451676 0
M  V30 18 C -1.685928 -2.271254 -2.185404 0
M  V30 19 N -2.580583 -2.794090 -3.140135 0
M  V30 20 C -3.288249 -4.010774 -3.241063 0
M  V30 21 C -3.310054 -5.047054 -2.339988 0
M  V30 22 C -4.014834 -6.218747 -2.510231 0
M  V30 23 C -4.748922 -6.388535 -3.638739 0
M  V30 24 C -4.764640 -5.395254 -4.565270 0
M  V30 25 C -4.049783 -4.236681 -4.366027 0
M  V30 26 N -4.141538 -3.253718 -5.415735 0
M  V30 27 C -1.697712 -0.907534 -1.868609 0
M  V30 28 C -0.886667 -0.304194 -0.935379 0
M  V30 29 C -1.126063 1.155560 -0.816390 0
M  V30 30 C 0.151061 1.955772 -0.774417 0
M  V30 31 H 2.364640 3.210689 7.064856 0
M  V30 32 H 3.843806 3.566260 7.790933 0
M  V30 33 H 2.627469 1.043405 7.416362 0
M  V30 34 H 4.223789 1.473538 8.204778 0
M  V30 35 H 5.344074 1.430506 6.022956 0
M  V30 36 H 4.579324 -0.121398 6.420978 0
M  V30 37 H 3.320613 0.092684 4.522844 0
M  V30 38 H 2.300495 4.068860 2.558932 0
M  V30 39 H 1.041819 3.929260 0.518272 0
M  V30 40 H 2.253699 -0.161118 2.828400 0
M  V30 41 H 0.798922 -3.068000 0.036252 0
M  V30 42 H -0.643897 -4.030143 -1.619018 0
M  V30 43 H -2.712187 -2.099592 -3.918381 0
M  V30 44 H -2.756365 -4.952095 -1.434119 0
M  V30 45 H -3.986430 -6.994339 -1.758505 0
M  V30 46 H -5.311951 -7.300950 -3.796435 0
M  V30 47 H -5.350968 -5.538675 -5.458933 0
M  V30 48 H -3.878204 -3.621956 -6.363435 0
M  V30 49 H -4.426135 -2.235049 -5.393305 0
M  V30 50 H -2.385105 -0.248957 -2.377904 0
M  V30 51 H -1.672172 1.335701 0.113262 0
M  V30 52 H -1.717217 1.521292 -1.683611 0
M  V30 53 H 0.811682 1.552746 -1.583676 0
M  V30 54 H -0.040221 3.007312 -1.001569 0
M  V30 END ATOM
M  V30 BEGIN BOND
M  V30 1 1 1 2
M  V30 2 1 2 3
M  V30 3 1 3 4
M  V30 4 1 4 5
M  V30 5 2 5 6
M  V30 6 1 5 7
M  V30 7 2 7 8
M  V30 8 1 8 9
M  V30 9 2 9 10
M  V30 10 1 10 11
M  V30 11 2 11 12
M  V30 12 1 11 13
M  V30 13 2 13 14
M  V30 14 1 13 15
M  V30 15 2 15 16
M  V30 16 1 16 17
M  V30 17 2 17 18
M  V30 18 1 18 19
M  V30 19 1 19 20
M  V30 20 2 20 21
M  V30 21 1 21 22
M  V30 22 2 22 23
M  V30 23 1 23 24
M  V30 24 2 24 25
M  V30 25 1 25 26
M  V30 26 1 18 27
M  V30 27 2 27 28
M  V30 28 1 28 29
M  V30 29 1 29 30
M  V30 30 1 12 7
M  V30 31 1 28 15
M  V30 32 1 30 10
M  V30 33 1 25 20
M  V30 34 1 1 31
M  V30 35 1 1 32
M  V30 36 1 2 33
M  V30 37 1 2 34
M  V30 38 1 3 35
M  V30 39 1 3 36
M  V30 40 1 4 37
M  V30 41 1 8 38
M  V30 42 1 9 39
M  V30 43 1 12 40
M  V30 44 1 16 41
M  V30 45 1 17 42
M  V30 46 1 19 43
M  V30 47 1 21 44
M  V30 48 1 22 45
M  V30 49 1 23 46
M  V30 50 1 24 47
M  V30 51 1 26 48
M  V30 52 1 26 49
M  V30 53 1 27 50
M  V30 54 1 29 51
M  V30 55 1 29 52
M  V30 56 1 30 53
M  V30 57 1 30 54
M  V30 END BOND
M  V30 END CTAB
M  END
>  <Dataset>  (415) 
ChEMBL_Kinases

>  <Ligand_Instance>  (415) 
nan

>  <PDB_ID>  (415) 
nan

>  <Standardized_SMILES>  (415) 
NCCNC(=O)c1ccc2c(c1)C(=O)c1ccc(Nc3ccccc3N)cc1CC2

>  <Name>  (415) 
nan

>  <Pocket>  (415) 
nan

>  <ATP_Site>  (415) 
nan

>  <Peripheral>  (415) 
nan

>  <Num_H_Atoms_ProtBoundConf>  (415) 
nan

>  <Num_Resolved_Atoms>  (415) 
nan

>  <Num_Not_Resolved_Atoms>  (415) 
nan

$$$$
CHEMBL5083681
     RDKit          3D

  0  0  0  0  0  0  0  0  0  0999 V3000
M  V30 BEGIN CTAB
M  V30 COUNTS 41 44 0 0 0
M  V30 BEGIN ATOM
M  V30 1 N 0.181610 -4.643839 2.272610 0
M  V30 2 C 0.624874 -3.316922 1.966549 0
M  V30 3 C 0.960996 -2.961699 0.692138 0
M  V30 4 C 1.370716 -1.648455 0.549871 0
M  V30 5 C 1.753113 -1.205456 -0.797542 0
M  V30 6 C 2.729332 -0.238396 -0.872695 0
M  V30 7 C 3.109776 0.188111 -2.118156 0
M  V30 8 C 2.501148 -0.367501 -3.224276 0
M  V30 9 O 2.723362 -0.096823 -4.504588 0
M  V30 10 C 1.945122 -0.834476 -5.261473 0
M  V30 11 C 1.136302 -1.664097 -4.484381 0
M  V30 12 C 1.513978 -1.343190 -3.191953 0
M  V30 13 C 1.164973 -1.739361 -1.928043 0
M  V30 14 C 1.428635 -0.768839 1.638154 0
M  V30 15 C 1.067566 -1.205390 2.918931 0
M  V30 16 N 1.186452 -0.167668 3.883453 0
M  V30 17 C -0.129638 0.436390 4.086624 0
M  V30 18 C -0.735003 0.970359 2.820959 0
M  V30 19 C -2.068960 1.587778 3.032656 0
M  V30 20 C -2.339096 2.890512 3.327870 0
M  V30 21 C -3.674722 3.278752 3.481665 0
M  V30 22 S -4.681955 1.700394 3.194660 0
M  V30 23 C -3.294065 0.674814 2.900804 0
M  V30 24 N 0.670127 -2.485778 3.051047 0
M  V30 25 H 0.800102 -5.184534 2.917008 0
M  V30 26 H -0.587396 -5.325095 2.078573 0
M  V30 27 H 0.905069 -3.658326 -0.117604 0
M  V30 28 H 3.229846 0.221513 -0.051130 0
M  V30 29 H 3.879428 0.952684 -2.255785 0
M  V30 30 H 1.873665 -0.861550 -6.345197 0
M  V30 31 H 0.392373 -2.388908 -4.717126 0
M  V30 32 H 0.400868 -2.497929 -1.799214 0
M  V30 33 H 1.768799 0.236997 1.383137 0
M  V30 34 H 2.103882 0.081050 4.345322 0
M  V30 35 H -0.806226 -0.281045 4.601948 0
M  V30 36 H 0.026852 1.267675 4.809604 0
M  V30 37 H -0.828158 0.070350 2.141750 0
M  V30 38 H -0.046678 1.656098 2.293142 0
M  V30 39 H -1.524110 3.575517 3.433149 0
M  V30 40 H -3.948947 4.340048 3.723719 0
M  V30 41 H -3.231177 -0.339814 2.678906 0
M  V30 END ATOM
M  V30 BEGIN BOND
M  V30 1 1 1 2
M  V30 2 2 2 3
M  V30 3 1 3 4
M  V30 4 1 4 5
M  V30 5 2 5 6
M  V30 6 1 6 7
M  V30 7 2 7 8
M  V30 8 1 8 9
M  V30 9 1 9 10
M  V30 10 2 10 11
M  V30 11 1 11 12
M  V30 12 2 12 13
M  V30 13 2 4 14
M  V30 14 1 14 15
M  V30 15 1 15 16
M  V30 16 1 16 17
M  V30 17 1 17 18
M  V30 18 1 18 19
M  V30 19 1 19 20
M  V30 20 2 20 21
M  V30 21 1 21 22
M  V30 22 1 22 23
M  V30 23 2 15 24
M  V30 24 1 24 2
M  V30 25 1 13 5
M  V30 26 2 23 19
M  V30 27 1 12 8
M  V30 28 1 1 25
M  V30 29 1 1 26
M  V30 30 1 3 27
M  V30 31 1 6 28
M  V30 32 1 7 29
M  V30 33 1 10 30
M  V30 34 1 11 31
M  V30 35 1 13 32
M  V30 36 1 14 33
M  V30 37 1 16 34
M  V30 38 1 17 35
M  V30 39 1 17 36
M  V30 40 1 18 37
M  V30 41 1 18 38
M  V30 42 1 20 39
M  V30 43 1 21 40
M  V30 44 1 23 41
M  V30 END BOND
M  V30 END CTAB
M  END
>  <Dataset>  (416) 
ChEMBL_Kinases

>  <Ligand_Instance>  (416) 
nan

>  <PDB_ID>  (416) 
nan

>  <Standardized_SMILES>  (416) 
Nc1cc(-c2ccc3occc3c2)cc(NCCc2ccsc2)n1

>  <Name>  (416) 
nan

>  <Pocket>  (416) 
nan

>  <ATP_Site>  (416) 
nan

>  <Peripheral>  (416) 
nan

>  <Num_H_Atoms_ProtBoundConf>  (416) 
nan

>  <Num_Resolved_Atoms>  (416) 
nan

>  <Num_Not_Resolved_Atoms>  (416) 
nan

$$$$
CHEMBL377747
     RDKit          3D

  0  0  0  0  0  0  0  0  0  0999 V3000
M  V30 BEGIN CTAB
M  V30 COUNTS 42 44 0 0 0
M  V30 BEGIN ATOM
M  V30 1 C 3.848834 -5.829811 0.256837 0
M  V30 2 C 4.172566 -4.418445 -0.243630 0
M  V30 3 O 2.998349 -3.742279 -0.599054 0
M  V30 4 C 2.905075 -2.465957 -1.085039 0
M  V30 5 O 3.987932 -1.843770 -1.223713 0
M  V30 6 N 1.625747 -1.925997 -1.398557 0
M  V30 7 C 1.483665 -0.568584 -1.918136 0
M  V30 8 C 2.034108 0.445591 -0.941255 0
M  V30 9 C 1.289512 0.339433 0.339952 0
M  V30 10 N 1.763882 -0.303317 1.431730 0
M  V30 11 N 0.891381 -0.252036 2.417244 0
M  V30 12 C 1.157985 -0.867756 3.703333 0
M  V30 13 C -0.209156 0.423156 2.045046 0
M  V30 14 C 0.050547 0.790106 0.740629 0
M  V30 15 C -0.880796 1.516427 0.030208 0
M  V30 16 O -0.681499 1.870475 -1.157269 0
M  V30 17 C -2.066373 1.857177 0.663517 0
M  V30 18 C -3.018428 2.584631 -0.022586 0
M  V30 19 C -4.199330 2.920644 0.617668 0
M  V30 20 Cl -5.421311 3.852109 -0.257189 0
M  V30 21 C -4.418884 2.533662 1.920535 0
M  V30 22 C -3.470037 1.814517 2.589280 0
M  V30 23 C -2.276347 1.460767 1.979167 0
M  V30 24 N -1.357477 0.750485 2.664675 0
M  V30 25 O -1.561547 0.356818 3.964909 0
M  V30 26 H 2.752568 -5.999616 0.267702 0
M  V30 27 H 4.345212 -6.609236 -0.332811 0
M  V30 28 H 4.167892 -5.963708 1.319753 0
M  V30 29 H 4.706565 -3.886152 0.569620 0
M  V30 30 H 4.875416 -4.501959 -1.116256 0
M  V30 31 H 0.783652 -2.556883 -1.236639 0
M  V30 32 H 0.414153 -0.418480 -2.118312 0
M  V30 33 H 2.019521 -0.486490 -2.891860 0
M  V30 34 H 1.862125 1.475384 -1.357183 0
M  V30 35 H 3.104922 0.269502 -0.764627 0
M  V30 36 H 2.221171 -0.593486 3.963350 0
M  V30 37 H 1.180055 -1.988513 3.594875 0
M  V30 38 H 0.523815 -0.516489 4.512773 0
M  V30 39 H -2.838075 2.890770 -1.060670 0
M  V30 40 H -5.365314 2.835672 2.347752 0
M  V30 41 H -3.651587 1.516612 3.609076 0
M  V30 42 H -1.885594 -0.557517 4.206870 0
M  V30 END ATOM
M  V30 BEGIN BOND
M  V30 1 1 1 2
M  V30 2 1 2 3
M  V30 3 1 3 4
M  V30 4 2 4 5
M  V30 5 1 4 6
M  V30 6 1 6 7
M  V30 7 1 7 8
M  V30 8 1 8 9
M  V30 9 2 9 10
M  V30 10 1 10 11
M  V30 11 1 11 12
M  V30 12 1 11 13
M  V30 13 2 13 14
M  V30 14 1 14 15
M  V30 15 2 15 16
M  V30 16 1 15 17
M  V30 17 2 17 18
M  V30 18 1 18 19
M  V30 19 1 19 20
M  V30 20 2 19 21
M  V30 21 1 21 22
M  V30 22 2 22 23
M  V30 23 1 23 24
M  V30 24 1 24 25
M  V30 25 1 14 9
M  V30 26 1 23 17
M  V30 27 1 24 13
M  V30 28 1 1 26
M  V30 29 1 1 27
M  V30 30 1 1 28
M  V30 31 1 2 29
M  V30 32 1 2 30
M  V30 33 1 6 31
M  V30 34 1 7 32
M  V30 35 1 7 33
M  V30 36 1 8 34
M  V30 37 1 8 35
M  V30 38 1 12 36
M  V30 39 1 12 37
M  V30 40 1 12 38
M  V30 41 1 18 39
M  V30 42 1 21 40
M  V30 43 1 22 41
M  V30 44 1 25 42
M  V30 END BOND
M  V30 END CTAB
M  END
>  <Dataset>  (417) 
ChEMBL_Kinases

>  <Ligand_Instance>  (417) 
nan

>  <PDB_ID>  (417) 
nan

>  <Standardized_SMILES>  (417) 
CCOC(=O)NCCc1nn(C)c2c1c(=O)c1cc(Cl)ccc1n2O

>  <Name>  (417) 
nan

>  <Pocket>  (417) 
nan

>  <ATP_Site>  (417) 
nan

>  <Peripheral>  (417) 
nan

>  <Num_H_Atoms_ProtBoundConf>  (417) 
nan

>  <Num_Resolved_Atoms>  (417) 
nan

>  <Num_Not_Resolved_Atoms>  (417) 
nan

$$$$
CHEMBL3775076
     RDKit          3D

  0  0  0  0  0  0  0  0  0  0999 V3000
M  V30 BEGIN CTAB
M  V30 COUNTS 48 52 0 0 0
M  V30 BEGIN ATOM
M  V30 1 C 1.586887 -4.267139 5.247058 0
M  V30 2 N 2.489380 -3.162985 4.903789 0
M  V30 3 N 3.422442 -2.617245 5.663949 0
M  V30 4 C 4.030368 -1.623310 4.971654 0
M  V30 5 C 3.479693 -1.514698 3.720489 0
M  V30 6 C 3.656973 -0.720836 2.585653 0
M  V30 7 C 2.893192 -0.882811 1.437514 0
M  V30 8 C 3.110650 -0.020364 0.250643 0
M  V30 9 C 2.362836 1.258573 0.306246 0
M  V30 10 N 2.940057 2.444669 0.602308 0
M  V30 11 N 2.024206 3.416145 0.578932 0
M  V30 12 C 0.797478 2.914113 0.265022 0
M  V30 13 C -0.446823 3.484696 0.118800 0
M  V30 14 C -1.522019 2.675521 -0.210076 0
M  V30 15 C -1.264762 1.326771 -0.371991 0
M  V30 16 C -2.365206 0.448438 -0.705433 0
M  V30 17 O -3.218346 0.279314 0.178416 0
M  V30 18 N -3.009301 -0.386876 -1.619354 0
M  V30 19 C -4.213808 -0.909098 -1.002169 0
M  V30 20 C -4.827402 -1.737608 -2.137084 0
M  V30 21 C -4.246174 -1.103279 -3.408362 0
M  V30 22 F -4.882753 0.085176 -3.596815 0
M  V30 23 F -4.333771 -1.971538 -4.476428 0
M  V30 24 C -2.814240 -0.864600 -2.975981 0
M  V30 25 C -0.018369 0.756674 -0.225906 0
M  V30 26 C 1.039375 1.567874 0.100787 0
M  V30 27 C 1.950874 -1.882324 1.498417 0
M  V30 28 C 1.731350 -2.696374 2.590918 0
M  V30 29 C 2.506203 -2.511713 3.721989 0
M  V30 30 H 0.798129 -3.899640 5.933998 0
M  V30 31 H 1.100339 -4.627683 4.326522 0
M  V30 32 H 2.128952 -5.052987 5.782791 0
M  V30 33 H 4.836293 -0.976995 5.307996 0
M  V30 34 H 4.423680 0.035277 2.639175 0
M  V30 35 H 4.196250 0.161918 0.133268 0
M  V30 36 H 2.704894 -0.609889 -0.617289 0
M  V30 37 H 2.154332 4.445730 0.766620 0
M  V30 38 H -0.603830 4.537367 0.255230 0
M  V30 39 H -2.530657 3.061833 -0.337318 0
M  V30 40 H -3.873643 -1.640381 -0.218236 0
M  V30 41 H -4.910637 -0.154274 -0.637571 0
M  V30 42 H -4.445746 -2.776943 -2.106550 0
M  V30 43 H -5.918802 -1.641322 -2.087171 0
M  V30 44 H -2.298924 -0.115993 -3.605739 0
M  V30 45 H -2.299496 -1.852005 -2.932083 0
M  V30 46 H 0.127035 -0.302432 -0.365106 0
M  V30 47 H 1.318146 -2.080455 0.654212 0
M  V30 48 H 0.978721 -3.463502 2.588990 0
M  V30 END ATOM
M  V30 BEGIN BOND
M  V30 1 1 1 2
M  V30 2 1 2 3
M  V30 3 2 3 4
M  V30 4 1 4 5
M  V30 5 2 5 6
M  V30 6 1 6 7
M  V30 7 1 7 8
M  V30 8 1 8 9
M  V30 9 2 9 10
M  V30 10 1 10 11
M  V30 11 1 11 12
M  V30 12 2 12 13
M  V30 13 1 13 14
M  V30 14 2 14 15
M  V30 15 1 15 16
M  V30 16 2 16 17
M  V30 17 1 16 18
M  V30 18 1 18 19
M  V30 19 1 19 20
M  V30 20 1 20 21
M  V30 21 1 21 22
M  V30 22 1 21 23
M  V30 23 1 21 24
M  V30 24 1 15 25
M  V30 25 2 25 26
M  V30 26 2 7 27
M  V30 27 1 27 28
M  V30 28 2 28 29
M  V30 29 1 29 2
M  V30 30 1 29 5
M  V30 31 1 26 9
M  V30 32 1 26 12
M  V30 33 1 24 18
M  V30 34 1 1 30
M  V30 35 1 1 31
M  V30 36 1 1 32
M  V30 37 1 4 33
M  V30 38 1 6 34
M  V30 39 1 8 35
M  V30 40 1 8 36
M  V30 41 1 11 37
M  V30 42 1 13 38
M  V30 43 1 14 39
M  V30 44 1 19 40
M  V30 45 1 19 41
M  V30 46 1 20 42
M  V30 47 1 20 43
M  V30 48 1 24 44
M  V30 49 1 24 45
M  V30 50 1 25 46
M  V30 51 1 27 47
M  V30 52 1 28 48
M  V30 END BOND
M  V30 END CTAB
M  END
>  <Dataset>  (418) 
ChEMBL_Kinases

>  <Ligand_Instance>  (418) 
nan

>  <PDB_ID>  (418) 
nan

>  <Standardized_SMILES>  (418) 
Cn1ncc2cc(Cc3n[nH]c4ccc(C(=O)N5CCC(F)(F)C5)cc34)ccc21

>  <Name>  (418) 
nan

>  <Pocket>  (418) 
nan

>  <ATP_Site>  (418) 
nan

>  <Peripheral>  (418) 
nan

>  <Num_H_Atoms_ProtBoundConf>  (418) 
nan

>  <Num_Resolved_Atoms>  (418) 
nan

>  <Num_Not_Resolved_Atoms>  (418) 
nan

$$$$
CHEMBL3775024
     RDKit          3D

  0  0  0  0  0  0  0  0  0  0999 V3000
M  V30 BEGIN CTAB
M  V30 COUNTS 49 53 0 0 0
M  V30 BEGIN ATOM
M  V30 1 C -1.097862 -5.050145 1.662954 0
M  V30 2 N 0.132806 -4.306865 1.940728 0
M  V30 3 N 0.829990 -4.322147 3.064536 0
M  V30 4 C 1.907400 -3.497748 2.921485 0
M  V30 5 C 1.889373 -2.941232 1.659745 0
M  V30 6 C 2.707301 -2.066365 0.997623 0
M  V30 7 C 2.377301 -1.707114 -0.316140 0
M  V30 8 C 3.167140 -0.796139 -1.131466 0
M  V30 9 C 2.819705 0.624101 -1.062540 0
M  V30 10 N 3.567842 1.436774 -1.838322 0
M  V30 11 N 3.162080 2.686897 -1.691382 0
M  V30 12 C 2.140515 2.784249 -0.828253 0
M  V30 13 C 1.312808 3.732574 -0.268083 0
M  V30 14 C 0.327851 3.339952 0.644572 0
M  V30 15 C 0.153812 2.018843 1.008312 0
M  V30 16 C -0.883265 1.614164 1.969351 0
M  V30 17 O -0.697775 1.892756 3.197259 0
M  V30 18 N -2.039594 0.935285 1.496147 0
M  V30 19 C -2.445599 0.526720 0.164251 0
M  V30 20 C -3.304701 -0.709976 0.310044 0
M  V30 21 C -3.235078 -0.963892 1.799766 0 CFG=2
M  V30 22 O -4.344286 -1.638573 2.275473 0
M  V30 23 C -3.143622 0.470190 2.315299 0
M  V30 24 C 0.976214 1.063803 0.453685 0
M  V30 25 C 1.933802 1.476219 -0.438298 0
M  V30 26 C 1.227823 -2.267974 -0.869648 0
M  V30 27 C 0.392100 -3.150402 -0.218382 0
M  V30 28 C 0.745169 -3.483382 1.073073 0
M  V30 29 H -1.685896 -5.182563 2.606119 0
M  V30 30 H -1.666519 -4.516780 0.899457 0
M  V30 31 H -0.847767 -6.057197 1.218304 0
M  V30 32 H 2.660326 -3.309919 3.679241 0
M  V30 33 H 3.594038 -1.644076 1.447297 0
M  V30 34 H 4.267597 -0.942332 -0.922775 0
M  V30 35 H 3.062458 -1.122625 -2.209841 0
M  V30 36 H 3.557660 3.537404 -2.170016 0
M  V30 37 H 1.478560 4.746755 -0.575101 0
M  V30 38 H -0.311547 4.109557 1.070028 0
M  V30 39 H -1.559947 0.223682 -0.455697 0
M  V30 40 H -2.983477 1.346338 -0.368812 0
M  V30 41 H -2.932962 -1.558756 -0.292620 0
M  V30 42 H -4.367248 -0.451734 0.103367 0
M  V30 43 H -2.276182 -1.452885 2.067328 0
M  V30 44 H -4.321882 -1.581448 3.267067 0
M  V30 45 H -2.909907 0.496942 3.395179 0
M  V30 46 H -4.036191 1.044821 2.034854 0
M  V30 47 H 0.820696 0.060060 0.748573 0
M  V30 48 H 0.958054 -2.001951 -1.883298 0
M  V30 49 H -0.486213 -3.551315 -0.704846 0
M  V30 END ATOM
M  V30 BEGIN BOND
M  V30 1 1 1 2
M  V30 2 1 2 3
M  V30 3 2 3 4
M  V30 4 1 4 5
M  V30 5 2 5 6
M  V30 6 1 6 7
M  V30 7 1 7 8
M  V30 8 1 8 9
M  V30 9 2 9 10
M  V30 10 1 10 11
M  V30 11 1 11 12
M  V30 12 2 12 13
M  V30 13 1 13 14
M  V30 14 2 14 15
M  V30 15 1 15 16
M  V30 16 2 16 17
M  V30 17 1 16 18
M  V30 18 1 18 19
M  V30 19 1 19 20
M  V30 20 1 20 21
M  V30 21 1 21 22
M  V30 22 1 21 23
M  V30 23 1 15 24
M  V30 24 2 24 25
M  V30 25 2 7 26
M  V30 26 1 26 27
M  V30 27 2 27 28
M  V30 28 1 28 2
M  V30 29 1 28 5
M  V30 30 1 25 9
M  V30 31 1 25 12
M  V30 32 1 23 18
M  V30 33 1 1 29
M  V30 34 1 1 30
M  V30 35 1 1 31
M  V30 36 1 4 32
M  V30 37 1 6 33
M  V30 38 1 8 34
M  V30 39 1 8 35
M  V30 40 1 11 36
M  V30 41 1 13 37
M  V30 42 1 14 38
M  V30 43 1 19 39
M  V30 44 1 19 40
M  V30 45 1 20 41
M  V30 46 1 20 42
M  V30 47 1 21 43 CFG=3
M  V30 48 1 22 44
M  V30 49 1 23 45
M  V30 50 1 23 46
M  V30 51 1 24 47
M  V30 52 1 26 48
M  V30 53 1 27 49
M  V30 END BOND
M  V30 END CTAB
M  END
>  <Dataset>  (419) 
ChEMBL_Kinases

>  <Ligand_Instance>  (419) 
nan

>  <PDB_ID>  (419) 
nan

>  <Standardized_SMILES>  (419) 
Cn1ncc2cc(Cc3n[nH]c4ccc(C(=O)N5CC[C@H](O)C5)cc34)ccc21

>  <Name>  (419) 
nan

>  <Pocket>  (419) 
nan

>  <ATP_Site>  (419) 
nan

>  <Peripheral>  (419) 
nan

>  <Num_H_Atoms_ProtBoundConf>  (419) 
nan

>  <Num_Resolved_Atoms>  (419) 
nan

>  <Num_Not_Resolved_Atoms>  (419) 
nan

$$$$
CHEMBL3774979
     RDKit          3D

  0  0  0  0  0  0  0  0  0  0999 V3000
M  V30 BEGIN CTAB
M  V30 COUNTS 68 72 0 0 0
M  V30 BEGIN ATOM
M  V30 1 C 4.980859 -1.409442 3.487266 0
M  V30 2 C 5.306405 -0.738711 2.182304 0
M  V30 3 C 5.602306 -1.734358 1.084765 0
M  V30 4 C 4.256443 0.230563 1.780253 0
M  V30 5 N 4.207150 1.554053 2.086170 0
M  V30 6 N 3.130516 2.047384 1.545413 0
M  V30 7 C 2.430950 1.111042 0.874580 0
M  V30 8 C 1.239999 1.218462 0.165838 0
M  V30 9 N 0.574109 2.441544 0.054293 0
M  V30 10 C -0.647901 2.755768 -0.605404 0
M  V30 11 C -1.851650 2.119906 -0.019359 0
M  V30 12 C -2.437307 0.917799 -0.334387 0
M  V30 13 C -3.561066 0.403091 0.274279 0
M  V30 14 C -4.154373 1.153716 1.287596 0
M  V30 15 C -5.340936 0.587977 1.916392 0
M  V30 16 C -6.043020 1.201142 2.931041 0
M  V30 17 C -7.163446 0.639434 3.507455 0
M  V30 18 C -7.606210 -0.593002 3.051219 0
M  V30 19 C -6.890151 -1.202633 2.027122 0
M  V30 20 N -5.791938 -0.605445 1.493373 0
M  V30 21 C -3.600543 2.365516 1.636117 0
M  V30 22 C -2.472972 2.840494 0.997474 0
M  V30 23 N 0.796892 0.076145 -0.398806 0
M  V30 24 C 1.496602 -1.089932 -0.262882 0
M  V30 25 N 1.121357 -2.336580 -0.837792 0
M  V30 26 C 1.654697 -3.609963 -0.332325 0
M  V30 27 C 0.579905 -4.637103 -0.170958 0
M  V30 28 C -0.816084 -4.230035 -0.469291 0
M  V30 29 C -1.044697 -3.034615 -1.305217 0
M  V30 30 C 0.223227 -2.592274 -1.948512 0
M  V30 31 C 0.102148 -1.442986 -2.906630 0
M  V30 32 C 1.505837 -1.192525 -3.451403 0
M  V30 33 O 1.997311 -2.317023 -4.103890 0
M  V30 34 N 2.658549 -1.129417 0.445941 0
M  V30 35 C 3.150483 -0.041046 1.026700 0
M  V30 36 H 4.220111 -2.185753 3.401151 0
M  V30 37 H 5.916760 -1.835018 3.936181 0
M  V30 38 H 4.617313 -0.620539 4.179241 0
M  V30 39 H 6.235577 -0.146315 2.329123 0
M  V30 40 H 4.926831 -2.596975 1.267668 0
M  V30 41 H 6.647050 -2.064044 1.220912 0
M  V30 42 H 5.375175 -1.370376 0.070961 0
M  V30 43 H 2.913543 3.067122 1.671000 0
M  V30 44 H 1.036438 3.275833 0.529920 0
M  V30 45 H -0.543211 2.453088 -1.693933 0
M  V30 46 H -0.841309 3.844036 -0.657772 0
M  V30 47 H -1.960926 0.374281 -1.110376 0
M  V30 48 H -3.929049 -0.555902 -0.061547 0
M  V30 49 H -5.708653 2.162130 3.296337 0
M  V30 50 H -7.707627 1.128833 4.304231 0
M  V30 51 H -8.491640 -1.096175 3.466971 0
M  V30 52 H -7.169284 -2.177140 1.606493 0
M  V30 53 H -4.049931 2.944371 2.409686 0
M  V30 54 H -2.089051 3.803922 1.322912 0
M  V30 55 H 2.421530 -3.914019 -1.075894 0
M  V30 56 H 2.200310 -3.409150 0.612646 0
M  V30 57 H 0.664058 -5.058013 0.854835 0
M  V30 58 H 0.827364 -5.490386 -0.839378 0
M  V30 59 H -1.337390 -4.085211 0.504788 0
M  V30 60 H -1.388738 -5.089921 -0.931559 0
M  V30 61 H -1.781880 -3.223143 -2.113748 0
M  V30 62 H -1.391088 -2.184675 -0.656821 0
M  V30 63 H 0.607700 -3.453053 -2.567040 0
M  V30 64 H -0.265974 -0.510149 -2.496481 0
M  V30 65 H -0.518637 -1.788263 -3.748501 0
M  V30 66 H 1.473901 -0.328610 -4.155023 0
M  V30 67 H 2.204072 -0.920003 -2.635198 0
M  V30 68 H 2.475981 -2.858591 -3.415757 0
M  V30 END ATOM
M  V30 BEGIN BOND
M  V30 1 1 1 2
M  V30 2 1 2 3
M  V30 3 1 2 4
M  V30 4 2 4 5
M  V30 5 1 5 6
M  V30 6 1 6 7
M  V30 7 2 7 8
M  V30 8 1 8 9
M  V30 9 1 9 10
M  V30 10 1 10 11
M  V30 11 2 11 12
M  V30 12 1 12 13
M  V30 13 2 13 14
M  V30 14 1 14 15
M  V30 15 2 15 16
M  V30 16 1 16 17
M  V30 17 2 17 18
M  V30 18 1 18 19
M  V30 19 2 19 20
M  V30 20 1 14 21
M  V30 21 2 21 22
M  V30 22 1 8 23
M  V30 23 2 23 24
M  V30 24 1 24 25
M  V30 25 1 25 26
M  V30 26 1 26 27
M  V30 27 1 27 28
M  V30 28 1 28 29
M  V30 29 1 29 30
M  V30 30 1 30 31
M  V30 31 1 31 32
M  V30 32 1 32 33
M  V30 33 1 24 34
M  V30 34 2 34 35
M  V30 35 1 35 4
M  V30 36 1 35 7
M  V30 37 1 22 11
M  V30 38 1 30 25
M  V30 39 1 20 15
M  V30 40 1 1 36
M  V30 41 1 1 37
M  V30 42 1 1 38
M  V30 43 1 2 39
M  V30 44 1 3 40
M  V30 45 1 3 41
M  V30 46 1 3 42
M  V30 47 1 6 43
M  V30 48 1 9 44
M  V30 49 1 10 45
M  V30 50 1 10 46
M  V30 51 1 12 47
M  V30 52 1 13 48
M  V30 53 1 16 49
M  V30 54 1 17 50
M  V30 55 1 18 51
M  V30 56 1 19 52
M  V30 57 1 21 53
M  V30 58 1 22 54
M  V30 59 1 26 55
M  V30 60 1 26 56
M  V30 61 1 27 57
M  V30 62 1 27 58
M  V30 63 1 28 59
M  V30 64 1 28 60
M  V30 65 1 29 61
M  V30 66 1 29 62
M  V30 67 1 30 63
M  V30 68 1 31 64
M  V30 69 1 31 65
M  V30 70 1 32 66
M  V30 71 1 32 67
M  V30 72 1 33 68
M  V30 END BOND
M  V30 END CTAB
M  END
>  <Dataset>  (420) 
ChEMBL_Kinases

>  <Ligand_Instance>  (420) 
nan

>  <PDB_ID>  (420) 
nan

>  <Standardized_SMILES>  (420) 
CC(C)c1n[nH]c2c(NCc3ccc(-c4ccccn4)cc3)nc(N3CCCCC3CCO)nc12

>  <Name>  (420) 
nan

>  <Pocket>  (420) 
nan

>  <ATP_Site>  (420) 
nan

>  <Peripheral>  (420) 
nan

>  <Num_H_Atoms_ProtBoundConf>  (420) 
nan

>  <Num_Resolved_Atoms>  (420) 
nan

>  <Num_Not_Resolved_Atoms>  (420) 
nan

$$$$
CHEMBL3702308
     RDKit          3D

  0  0  0  0  0  0  0  0  0  0999 V3000
M  V30 BEGIN CTAB
M  V30 COUNTS 59 61 0 0 0
M  V30 BEGIN ATOM
M  V30 1 C 1.639492 -1.966280 2.173894 0
M  V30 2 C 0.979599 -0.643567 2.325699 0
M  V30 3 C 1.666449 0.359577 1.783081 0
M  V30 4 C 2.889872 0.673594 1.059153 0
M  V30 5 O 3.136854 1.891320 0.726864 0
M  V30 6 N 3.978696 -0.100280 0.585307 0
M  V30 7 C 4.916523 0.785139 -0.074495 0
M  V30 8 C 4.170351 1.413197 -1.181132 0
M  V30 9 C 3.544642 1.913770 -2.080102 0
M  V30 10 C 2.759358 2.509453 -3.188295 0
M  V30 11 N 1.351382 2.289880 -2.910418 0
M  V30 12 C 0.880070 3.048362 -1.767628 0
M  V30 13 C 0.534884 2.526169 -4.084753 0
M  V30 14 S 0.669945 1.800814 2.102928 0
M  V30 15 C -0.651762 0.940837 2.975626 0
M  V30 16 N -1.799962 1.342329 3.557486 0
M  V30 17 C -2.624493 0.477704 4.165168 0
M  V30 18 N -2.201071 -0.771204 4.131732 0
M  V30 19 C -1.081417 -1.210726 3.571723 0
M  V30 20 N -0.948620 -2.600005 3.729543 0
M  V30 21 C -1.852212 -3.330904 2.876472 0
M  V30 22 C -2.625039 -4.152987 3.713071 0
M  V30 23 C -3.609815 -4.985527 3.192277 0
M  V30 24 C -3.853997 -5.026309 1.838792 0
M  V30 25 C -4.845193 -5.849562 1.211580 0
M  V30 26 N -5.644325 -6.526245 0.718955 0
M  V30 27 C -3.072872 -4.204089 1.062193 0
M  V30 28 C -2.089630 -3.363623 1.520854 0
M  V30 29 O -1.250687 -2.497440 0.857433 0
M  V30 30 C -1.299685 -2.323063 -0.541764 0
M  V30 31 C 0.034279 -2.471305 -1.215933 0
M  V30 32 F -0.181953 -2.277708 -2.589403 0
M  V30 33 C -1.843635 -0.919690 -0.871722 0
M  V30 34 F -1.858873 -0.830166 -2.249356 0
M  V30 35 C -0.207670 -0.358244 2.938602 0
M  V30 36 H 1.837751 -2.183019 1.081111 0
M  V30 37 H 2.667950 -1.965473 2.644509 0
M  V30 38 H 1.126395 -2.808846 2.632411 0
M  V30 39 H 3.885003 -1.109223 0.802589 0
M  V30 40 H 5.319167 1.569300 0.581186 0
M  V30 41 H 5.767631 0.200516 -0.465528 0
M  V30 42 H 2.969509 3.601057 -3.211836 0
M  V30 43 H 2.990379 2.022246 -4.143700 0
M  V30 44 H 1.750522 3.381918 -1.171672 0
M  V30 45 H 0.237035 3.885320 -2.102686 0
M  V30 46 H 0.298615 2.374045 -1.101292 0
M  V30 47 H 1.037520 2.108814 -4.976904 0
M  V30 48 H 0.446753 3.621357 -4.234377 0
M  V30 49 H -0.494774 2.134739 -3.956384 0
M  V30 50 H -3.482112 0.984860 4.565441 0
M  V30 51 H -0.302292 -3.137445 4.384390 0
M  V30 52 H -2.584972 -4.263559 4.802845 0
M  V30 53 H -4.242939 -5.647271 3.788526 0
M  V30 54 H -3.217766 -4.192597 -0.004847 0
M  V30 55 H -2.001030 -3.018471 -1.046726 0
M  V30 56 H 0.433097 -3.485404 -1.036496 0
M  V30 57 H 0.741330 -1.656635 -0.948996 0
M  V30 58 H -2.899230 -0.844996 -0.537436 0
M  V30 59 H -1.224157 -0.149389 -0.398014 0
M  V30 END ATOM
M  V30 BEGIN BOND
M  V30 1 1 1 2
M  V30 2 2 2 3
M  V30 3 1 3 4
M  V30 4 2 4 5
M  V30 5 1 4 6
M  V30 6 1 6 7
M  V30 7 1 7 8
M  V30 8 3 8 9
M  V30 9 1 9 10
M  V30 10 1 10 11
M  V30 11 1 11 12
M  V30 12 1 11 13
M  V30 13 1 3 14
M  V30 14 1 14 15
M  V30 15 2 15 16
M  V30 16 1 16 17
M  V30 17 2 17 18
M  V30 18 1 18 19
M  V30 19 1 19 20
M  V30 20 1 20 21
M  V30 21 2 21 22
M  V30 22 1 22 23
M  V30 23 2 23 24
M  V30 24 1 24 25
M  V30 25 3 25 26
M  V30 26 1 24 27
M  V30 27 2 27 28
M  V30 28 1 28 29
M  V30 29 1 29 30
M  V30 30 1 30 31
M  V30 31 1 31 32
M  V30 32 1 30 33
M  V30 33 1 33 34
M  V30 34 2 19 35
M  V30 35 1 35 2
M  V30 36 1 35 15
M  V30 37 1 28 21
M  V30 38 1 1 36
M  V30 39 1 1 37
M  V30 40 1 1 38
M  V30 41 1 6 39
M  V30 42 1 7 40
M  V30 43 1 7 41
M  V30 44 1 10 42
M  V30 45 1 10 43
M  V30 46 1 12 44
M  V30 47 1 12 45
M  V30 48 1 12 46
M  V30 49 1 13 47
M  V30 50 1 13 48
M  V30 51 1 13 49
M  V30 52 1 17 50
M  V30 53 1 20 51
M  V30 54 1 22 52
M  V30 55 1 23 53
M  V30 56 1 27 54
M  V30 57 1 30 55
M  V30 58 1 31 56
M  V30 59 1 31 57
M  V30 60 1 33 58
M  V30 61 1 33 59
M  V30 END BOND
M  V30 END CTAB
M  END
>  <Dataset>  (421) 
ChEMBL_Kinases

>  <Ligand_Instance>  (421) 
nan

>  <PDB_ID>  (421) 
nan

>  <Standardized_SMILES>  (421) 
Cc1c(C(=O)NCC#CCN(C)C)sc2ncnc(Nc3ccc(C#N)cc3OC(CF)CF)c12

>  <Name>  (421) 
nan

>  <Pocket>  (421) 
nan

>  <ATP_Site>  (421) 
nan

>  <Peripheral>  (421) 
nan

>  <Num_H_Atoms_ProtBoundConf>  (421) 
nan

>  <Num_Resolved_Atoms>  (421) 
nan

>  <Num_Not_Resolved_Atoms>  (421) 
nan

$$$$
CHEMBL3774959
     RDKit          3D

  0  0  0  0  0  0  0  0  0  0999 V3000
M  V30 BEGIN CTAB
M  V30 COUNTS 49 53 0 0 0
M  V30 BEGIN ATOM
M  V30 1 C 0.264721 -3.330787 3.700421 0
M  V30 2 O 1.223339 -2.677004 2.927970 0
M  V30 3 C 1.607053 -3.410296 1.832311 0
M  V30 4 C 1.681344 -2.549488 0.588493 0
M  V30 5 N 2.991600 -2.099782 1.082781 0
M  V30 6 C 3.854587 -0.943792 1.080620 0
M  V30 7 O 4.996638 -0.804792 1.607941 0
M  V30 8 C 3.282954 0.194105 0.356693 0
M  V30 9 C 3.927651 0.777060 -0.737828 0
M  V30 10 C 3.358846 1.846988 -1.396072 0
M  V30 11 C 2.164871 2.377124 -1.018973 0
M  V30 12 N 1.368285 3.362759 -1.413637 0
M  V30 13 N 0.290929 3.429827 -0.651175 0
M  V30 14 C 0.325709 2.462206 0.312683 0
M  V30 15 C -0.740604 2.261119 1.333239 0
M  V30 16 C -1.611607 1.105237 1.017441 0
M  V30 17 C -1.470651 -0.195431 1.446404 0
M  V30 18 C -2.307264 -1.225826 1.116908 0
M  V30 19 C -3.393303 -0.963985 0.284146 0
M  V30 20 C -3.567200 0.344078 -0.169666 0
M  V30 21 C -4.697863 0.278188 -0.952021 0
M  V30 22 N -5.147772 -0.996198 -0.947390 0
M  V30 23 N -4.366417 -1.758090 -0.202429 0
M  V30 24 C -4.443459 -3.171519 0.101317 0
M  V30 25 C -2.704091 1.366908 0.180540 0
M  V30 26 C 1.510750 1.818288 0.058101 0
M  V30 27 C 2.072500 0.750334 0.719998 0
M  V30 28 C 3.126237 -3.430551 1.658737 0
M  V30 29 H -0.612618 -3.502050 3.058701 0
M  V30 30 H -0.011954 -2.651080 4.528370 0
M  V30 31 H 0.664380 -4.267456 4.144383 0
M  V30 32 H 1.125720 -4.397168 1.699460 0
M  V30 33 H 1.739155 -3.200922 -0.291700 0
M  V30 34 H 0.915478 -1.758143 0.501900 0
M  V30 35 H 4.874669 0.362806 -1.043796 0
M  V30 36 H 3.863075 2.300455 -2.250833 0
M  V30 37 H 1.560275 4.015228 -2.229670 0
M  V30 38 H -1.340547 3.197623 1.407317 0
M  V30 39 H -0.250037 2.135517 2.337294 0
M  V30 40 H -0.631066 -0.384286 2.089342 0
M  V30 41 H -2.099719 -2.220584 1.514160 0
M  V30 42 H -5.176941 1.083080 -1.493999 0
M  V30 43 H -3.545911 -3.727623 -0.242204 0
M  V30 44 H -4.498385 -3.273112 1.204009 0
M  V30 45 H -5.338460 -3.636740 -0.359578 0
M  V30 46 H -2.924428 2.361163 -0.227451 0
M  V30 47 H 1.589869 0.301741 1.553340 0
M  V30 48 H 3.398132 -4.143919 0.844852 0
M  V30 49 H 3.694428 -3.518662 2.584148 0
M  V30 END ATOM
M  V30 BEGIN BOND
M  V30 1 1 1 2
M  V30 2 1 2 3
M  V30 3 1 3 4
M  V30 4 1 4 5
M  V30 5 1 5 6
M  V30 6 2 6 7
M  V30 7 1 6 8
M  V30 8 2 8 9
M  V30 9 1 9 10
M  V30 10 2 10 11
M  V30 11 1 11 12
M  V30 12 1 12 13
M  V30 13 2 13 14
M  V30 14 1 14 15
M  V30 15 1 15 16
M  V30 16 2 16 17
M  V30 17 1 17 18
M  V30 18 2 18 19
M  V30 19 1 19 20
M  V30 20 1 20 21
M  V30 21 2 21 22
M  V30 22 1 22 23
M  V30 23 1 23 24
M  V30 24 2 20 25
M  V30 25 1 14 26
M  V30 26 2 26 27
M  V30 27 1 5 28
M  V30 28 1 28 3
M  V30 29 1 27 8
M  V30 30 1 26 11
M  V30 31 1 25 16
M  V30 32 1 23 19
M  V30 33 1 1 29
M  V30 34 1 1 30
M  V30 35 1 1 31
M  V30 36 1 3 32
M  V30 37 1 4 33
M  V30 38 1 4 34
M  V30 39 1 9 35
M  V30 40 1 10 36
M  V30 41 1 12 37
M  V30 42 1 15 38
M  V30 43 1 15 39
M  V30 44 1 17 40
M  V30 45 1 18 41
M  V30 46 1 21 42
M  V30 47 1 24 43
M  V30 48 1 24 44
M  V30 49 1 24 45
M  V30 50 1 25 46
M  V30 51 1 27 47
M  V30 52 1 28 48
M  V30 53 1 28 49
M  V30 END BOND
M  V30 END CTAB
M  END
>  <Dataset>  (422) 
ChEMBL_Kinases

>  <Ligand_Instance>  (422) 
nan

>  <PDB_ID>  (422) 
nan

>  <Standardized_SMILES>  (422) 
COC1CN(C(=O)c2ccc3[nH]nc(Cc4ccc5c(cnn5C)c4)c3c2)C1

>  <Name>  (422) 
nan

>  <Pocket>  (422) 
nan

>  <ATP_Site>  (422) 
nan

>  <Peripheral>  (422) 
nan

>  <Num_H_Atoms_ProtBoundConf>  (422) 
nan

>  <Num_Resolved_Atoms>  (422) 
nan

>  <Num_Not_Resolved_Atoms>  (422) 
nan

$$$$
CHEMBL3774949
     RDKit          3D

  0  0  0  0  0  0  0  0  0  0999 V3000
M  V30 BEGIN CTAB
M  V30 COUNTS 60 64 0 0 0
M  V30 BEGIN ATOM
M  V30 1 C 2.682345 -3.443895 4.673613 0
M  V30 2 C 3.707154 -3.281801 3.593046 0
M  V30 3 C 5.127623 -3.363438 4.102002 0
M  V30 4 C 3.439916 -1.982988 2.912475 0
M  V30 5 N 3.932829 -0.750098 3.208562 0
M  V30 6 N 3.448170 0.137439 2.361926 0
M  V30 7 C 2.626610 -0.478184 1.487548 0
M  V30 8 C 1.895632 0.060717 0.422756 0
M  V30 9 N 1.965347 1.437704 0.138608 0
M  V30 10 C 1.285343 2.145024 -0.901054 0
M  V30 11 C -0.188949 2.112869 -0.812156 0
M  V30 12 C -1.101448 1.233608 -1.355972 0
M  V30 13 C -2.451234 1.401848 -1.131777 0
M  V30 14 C -2.969608 2.431868 -0.369832 0
M  V30 15 C -4.415307 2.512042 -0.199732 0
M  V30 16 C -5.041774 3.482487 0.528793 0
M  V30 17 C -6.413560 3.485136 0.638486 0
M  V30 18 C -7.191596 2.517907 0.022633 0
M  V30 19 C -6.513625 1.544533 -0.711915 0
M  V30 20 N -5.189015 1.599356 -0.777703 0
M  V30 21 C -2.075007 3.321379 0.182345 0
M  V30 22 C -0.715262 3.156708 -0.039985 0
M  V30 23 N 1.174904 -0.827289 -0.251574 0
M  V30 24 C 1.109735 -2.142403 0.014000 0
M  V30 25 N 0.327111 -3.060953 -0.738455 0
M  V30 26 C -0.381424 -2.512080 -1.880123 0
M  V30 27 C -0.615624 -3.698957 -2.824592 0
M  V30 28 N 0.527057 -4.589376 -2.814052 0
M  V30 29 C 0.656063 -5.284026 -1.549899 0
M  V30 30 C 0.263684 -4.457118 -0.355916 0
M  V30 31 N 1.843070 -2.599185 1.060205 0
M  V30 32 C 2.602020 -1.814834 1.810267 0
M  V30 33 H 2.927743 -4.224627 5.404876 0
M  V30 34 H 1.722991 -3.713246 4.164872 0
M  V30 35 H 2.526271 -2.444427 5.164744 0
M  V30 36 H 3.593689 -4.107975 2.847137 0
M  V30 37 H 5.771995 -3.513280 3.205982 0
M  V30 38 H 5.205703 -4.263441 4.724997 0
M  V30 39 H 5.439971 -2.498157 4.706674 0
M  V30 40 H 3.721876 1.142659 2.441636 0
M  V30 41 H 2.585882 2.041219 0.750900 0
M  V30 42 H 1.619912 3.171695 -1.043036 0
M  V30 43 H 1.539530 1.602142 -1.858205 0
M  V30 44 H -0.638003 0.462147 -1.935689 0
M  V30 45 H -3.121308 0.689805 -1.577629 0
M  V30 46 H -4.472551 4.244456 1.017502 0
M  V30 47 H -6.956874 4.231517 1.203423 0
M  V30 48 H -8.276862 2.508631 0.101457 0
M  V30 49 H -7.065413 0.762238 -1.215951 0
M  V30 50 H -2.453641 4.135960 0.782625 0
M  V30 51 H -0.090862 3.921994 0.446546 0
M  V30 52 H -1.386406 -2.182076 -1.555658 0
M  V30 53 H 0.210835 -1.725503 -2.391493 0
M  V30 54 H -1.560083 -4.226617 -2.608628 0
M  V30 55 H -0.665581 -3.261946 -3.846863 0
M  V30 56 H 0.409060 -5.285887 -3.556320 0
M  V30 57 H 0.103403 -6.247085 -1.592558 0
M  V30 58 H 1.749461 -5.528880 -1.433369 0
M  V30 59 H -0.765323 -4.719096 -0.035488 0
M  V30 60 H 0.930080 -4.611185 0.509860 0
M  V30 END ATOM
M  V30 BEGIN BOND
M  V30 1 1 1 2
M  V30 2 1 2 3
M  V30 3 1 2 4
M  V30 4 2 4 5
M  V30 5 1 5 6
M  V30 6 1 6 7
M  V30 7 2 7 8
M  V30 8 1 8 9
M  V30 9 1 9 10
M  V30 10 1 10 11
M  V30 11 2 11 12
M  V30 12 1 12 13
M  V30 13 2 13 14
M  V30 14 1 14 15
M  V30 15 2 15 16
M  V30 16 1 16 17
M  V30 17 2 17 18
M  V30 18 1 18 19
M  V30 19 2 19 20
M  V30 20 1 14 21
M  V30 21 2 21 22
M  V30 22 1 8 23
M  V30 23 2 23 24
M  V30 24 1 24 25
M  V30 25 1 25 26
M  V30 26 1 26 27
M  V30 27 1 27 28
M  V30 28 1 28 29
M  V30 29 1 29 30
M  V30 30 1 24 31
M  V30 31 2 31 32
M  V30 32 1 32 4
M  V30 33 1 32 7
M  V30 34 1 22 11
M  V30 35 1 30 25
M  V30 36 1 20 15
M  V30 37 1 1 33
M  V30 38 1 1 34
M  V30 39 1 1 35
M  V30 40 1 2 36
M  V30 41 1 3 37
M  V30 42 1 3 38
M  V30 43 1 3 39
M  V30 44 1 6 40
M  V30 45 1 9 41
M  V30 46 1 10 42
M  V30 47 1 10 43
M  V30 48 1 12 44
M  V30 49 1 13 45
M  V30 50 1 16 46
M  V30 51 1 17 47
M  V30 52 1 18 48
M  V30 53 1 19 49
M  V30 54 1 21 50
M  V30 55 1 22 51
M  V30 56 1 26 52
M  V30 57 1 26 53
M  V30 58 1 27 54
M  V30 59 1 27 55
M  V30 60 1 28 56
M  V30 61 1 29 57
M  V30 62 1 29 58
M  V30 63 1 30 59
M  V30 64 1 30 60
M  V30 END BOND
M  V30 END CTAB
M  END
>  <Dataset>  (423) 
ChEMBL_Kinases

>  <Ligand_Instance>  (423) 
nan

>  <PDB_ID>  (423) 
nan

>  <Standardized_SMILES>  (423) 
CC(C)c1n[nH]c2c(NCc3ccc(-c4ccccn4)cc3)nc(N3CCNCC3)nc12

>  <Name>  (423) 
nan

>  <Pocket>  (423) 
nan

>  <ATP_Site>  (423) 
nan

>  <Peripheral>  (423) 
nan

>  <Num_H_Atoms_ProtBoundConf>  (423) 
nan

>  <Num_Resolved_Atoms>  (423) 
nan

>  <Num_Not_Resolved_Atoms>  (423) 
nan

$$$$
CHEMBL3774945
     RDKit          3D

  0  0  0  0  0  0  0  0  0  0999 V3000
M  V30 BEGIN CTAB
M  V30 COUNTS 41 44 0 0 0
M  V30 BEGIN ATOM
M  V30 1 C 6.769618 -0.816936 1.291937 0
M  V30 2 N 5.613001 -1.269297 0.526933 0
M  V30 3 C 4.387818 -0.540981 0.532179 0
M  V30 4 O 4.440283 0.488661 1.247548 0
M  V30 5 C 3.231335 -0.990387 -0.230000 0
M  V30 6 C 3.273766 -2.128322 -0.989872 0
M  V30 7 C 2.199884 -2.589227 -1.728901 0
M  V30 8 C 1.022551 -1.840826 -1.683623 0
M  V30 9 N -0.146287 -2.038560 -2.288204 0
M  V30 10 N -0.956077 -1.026717 -1.922511 0
M  V30 11 C -0.266787 -0.204084 -1.083738 0
M  V30 12 C -0.868387 1.025531 -0.469552 0
M  V30 13 C -1.285092 0.816505 0.934126 0
M  V30 14 C -0.589905 1.059919 2.088603 0
M  V30 15 C -1.080677 0.822270 3.348520 0
M  V30 16 C -2.369487 0.299283 3.473532 0
M  V30 17 C -3.149516 -0.047451 4.556637 0
M  V30 18 N -4.331279 -0.506765 4.078438 0
M  V30 19 N -4.305428 -0.455004 2.761606 0
M  V30 20 C -5.380359 -0.858502 1.886525 0
M  V30 21 C -3.108170 0.037595 2.347360 0
M  V30 22 C -2.557302 0.298573 1.114762 0
M  V30 23 C 1.015955 -0.704076 -0.910052 0
M  V30 24 C 2.065976 -0.216247 -0.161991 0
M  V30 25 H 7.150361 -1.595478 1.976891 0
M  V30 26 H 7.566160 -0.656852 0.508496 0
M  V30 27 H 6.546887 0.117223 1.817517 0
M  V30 28 H 5.745011 -2.137935 -0.006730 0
M  V30 29 H 4.147537 -2.757371 -1.072899 0
M  V30 30 H 2.223036 -3.480342 -2.327492 0
M  V30 31 H -0.379431 -2.839943 -2.929277 0
M  V30 32 H -0.149622 1.878346 -0.544063 0
M  V30 33 H -1.765346 1.307343 -1.054071 0
M  V30 34 H 0.392250 1.462952 1.961944 0
M  V30 35 H -0.479423 1.037102 4.214565 0
M  V30 36 H -2.835534 0.046939 5.610244 0
M  V30 37 H -5.698848 -1.881806 2.105198 0
M  V30 38 H -6.263266 -0.181770 2.059388 0
M  V30 39 H -5.095471 -0.772523 0.813147 0
M  V30 40 H -3.208161 0.063796 0.267115 0
M  V30 41 H 2.031260 0.679316 0.434845 0
M  V30 END ATOM
M  V30 BEGIN BOND
M  V30 1 1 1 2
M  V30 2 1 2 3
M  V30 3 2 3 4
M  V30 4 1 3 5
M  V30 5 2 5 6
M  V30 6 1 6 7
M  V30 7 2 7 8
M  V30 8 1 8 9
M  V30 9 1 9 10
M  V30 10 2 10 11
M  V30 11 1 11 12
M  V30 12 1 12 13
M  V30 13 2 13 14
M  V30 14 1 14 15
M  V30 15 2 15 16
M  V30 16 1 16 17
M  V30 17 2 17 18
M  V30 18 1 18 19
M  V30 19 1 19 20
M  V30 20 1 19 21
M  V30 21 2 21 22
M  V30 22 1 11 23
M  V30 23 2 23 24
M  V30 24 1 24 5
M  V30 25 1 23 8
M  V30 26 1 22 13
M  V30 27 1 21 16
M  V30 28 1 1 25
M  V30 29 1 1 26
M  V30 30 1 1 27
M  V30 31 1 2 28
M  V30 32 1 6 29
M  V30 33 1 7 30
M  V30 34 1 9 31
M  V30 35 1 12 32
M  V30 36 1 12 33
M  V30 37 1 14 34
M  V30 38 1 15 35
M  V30 39 1 17 36
M  V30 40 1 20 37
M  V30 41 1 20 38
M  V30 42 1 20 39
M  V30 43 1 22 40
M  V30 44 1 24 41
M  V30 END BOND
M  V30 END CTAB
M  END
>  <Dataset>  (424) 
ChEMBL_Kinases

>  <Ligand_Instance>  (424) 
nan

>  <PDB_ID>  (424) 
nan

>  <Standardized_SMILES>  (424) 
CNC(=O)c1ccc2[nH]nc(Cc3ccc4cnn(C)c4c3)c2c1

>  <Name>  (424) 
nan

>  <Pocket>  (424) 
nan

>  <ATP_Site>  (424) 
nan

>  <Peripheral>  (424) 
nan

>  <Num_H_Atoms_ProtBoundConf>  (424) 
nan

>  <Num_Resolved_Atoms>  (424) 
nan

>  <Num_Not_Resolved_Atoms>  (424) 
nan

$$$$
CHEMBL3774932
     RDKit          3D

  0  0  0  0  0  0  0  0  0  0999 V3000
M  V30 BEGIN CTAB
M  V30 COUNTS 61 64 0 0 0
M  V30 BEGIN ATOM
M  V30 1 C 1.488350 -0.714653 4.387280 0
M  V30 2 C 1.800283 -1.081969 2.954233 0
M  V30 3 C 2.257386 0.105711 2.151172 0
M  V30 4 C 3.525532 0.697408 2.755681 0
M  V30 5 O 3.222715 1.136366 4.033534 0
M  V30 6 N 2.598573 -0.340314 0.816314 0
M  V30 7 C 2.030628 -1.031009 -0.283675 0
M  V30 8 N 1.133772 -0.309240 -0.935082 0
M  V30 9 C 0.448819 -0.705343 -2.034477 0
M  V30 10 N -0.484471 0.157731 -2.678052 0
M  V30 11 C -0.877989 1.485026 -2.286540 0
M  V30 12 C -1.618582 1.511293 -1.009747 0
M  V30 13 C -1.202170 1.639868 0.285084 0
M  V30 14 C -2.092379 1.623306 1.337989 0
M  V30 15 C -3.450233 1.475222 1.126227 0
M  V30 16 C -4.450706 1.435323 2.189837 0
M  V30 17 C -4.083489 1.527342 3.507639 0
M  V30 18 C -5.024670 1.477670 4.526651 0
M  V30 19 C -6.377965 1.332710 4.256732 0
M  V30 20 C -6.694539 1.244329 2.902821 0
M  V30 21 N -5.763465 1.295085 1.933706 0
M  V30 22 C -3.905856 1.341832 -0.193467 0
M  V30 23 C -2.992764 1.361375 -1.228647 0
M  V30 24 C 0.759015 -1.979506 -2.457464 0
M  V30 25 N 0.272314 -2.679839 -3.497863 0
M  V30 26 N 0.852187 -3.887422 -3.540887 0
M  V30 27 C 1.728385 -3.940083 -2.493286 0
M  V30 28 C 2.590692 -5.105880 -2.177630 0
M  V30 29 C 3.875120 -5.124811 -2.965121 0
M  V30 30 C 1.864079 -6.411499 -2.424372 0
M  V30 31 C 1.688827 -2.754397 -1.797361 0
M  V30 32 N 2.308786 -2.259206 -0.716981 0
M  V30 33 H 1.111664 0.326569 4.503061 0
M  V30 34 H 2.398992 -0.916712 4.986018 0
M  V30 35 H 0.675671 -1.369385 4.816382 0
M  V30 36 H 0.863913 -1.518606 2.545270 0
M  V30 37 H 2.561428 -1.857599 2.882800 0
M  V30 38 H 1.502142 0.887331 2.088263 0
M  V30 39 H 4.298950 -0.096522 2.837660 0
M  V30 40 H 3.912749 1.526642 2.135183 0
M  V30 41 H 3.993391 0.955975 4.624510 0
M  V30 42 H 3.554716 -0.163799 0.393354 0
M  V30 43 H -0.913728 -0.260439 -3.536649 0
M  V30 44 H -1.414208 1.970128 -3.123978 0
M  V30 45 H 0.048165 2.086867 -2.112621 0
M  V30 46 H -0.146161 1.753611 0.381253 0
M  V30 47 H -1.731148 1.724064 2.325049 0
M  V30 48 H -3.084216 1.639741 3.837705 0
M  V30 49 H -4.787717 1.545429 5.597770 0
M  V30 50 H -7.183431 1.282818 4.981269 0
M  V30 51 H -7.722190 1.130482 2.589721 0
M  V30 52 H -4.970880 1.228077 -0.340012 0
M  V30 53 H -3.479589 1.247294 -2.210969 0
M  V30 54 H -0.457496 -2.380557 -4.212970 0
M  V30 55 H 2.834920 -5.098391 -1.090175 0
M  V30 56 H 3.759274 -5.721125 -3.918808 0
M  V30 57 H 4.641899 -5.690516 -2.376983 0
M  V30 58 H 4.192483 -4.124185 -3.248081 0
M  V30 59 H 2.539805 -7.257313 -2.177668 0
M  V30 60 H 1.001670 -6.507635 -1.703284 0
M  V30 61 H 1.544930 -6.525288 -3.481889 0
M  V30 END ATOM
M  V30 BEGIN BOND
M  V30 1 1 1 2
M  V30 2 1 2 3
M  V30 3 1 3 4
M  V30 4 1 4 5
M  V30 5 1 3 6
M  V30 6 1 6 7
M  V30 7 2 7 8
M  V30 8 1 8 9
M  V30 9 1 9 10
M  V30 10 1 10 11
M  V30 11 1 11 12
M  V30 12 2 12 13
M  V30 13 1 13 14
M  V30 14 2 14 15
M  V30 15 1 15 16
M  V30 16 2 16 17
M  V30 17 1 17 18
M  V30 18 2 18 19
M  V30 19 1 19 20
M  V30 20 2 20 21
M  V30 21 1 15 22
M  V30 22 2 22 23
M  V30 23 2 9 24
M  V30 24 1 24 25
M  V30 25 1 25 26
M  V30 26 2 26 27
M  V30 27 1 27 28
M  V30 28 1 28 29
M  V30 29 1 28 30
M  V30 30 1 27 31
M  V30 31 2 31 32
M  V30 32 1 32 7
M  V30 33 1 23 12
M  V30 34 1 31 24
M  V30 35 1 21 16
M  V30 36 1 1 33
M  V30 37 1 1 34
M  V30 38 1 1 35
M  V30 39 1 2 36
M  V30 40 1 2 37
M  V30 41 1 3 38
M  V30 42 1 4 39
M  V30 43 1 4 40
M  V30 44 1 5 41
M  V30 45 1 6 42
M  V30 46 1 10 43
M  V30 47 1 11 44
M  V30 48 1 11 45
M  V30 49 1 13 46
M  V30 50 1 14 47
M  V30 51 1 17 48
M  V30 52 1 18 49
M  V30 53 1 19 50
M  V30 54 1 20 51
M  V30 55 1 22 52
M  V30 56 1 23 53
M  V30 57 1 25 54
M  V30 58 1 28 55
M  V30 59 1 29 56
M  V30 60 1 29 57
M  V30 61 1 29 58
M  V30 62 1 30 59
M  V30 63 1 30 60
M  V30 64 1 30 61
M  V30 END BOND
M  V30 END CTAB
M  END
>  <Dataset>  (425) 
ChEMBL_Kinases

>  <Ligand_Instance>  (425) 
nan

>  <PDB_ID>  (425) 
nan

>  <Standardized_SMILES>  (425) 
CCC(CO)Nc1nc(NCc2ccc(-c3ccccn3)cc2)c2[nH]nc(C(C)C)c2n1

>  <Name>  (425) 
nan

>  <Pocket>  (425) 
nan

>  <ATP_Site>  (425) 
nan

>  <Peripheral>  (425) 
nan

>  <Num_H_Atoms_ProtBoundConf>  (425) 
nan

>  <Num_Resolved_Atoms>  (425) 
nan

>  <Num_Not_Resolved_Atoms>  (425) 
nan

$$$$
CHEMBL3774885
     RDKit          3D

  0  0  0  0  0  0  0  0  0  0999 V3000
M  V30 BEGIN CTAB
M  V30 COUNTS 53 57 0 0 0
M  V30 BEGIN ATOM
M  V30 1 C -0.961749 -1.051373 7.572814 0
M  V30 2 N -0.175605 -1.606427 6.481339 0
M  V30 3 C 0.291231 -0.774837 5.506270 0
M  V30 4 C 0.999202 -1.540176 4.595851 0
M  V30 5 C 1.679446 -1.093157 3.393076 0
M  V30 6 C 2.289950 0.127013 3.204193 0
M  V30 7 C 2.929546 0.554204 2.062084 0
M  V30 8 C 2.950329 -0.342625 1.014435 0
M  V30 9 C 3.590018 -0.102157 -0.293240 0
M  V30 10 C 2.774674 0.788290 -1.186283 0
M  V30 11 N 3.081482 2.086798 -1.476746 0
M  V30 12 N 2.191312 2.608629 -2.299160 0
M  V30 13 C 1.257995 1.696468 -2.593610 0
M  V30 14 C 0.135741 1.754262 -3.390157 0
M  V30 15 C -0.650508 0.627347 -3.491605 0
M  V30 16 C -0.286659 -0.505054 -2.797698 0
M  V30 17 C -1.176451 -1.669907 -2.943371 0
M  V30 18 O -0.638714 -2.670003 -3.518765 0
M  V30 19 N -2.446096 -1.359431 -2.384250 0
M  V30 20 C -2.996981 -0.181036 -1.727686 0
M  V30 21 C -3.484455 -0.606586 -0.370825 0
M  V30 22 O -3.345736 -1.983234 -0.151630 0
M  V30 23 C -4.022433 -2.721968 -1.110133 0
M  V30 24 C -3.467473 -2.387303 -2.455116 0
M  V30 25 C 0.856317 -0.572217 -1.983384 0
M  V30 26 C 1.617896 0.562338 -1.902577 0
M  V30 27 C 2.344990 -1.595536 1.152598 0
M  V30 28 C 1.720582 -1.961627 2.324336 0
M  V30 29 C 0.938827 -2.843997 5.058021 0
M  V30 30 N 0.216962 -2.862954 6.210142 0
M  V30 31 H -1.968922 -0.732449 7.230971 0
M  V30 32 H -0.439493 -0.139931 7.937896 0
M  V30 33 H -1.041774 -1.791446 8.410832 0
M  V30 34 H 0.178361 0.285942 5.386783 0
M  V30 35 H 2.243148 0.802364 4.076228 0
M  V30 36 H 3.394392 1.509085 1.945788 0
M  V30 37 H 3.840684 -1.046071 -0.801750 0
M  V30 38 H 4.535830 0.460287 -0.063740 0
M  V30 39 H 2.270319 3.609011 -2.632888 0
M  V30 40 H -0.090157 2.667665 -3.900490 0
M  V30 41 H -1.535782 0.628671 -4.103099 0
M  V30 42 H -3.895431 0.124677 -2.330907 0
M  V30 43 H -2.340537 0.683236 -1.713841 0
M  V30 44 H -2.927667 -0.119826 0.474384 0
M  V30 45 H -4.555425 -0.366619 -0.213148 0
M  V30 46 H -3.851176 -3.784469 -0.892074 0
M  V30 47 H -5.131343 -2.508560 -1.076968 0
M  V30 48 H -3.101546 -3.271850 -3.010599 0
M  V30 49 H -4.298105 -1.914218 -3.063372 0
M  V30 50 H 1.108551 -1.479981 -1.457710 0
M  V30 51 H 2.331593 -2.342082 0.371126 0
M  V30 52 H 1.251082 -2.946858 2.419245 0
M  V30 53 H 1.395821 -3.714308 4.576014 0
M  V30 END ATOM
M  V30 BEGIN BOND
M  V30 1 1 1 2
M  V30 2 1 2 3
M  V30 3 2 3 4
M  V30 4 1 4 5
M  V30 5 2 5 6
M  V30 6 1 6 7
M  V30 7 2 7 8
M  V30 8 1 8 9
M  V30 9 1 9 10
M  V30 10 2 10 11
M  V30 11 1 11 12
M  V30 12 1 12 13
M  V30 13 2 13 14
M  V30 14 1 14 15
M  V30 15 2 15 16
M  V30 16 1 16 17
M  V30 17 2 17 18
M  V30 18 1 17 19
M  V30 19 1 19 20
M  V30 20 1 20 21
M  V30 21 1 21 22
M  V30 22 1 22 23
M  V30 23 1 23 24
M  V30 24 1 16 25
M  V30 25 2 25 26
M  V30 26 1 8 27
M  V30 27 2 27 28
M  V30 28 1 4 29
M  V30 29 2 29 30
M  V30 30 1 30 2
M  V30 31 1 28 5
M  V30 32 1 26 10
M  V30 33 1 26 13
M  V30 34 1 24 19
M  V30 35 1 1 31
M  V30 36 1 1 32
M  V30 37 1 1 33
M  V30 38 1 3 34
M  V30 39 1 6 35
M  V30 40 1 7 36
M  V30 41 1 9 37
M  V30 42 1 9 38
M  V30 43 1 12 39
M  V30 44 1 14 40
M  V30 45 1 15 41
M  V30 46 1 20 42
M  V30 47 1 20 43
M  V30 48 1 21 44
M  V30 49 1 21 45
M  V30 50 1 23 46
M  V30 51 1 23 47
M  V30 52 1 24 48
M  V30 53 1 24 49
M  V30 54 1 25 50
M  V30 55 1 27 51
M  V30 56 1 28 52
M  V30 57 1 29 53
M  V30 END BOND
M  V30 END CTAB
M  END
>  <Dataset>  (426) 
ChEMBL_Kinases

>  <Ligand_Instance>  (426) 
nan

>  <PDB_ID>  (426) 
nan

>  <Standardized_SMILES>  (426) 
Cn1cc(-c2ccc(Cc3n[nH]c4ccc(C(=O)N5CCOCC5)cc34)cc2)cn1

>  <Name>  (426) 
nan

>  <Pocket>  (426) 
nan

>  <ATP_Site>  (426) 
nan

>  <Peripheral>  (426) 
nan

>  <Num_H_Atoms_ProtBoundConf>  (426) 
nan

>  <Num_Resolved_Atoms>  (426) 
nan

>  <Num_Not_Resolved_Atoms>  (426) 
nan

$$$$
CHEMBL5084042
     RDKit          3D

  0  0  0  0  0  0  0  0  0  0999 V3000
M  V30 BEGIN CTAB
M  V30 COUNTS 56 59 0 0 0
M  V30 BEGIN ATOM
M  V30 1 C 4.602524 -2.000479 2.929596 0
M  V30 2 N 4.932818 -0.603648 3.081335 0
M  V30 3 C 6.359096 -0.457356 3.409388 0
M  V30 4 C 4.186544 0.588367 2.983389 0
M  V30 5 O 4.929327 1.612696 3.200282 0
M  V30 6 C 2.826861 1.000668 2.709743 0
M  V30 7 C 2.556273 2.346298 2.696817 0
M  V30 8 N 3.516679 3.361167 2.928914 0
M  V30 9 C 1.269964 2.830465 2.444126 0
M  V30 10 C 0.250622 1.943488 2.202765 0
M  V30 11 C 0.454575 0.592892 2.201672 0
M  V30 12 C -0.633068 -0.341215 1.944299 0
M  V30 13 C -1.397538 -0.827590 2.984533 0
M  V30 14 N -2.396924 -1.689344 2.721371 0
M  V30 15 C -2.650938 -2.077802 1.437352 0
M  V30 16 C -1.925144 -1.633894 0.321338 0
M  V30 17 C -0.912858 -0.754264 0.636516 0
M  V30 18 Cl 0.075502 -0.113348 -0.620316 0
M  V30 19 C -2.470323 -2.252811 -0.894843 0 CFG=1
M  V30 20 C -3.684047 -1.437179 -1.287474 0
M  V30 21 C -4.129192 -1.800722 -2.684041 0
M  V30 22 C -3.042986 -1.318639 -3.615668 0 CFG=2
M  V30 23 C -3.081671 0.196710 -3.767549 0
M  V30 24 O -3.426532 -1.802746 -4.883689 0
M  V30 25 C -1.682044 -1.806433 -3.263426 0
M  V30 26 C -1.562113 -2.581907 -1.988284 0
M  V30 27 C -3.044543 -3.526172 -0.293533 0
M  V30 28 N -3.651669 -2.975167 0.927051 0
M  V30 29 C 1.744767 0.194009 2.457997 0
M  V30 30 F 1.908126 -1.142851 2.452431 0
M  V30 31 H 4.199538 -2.262888 1.925572 0
M  V30 32 H 5.540657 -2.627574 3.008053 0
M  V30 33 H 3.867902 -2.370210 3.683678 0
M  V30 34 H 6.520925 -0.993106 4.366572 0
M  V30 35 H 6.676479 0.582956 3.456887 0
M  V30 36 H 6.942984 -1.018455 2.628923 0
M  V30 37 H 4.106695 3.752723 2.151914 0
M  V30 38 H 3.430332 3.530557 3.941293 0
M  V30 39 H 1.056645 3.883987 2.433689 0
M  V30 40 H -0.729644 2.341409 2.011060 0
M  V30 41 H -1.167618 -0.498579 3.984395 0
M  V30 42 H -4.557284 -1.616743 -0.624694 0
M  V30 43 H -3.427340 -0.362855 -1.169253 0
M  V30 44 H -4.182358 -2.887487 -2.732715 0
M  V30 45 H -5.060222 -1.276415 -2.910283 0
M  V30 46 H -3.894547 0.654417 -3.187650 0
M  V30 47 H -2.119983 0.603853 -3.349074 0
M  V30 48 H -3.138374 0.544195 -4.796970 0
M  V30 49 H -4.326490 -1.447402 -5.086099 0
M  V30 50 H -0.985157 -0.917764 -3.306902 0
M  V30 51 H -1.289784 -2.441360 -4.098438 0
M  V30 52 H -1.628580 -3.662510 -2.240134 0
M  V30 53 H -0.490491 -2.476652 -1.644513 0
M  V30 54 H -3.824433 -3.963571 -0.967914 0
M  V30 55 H -2.226176 -4.217729 -0.063541 0
M  V30 56 H -4.592261 -3.181855 1.336896 0
M  V30 END ATOM
M  V30 BEGIN BOND
M  V30 1 1 1 2
M  V30 2 1 2 3
M  V30 3 1 2 4
M  V30 4 2 4 5
M  V30 5 1 4 6
M  V30 6 2 6 7
M  V30 7 1 7 8
M  V30 8 1 7 9
M  V30 9 2 9 10
M  V30 10 1 10 11
M  V30 11 1 11 12
M  V30 12 2 12 13
M  V30 13 1 13 14
M  V30 14 2 14 15
M  V30 15 1 15 16
M  V30 16 2 16 17
M  V30 17 1 17 18
M  V30 18 1 16 19
M  V30 19 1 19 20 CFG=3
M  V30 20 1 20 21
M  V30 21 1 21 22
M  V30 22 1 22 23
M  V30 23 1 22 24 CFG=3
M  V30 24 1 22 25
M  V30 25 1 25 26
M  V30 26 1 19 27
M  V30 27 1 27 28
M  V30 28 2 11 29
M  V30 29 1 29 30
M  V30 30 1 29 6
M  V30 31 1 17 12
M  V30 32 1 26 19
M  V30 33 1 28 15
M  V30 34 1 1 31
M  V30 35 1 1 32
M  V30 36 1 1 33
M  V30 37 1 3 34
M  V30 38 1 3 35
M  V30 39 1 3 36
M  V30 40 1 8 37
M  V30 41 1 8 38
M  V30 42 1 9 39
M  V30 43 1 10 40
M  V30 44 1 13 41
M  V30 45 1 20 42
M  V30 46 1 20 43
M  V30 47 1 21 44
M  V30 48 1 21 45
M  V30 49 1 23 46
M  V30 50 1 23 47
M  V30 51 1 23 48
M  V30 52 1 24 49
M  V30 53 1 25 50
M  V30 54 1 25 51
M  V30 55 1 26 52
M  V30 56 1 26 53
M  V30 57 1 27 54
M  V30 58 1 27 55
M  V30 59 1 28 56
M  V30 END BOND
M  V30 END CTAB
M  END
>  <Dataset>  (427) 
ChEMBL_Kinases

>  <Ligand_Instance>  (427) 
nan

>  <PDB_ID>  (427) 
nan

>  <Standardized_SMILES>  (427) 
CN(C)C(=O)c1c(N)ccc(-c2cnc3c(c2Cl)[C@]2(CC[C@](C)(O)CC2)CN3)c1F

>  <Name>  (427) 
nan

>  <Pocket>  (427) 
nan

>  <ATP_Site>  (427) 
nan

>  <Peripheral>  (427) 
nan

>  <Num_H_Atoms_ProtBoundConf>  (427) 
nan

>  <Num_Resolved_Atoms>  (427) 
nan

>  <Num_Not_Resolved_Atoms>  (427) 
nan

$$$$
CHEMBL3775608
     RDKit          3D

  0  0  0  0  0  0  0  0  0  0999 V3000
M  V30 BEGIN CTAB
M  V30 COUNTS 60 63 0 0 0
M  V30 BEGIN ATOM
M  V30 1 C 3.228206 -1.949200 4.653734 0
M  V30 2 C 4.176736 -2.152997 3.478741 0
M  V30 3 C 5.609783 -1.969157 3.921048 0
M  V30 4 C 3.854655 -1.204816 2.374979 0
M  V30 5 N 4.378978 0.038316 2.181219 0
M  V30 6 N 3.842029 0.566328 1.090657 0
M  V30 7 C 2.962238 -0.332457 0.566157 0
M  V30 8 C 2.169762 -0.202810 -0.577403 0
M  V30 9 N 2.209896 0.966575 -1.383081 0
M  V30 10 C 1.441412 1.212052 -2.573969 0
M  V30 11 C -0.020726 1.272109 -2.331239 0
M  V30 12 C -0.405238 2.575053 -1.975861 0
M  V30 13 C -1.749667 2.863427 -1.701626 0
M  V30 14 C -2.686275 1.856910 -1.784633 0
M  V30 15 C -4.074471 2.190098 -1.490159 0
M  V30 16 C -5.134289 1.311223 -1.524318 0
M  V30 17 C -6.431031 1.732925 -1.222276 0
M  V30 18 C -6.689335 3.048523 -0.879285 0
M  V30 19 C -5.605989 3.899894 -0.855378 0
M  V30 20 N -4.369221 3.461367 -1.151719 0
M  V30 21 C -2.316561 0.567433 -2.134843 0
M  V30 22 C -0.989968 0.298833 -2.402057 0
M  V30 23 N 1.397861 -1.270861 -0.835310 0
M  V30 24 C 1.351493 -2.390865 -0.095497 0
M  V30 25 N 0.510824 -3.476568 -0.434296 0
M  V30 26 C -0.823655 -3.885338 -0.051005 0
M  V30 27 C -0.821089 -4.151889 1.448576 0
M  V30 28 N 0.145452 -5.215901 1.754434 0
M  V30 29 C -2.184737 -4.710485 1.855308 0
M  V30 30 O -3.207662 -3.793260 1.619884 0
M  V30 31 N 2.147339 -2.461989 1.010009 0
M  V30 32 C 2.955402 -1.455674 1.360904 0
M  V30 33 H 2.446856 -2.744388 4.697437 0
M  V30 34 H 3.790174 -2.033248 5.608297 0
M  V30 35 H 2.723664 -0.968801 4.620489 0
M  V30 36 H 4.043829 -3.205290 3.165037 0
M  V30 37 H 6.092200 -2.954363 4.019541 0
M  V30 38 H 5.578893 -1.533537 4.952542 0
M  V30 39 H 6.164643 -1.282268 3.244096 0
M  V30 40 H 4.061642 1.519793 0.701297 0
M  V30 41 H 2.865945 1.726383 -1.064164 0
M  V30 42 H 1.692816 0.350430 -3.270160 0
M  V30 43 H 1.810630 2.095381 -3.101745 0
M  V30 44 H 0.262682 3.441336 -1.883135 0
M  V30 45 H -2.038417 3.885651 -1.424446 0
M  V30 46 H -4.933844 0.295188 -1.788807 0
M  V30 47 H -7.260411 1.061053 -1.244995 0
M  V30 48 H -7.683132 3.424271 -0.635263 0
M  V30 49 H -5.699085 4.954307 -0.598792 0
M  V30 50 H -3.021262 -0.238832 -2.209406 0
M  V30 51 H -0.581465 -0.656300 -2.687237 0
M  V30 52 H 1.076860 -4.057324 -1.121965 0
M  V30 53 H -1.539605 -3.042950 -0.193988 0
M  V30 54 H -1.155986 -4.774697 -0.588324 0
M  V30 55 H -0.591315 -3.219702 1.957939 0
M  V30 56 H -0.307261 -6.156271 1.816749 0
M  V30 57 H 0.603633 -4.972079 2.660276 0
M  V30 58 H -2.159651 -4.948486 2.941790 0
M  V30 59 H -2.363093 -5.652910 1.291255 0
M  V30 60 H -2.795416 -2.894111 1.488861 0
M  V30 END ATOM
M  V30 BEGIN BOND
M  V30 1 1 1 2
M  V30 2 1 2 3
M  V30 3 1 2 4
M  V30 4 2 4 5
M  V30 5 1 5 6
M  V30 6 1 6 7
M  V30 7 2 7 8
M  V30 8 1 8 9
M  V30 9 1 9 10
M  V30 10 1 10 11
M  V30 11 2 11 12
M  V30 12 1 12 13
M  V30 13 2 13 14
M  V30 14 1 14 15
M  V30 15 2 15 16
M  V30 16 1 16 17
M  V30 17 2 17 18
M  V30 18 1 18 19
M  V30 19 2 19 20
M  V30 20 1 14 21
M  V30 21 2 21 22
M  V30 22 1 8 23
M  V30 23 2 23 24
M  V30 24 1 24 25
M  V30 25 1 25 26
M  V30 26 1 26 27
M  V30 27 1 27 28
M  V30 28 1 27 29
M  V30 29 1 29 30
M  V30 30 1 24 31
M  V30 31 2 31 32
M  V30 32 1 32 4
M  V30 33 1 32 7
M  V30 34 1 22 11
M  V30 35 1 20 15
M  V30 36 1 1 33
M  V30 37 1 1 34
M  V30 38 1 1 35
M  V30 39 1 2 36
M  V30 40 1 3 37
M  V30 41 1 3 38
M  V30 42 1 3 39
M  V30 43 1 6 40
M  V30 44 1 9 41
M  V30 45 1 10 42
M  V30 46 1 10 43
M  V30 47 1 12 44
M  V30 48 1 13 45
M  V30 49 1 16 46
M  V30 50 1 17 47
M  V30 51 1 18 48
M  V30 52 1 19 49
M  V30 53 1 21 50
M  V30 54 1 22 51
M  V30 55 1 25 52
M  V30 56 1 26 53
M  V30 57 1 26 54
M  V30 58 1 27 55
M  V30 59 1 28 56
M  V30 60 1 28 57
M  V30 61 1 29 58
M  V30 62 1 29 59
M  V30 63 1 30 60
M  V30 END BOND
M  V30 END CTAB
M  END
>  <Dataset>  (428) 
ChEMBL_Kinases

>  <Ligand_Instance>  (428) 
nan

>  <PDB_ID>  (428) 
nan

>  <Standardized_SMILES>  (428) 
CC(C)c1n[nH]c2c(NCc3ccc(-c4ccccn4)cc3)nc(NCC(N)CO)nc12

>  <Name>  (428) 
nan

>  <Pocket>  (428) 
nan

>  <ATP_Site>  (428) 
nan

>  <Peripheral>  (428) 
nan

>  <Num_H_Atoms_ProtBoundConf>  (428) 
nan

>  <Num_Resolved_Atoms>  (428) 
nan

>  <Num_Not_Resolved_Atoms>  (428) 
nan

$$$$
CHEMBL3774757
     RDKit          3D

  0  0  0  0  0  0  0  0  0  0999 V3000
M  V30 BEGIN CTAB
M  V30 COUNTS 48 52 0 0 0
M  V30 BEGIN ATOM
M  V30 1 C -1.336321 -7.394661 2.188803 0
M  V30 2 N -0.506355 -6.800129 1.153252 0
M  V30 3 C -0.510902 -5.457558 1.059075 0
M  V30 4 C 0.335210 -5.098014 0.022379 0
M  V30 5 C 0.663023 -3.763441 -0.468407 0
M  V30 6 C 1.846865 -3.339572 -1.033910 0
M  V30 7 C 1.998917 -2.033269 -1.450770 0
M  V30 8 C 0.971345 -1.110522 -1.314835 0
M  V30 9 C 1.341023 0.231989 -1.824564 0
M  V30 10 C 1.975915 1.101923 -0.818999 0
M  V30 11 N 3.306077 1.347612 -0.783182 0
M  V30 12 N 3.609114 2.157247 0.220272 0
M  V30 13 C 2.502164 2.495313 0.906758 0
M  V30 14 C 2.254934 3.289252 2.008122 0
M  V30 15 C 0.954290 3.413636 2.453479 0
M  V30 16 C -0.065238 2.750175 1.798200 0
M  V30 17 C -1.452983 2.856993 2.240008 0
M  V30 18 N -1.761980 1.957637 3.216627 0
M  V30 19 C -3.049750 2.095812 3.589792 0
M  V30 20 C -3.509861 3.123342 2.792746 0
M  V30 21 N -2.555125 3.587699 1.976907 0
M  V30 22 C -2.434232 4.596377 0.969897 0
M  V30 23 C 0.185364 1.944725 0.680998 0
M  V30 24 C 1.489384 1.829089 0.246606 0
M  V30 25 C -0.211465 -1.535252 -0.749567 0
M  V30 26 C -0.368004 -2.838493 -0.331783 0
M  V30 27 C 0.839436 -6.287153 -0.491374 0
M  V30 28 N 0.305701 -7.320306 0.222489 0
M  V30 29 H -2.349901 -6.927850 2.209809 0
M  V30 30 H -0.864802 -7.128228 3.173152 0
M  V30 31 H -1.407288 -8.511736 2.065243 0
M  V30 32 H -1.019797 -4.687345 1.609745 0
M  V30 33 H 2.600242 -4.104979 -1.109415 0
M  V30 34 H 2.996337 -1.853207 -1.878287 0
M  V30 35 H 1.957814 0.170395 -2.729905 0
M  V30 36 H 0.359812 0.735206 -2.073795 0
M  V30 37 H 4.579800 2.481653 0.438144 0
M  V30 38 H 3.080170 3.803133 2.507926 0
M  V30 39 H 0.731153 4.030157 3.315337 0
M  V30 40 H -3.623053 1.553675 4.330366 0
M  V30 41 H -4.493502 3.574635 2.748564 0
M  V30 42 H -2.432065 4.207245 -0.064382 0
M  V30 43 H -3.305291 5.295904 1.078863 0
M  V30 44 H -1.516550 5.222211 1.099984 0
M  V30 45 H -0.607330 1.441989 0.186970 0
M  V30 46 H -0.956771 -0.757594 -0.681577 0
M  V30 47 H -1.334985 -3.066864 0.097464 0
M  V30 48 H 1.533485 -6.446061 -1.308499 0
M  V30 END ATOM
M  V30 BEGIN BOND
M  V30 1 1 1 2
M  V30 2 1 2 3
M  V30 3 2 3 4
M  V30 4 1 4 5
M  V30 5 2 5 6
M  V30 6 1 6 7
M  V30 7 2 7 8
M  V30 8 1 8 9
M  V30 9 1 9 10
M  V30 10 2 10 11
M  V30 11 1 11 12
M  V30 12 1 12 13
M  V30 13 2 13 14
M  V30 14 1 14 15
M  V30 15 2 15 16
M  V30 16 1 16 17
M  V30 17 2 17 18
M  V30 18 1 18 19
M  V30 19 2 19 20
M  V30 20 1 20 21
M  V30 21 1 21 22
M  V30 22 1 16 23
M  V30 23 2 23 24
M  V30 24 1 8 25
M  V30 25 2 25 26
M  V30 26 1 4 27
M  V30 27 2 27 28
M  V30 28 1 28 2
M  V30 29 1 26 5
M  V30 30 1 24 10
M  V30 31 1 24 13
M  V30 32 1 21 17
M  V30 33 1 1 29
M  V30 34 1 1 30
M  V30 35 1 1 31
M  V30 36 1 3 32
M  V30 37 1 6 33
M  V30 38 1 7 34
M  V30 39 1 9 35
M  V30 40 1 9 36
M  V30 41 1 12 37
M  V30 42 1 14 38
M  V30 43 1 15 39
M  V30 44 1 19 40
M  V30 45 1 20 41
M  V30 46 1 22 42
M  V30 47 1 22 43
M  V30 48 1 22 44
M  V30 49 1 23 45
M  V30 50 1 25 46
M  V30 51 1 26 47
M  V30 52 1 27 48
M  V30 END BOND
M  V30 END CTAB
M  END
>  <Dataset>  (429) 
ChEMBL_Kinases

>  <Ligand_Instance>  (429) 
nan

>  <PDB_ID>  (429) 
nan

>  <Standardized_SMILES>  (429) 
Cn1cc(-c2ccc(Cc3n[nH]c4ccc(-c5nccn5C)cc34)cc2)cn1

>  <Name>  (429) 
nan

>  <Pocket>  (429) 
nan

>  <ATP_Site>  (429) 
nan

>  <Peripheral>  (429) 
nan

>  <Num_H_Atoms_ProtBoundConf>  (429) 
nan

>  <Num_Resolved_Atoms>  (429) 
nan

>  <Num_Not_Resolved_Atoms>  (429) 
nan

$$$$
CHEMBL5084062
     RDKit          3D

  0  0  0  0  0  0  0  0  0  0999 V3000
M  V30 BEGIN CTAB
M  V30 COUNTS 101 107 0 0 0
M  V30 BEGIN ATOM
M  V30 1 C 3.865766 -1.998459 4.384825 0
M  V30 2 C 4.632751 -0.706046 4.495773 0
M  V30 3 C 4.951084 -0.334543 5.887192 0
M  V30 4 C 6.246775 -0.471530 6.330582 0
M  V30 5 C 6.564610 -0.115352 7.616527 0
M  V30 6 C 5.549380 0.366934 8.413165 0
M  V30 7 C 4.209920 0.519782 7.997305 0
M  V30 8 C 3.089228 0.946639 8.817242 0
M  V30 9 C 2.529369 2.307277 8.596276 0
M  V30 10 C 3.899463 0.154031 6.674071 0
M  V30 11 N 2.631605 0.295824 6.027370 0
M  V30 12 C 1.429711 -0.432523 6.097272 0
M  V30 13 O 1.267497 -1.422856 6.847308 0
M  V30 14 C 0.374253 0.028814 5.225944 0
M  V30 15 C -0.835968 -0.605505 5.103389 0
M  V30 16 C -1.710686 -0.105490 4.244270 0
M  V30 17 C -3.020492 0.008728 3.561132 0
M  V30 18 N -2.965855 -0.201955 2.197385 0
M  V30 19 C -4.125536 -0.022196 1.434481 0
M  V30 20 N -3.821441 -0.344866 0.123527 0
M  V30 21 C -3.851813 -1.044278 -1.064725 0
M  V30 22 C -5.029662 -1.605759 -1.525113 0
M  V30 23 C -5.011862 -2.187630 -2.786628 0
M  V30 24 C -3.874171 -2.216330 -3.557286 0
M  V30 25 N -3.640531 -2.680311 -4.911354 0
M  V30 26 C -2.559980 -3.611037 -5.119742 0
M  V30 27 C -1.518826 -2.953464 -5.940055 0
M  V30 28 C -2.001586 -1.713008 -6.660973 0
M  V30 29 O -1.847677 -0.533809 -5.916970 0
M  V30 30 C -1.042109 -1.541533 -7.806389 0
M  V30 31 O -0.993702 -2.462271 -8.683741 0
M  V30 32 N -0.104969 -0.594058 -8.220693 0
M  V30 33 C 0.677833 -0.925836 -9.422410 0
M  V30 34 C 2.121170 -0.978990 -8.913994 0
M  V30 35 N 2.179526 -0.783259 -7.497108 0
M  V30 36 C 3.374424 -1.231367 -6.879774 0
M  V30 37 C 1.737339 0.527296 -7.119170 0
M  V30 38 C 0.358660 0.719035 -7.740180 0
M  V30 39 C -3.377602 -1.823769 -7.170169 0
M  V30 40 C -4.320162 -2.369254 -6.146306 0
M  V30 41 C -2.713046 -1.667092 -3.094032 0
M  V30 42 C -2.676085 -1.077335 -1.863775 0
M  V30 43 O -1.569047 -0.475881 -1.265028 0
M  V30 44 C -0.359328 -0.456216 -1.979330 0
M  V30 45 N -5.289886 0.351456 2.008558 0
M  V30 46 C -5.338171 0.549910 3.336129 0
M  V30 47 N -6.297234 0.895416 4.243074 0
M  V30 48 C -5.735805 0.912699 5.455878 0
M  V30 49 C -4.364359 0.580596 5.434450 0
M  V30 50 C -4.206694 0.376330 4.091484 0
M  V30 51 N -0.969925 1.004756 3.746685 0
M  V30 52 C -1.116161 2.130675 2.796309 0
M  V30 53 N 0.236005 1.011622 4.366881 0
M  V30 54 H 4.491937 -2.772081 3.914089 0
M  V30 55 H 2.924594 -1.872930 3.805470 0
M  V30 56 H 3.600529 -2.297117 5.409202 0
M  V30 57 H 5.579420 -0.829861 3.942719 0
M  V30 58 H 4.112259 0.134934 3.977957 0
M  V30 59 H 7.089279 -0.837562 5.774582 0
M  V30 60 H 7.468423 -0.114342 8.199222 0
M  V30 61 H 5.586118 0.695294 9.434167 0
M  V30 62 H 2.265856 0.153694 8.842765 0
M  V30 63 H 3.431820 0.902765 9.903254 0
M  V30 64 H 1.430600 2.338346 8.772269 0
M  V30 65 H 3.010230 3.023950 9.298855 0
M  V30 66 H 2.804014 2.661666 7.590839 0
M  V30 67 H 2.817821 1.124072 5.403349 0
M  V30 68 H -1.283342 -1.474492 5.563647 0
M  V30 69 H -3.263398 0.550217 -0.078435 0
M  V30 70 H -5.980132 -1.642074 -1.021752 0
M  V30 71 H -5.822800 -2.671091 -3.316264 0
M  V30 72 H -2.934841 -4.505828 -5.698649 0
M  V30 73 H -2.119001 -3.984301 -4.183901 0
M  V30 74 H -1.071885 -3.637808 -6.709647 0
M  V30 75 H -0.649807 -2.661351 -5.312313 0
M  V30 76 H -0.955587 -0.552069 -5.467474 0
M  V30 77 H 0.549238 -0.130018 -10.172626 0
M  V30 78 H 0.442169 -1.907608 -9.828908 0
M  V30 79 H 2.589458 -1.966724 -9.150154 0
M  V30 80 H 2.707358 -0.207324 -9.448988 0
M  V30 81 H 3.413262 -0.783787 -5.848162 0
M  V30 82 H 3.438603 -2.334265 -6.821645 0
M  V30 83 H 4.232944 -0.836584 -7.498062 0
M  V30 84 H 1.629199 0.563982 -6.008496 0
M  V30 85 H 2.431975 1.337734 -7.391139 0
M  V30 86 H -0.330596 1.131414 -6.983656 0
M  V30 87 H 0.431959 1.391468 -8.607293 0
M  V30 88 H -3.739323 -0.763838 -7.422885 0
M  V30 89 H -3.449066 -2.377257 -8.150235 0
M  V30 90 H -5.144760 -1.625183 -5.984661 0
M  V30 91 H -4.741009 -3.318942 -6.593972 0
M  V30 92 H -1.738391 -1.625565 -3.524439 0
M  V30 93 H -0.582423 -0.042083 -2.987423 0
M  V30 94 H 0.450435 0.057186 -1.433520 0
M  V30 95 H 0.013552 -1.493761 -2.183251 0
M  V30 96 H -7.293097 1.113218 4.017648 0
M  V30 97 H -6.228115 1.144647 6.422927 0
M  V30 98 H -3.708906 0.524000 6.291748 0
M  V30 99 H -0.269676 2.107740 2.099391 0
M  V30 100 H -2.075383 2.090933 2.290751 0
M  V30 101 H -1.103902 3.102180 3.379279 0
M  V30 END ATOM
M  V30 BEGIN BOND
M  V30 1 1 1 2
M  V30 2 1 2 3
M  V30 3 2 3 4
M  V30 4 1 4 5
M  V30 5 2 5 6
M  V30 6 1 6 7
M  V30 7 1 7 8
M  V30 8 1 8 9
M  V30 9 2 7 10
M  V30 10 1 10 11
M  V30 11 1 11 12
M  V30 12 2 12 13
M  V30 13 1 12 14
M  V30 14 1 14 15
M  V30 15 2 15 16
M  V30 16 1 16 17
M  V30 17 2 17 18
M  V30 18 1 18 19
M  V30 19 1 19 20
M  V30 20 1 20 21
M  V30 21 2 21 22
M  V30 22 1 22 23
M  V30 23 2 23 24
M  V30 24 1 24 25
M  V30 25 1 25 26
M  V30 26 1 26 27
M  V30 27 1 27 28
M  V30 28 1 28 29
M  V30 29 1 28 30
M  V30 30 2 30 31
M  V30 31 1 30 32
M  V30 32 1 32 33
M  V30 33 1 33 34
M  V30 34 1 34 35
M  V30 35 1 35 36
M  V30 36 1 35 37
M  V30 37 1 37 38
M  V30 38 1 28 39
M  V30 39 1 39 40
M  V30 40 1 24 41
M  V30 41 2 41 42
M  V30 42 1 42 43
M  V30 43 1 43 44
M  V30 44 2 19 45
M  V30 45 1 45 46
M  V30 46 1 46 47
M  V30 47 1 47 48
M  V30 48 2 48 49
M  V30 49 1 49 50
M  V30 50 1 16 51
M  V30 51 1 51 52
M  V30 52 1 51 53
M  V30 53 1 10 3
M  V30 54 2 53 14
M  V30 55 1 50 17
M  V30 56 1 42 21
M  V30 57 2 50 46
M  V30 58 1 40 25
M  V30 59 1 38 32
M  V30 60 1 1 54
M  V30 61 1 1 55
M  V30 62 1 1 56
M  V30 63 1 2 57
M  V30 64 1 2 58
M  V30 65 1 4 59
M  V30 66 1 5 60
M  V30 67 1 6 61
M  V30 68 1 8 62
M  V30 69 1 8 63
M  V30 70 1 9 64
M  V30 71 1 9 65
M  V30 72 1 9 66
M  V30 73 1 11 67
M  V30 74 1 15 68
M  V30 75 1 20 69
M  V30 76 1 22 70
M  V30 77 1 23 71
M  V30 78 1 26 72
M  V30 79 1 26 73
M  V30 80 1 27 74
M  V30 81 1 27 75
M  V30 82 1 29 76
M  V30 83 1 33 77
M  V30 84 1 33 78
M  V30 85 1 34 79
M  V30 86 1 34 80
M  V30 87 1 36 81
M  V30 88 1 36 82
M  V30 89 1 36 83
M  V30 90 1 37 84
M  V30 91 1 37 85
M  V30 92 1 38 86
M  V30 93 1 38 87
M  V30 94 1 39 88
M  V30 95 1 39 89
M  V30 96 1 40 90
M  V30 97 1 40 91
M  V30 98 1 41 92
M  V30 99 1 44 93
M  V30 100 1 44 94
M  V30 101 1 44 95
M  V30 102 1 47 96
M  V30 103 1 48 97
M  V30 104 1 49 98
M  V30 105 1 52 99
M  V30 106 1 52 100
M  V30 107 1 52 101
M  V30 END BOND
M  V30 END CTAB
M  END
>  <Dataset>  (430) 
ChEMBL_Kinases

>  <Ligand_Instance>  (430) 
nan

>  <PDB_ID>  (430) 
nan

>  <Standardized_SMILES>  (430) 
CCc1cccc(CC)c1NC(=O)c1cc(-c2nc(Nc3ccc(N4CCC(O)(C(=O)N5CCN(C)CC5)CC4)cc3OC)nc3[nH]ccc23)n(C)n1

>  <Name>  (430) 
nan

>  <Pocket>  (430) 
nan

>  <ATP_Site>  (430) 
nan

>  <Peripheral>  (430) 
nan

>  <Num_H_Atoms_ProtBoundConf>  (430) 
nan

>  <Num_Resolved_Atoms>  (430) 
nan

>  <Num_Not_Resolved_Atoms>  (430) 
nan

$$$$
CHEMBL508412
     RDKit          3D

  0  0  0  0  0  0  0  0  0  0999 V3000
M  V30 BEGIN CTAB
M  V30 COUNTS 63 68 0 0 0
M  V30 BEGIN ATOM
M  V30 1 C 1.521525 -2.281620 3.918967 0
M  V30 2 N 2.830348 -2.555576 3.369377 0
M  V30 3 C 2.849342 -3.021195 2.032851 0
M  V30 4 C 3.159352 -1.993815 0.981727 0
M  V30 5 N 3.262508 -0.704857 1.590120 0
M  V30 6 C 3.402731 0.398413 0.695569 0
M  V30 7 C 2.157597 0.627744 -0.094508 0
M  V30 8 C 1.003707 0.923786 0.838390 0
M  V30 9 N -0.243565 1.164812 0.135500 0
M  V30 10 C -0.685877 2.380520 -0.301515 0
M  V30 11 C -0.033251 3.609004 -0.159836 0
M  V30 12 C -0.579413 4.779175 -0.643586 0
M  V30 13 C -1.821468 4.700645 -1.288688 0
M  V30 14 O -2.402232 5.861707 -1.789213 0
M  V30 15 C -2.407715 3.458446 -1.392884 0
M  V30 16 C -1.907948 2.296158 -0.935018 0
M  V30 17 C -2.210172 0.980160 -0.875871 0
M  V30 18 C -3.291410 0.291561 -1.333207 0
M  V30 19 C -3.404684 -1.066168 -1.165991 0
M  V30 20 C -2.391524 -1.777199 -0.510394 0
M  V30 21 C -2.488556 -3.220643 -0.320772 0
M  V30 22 C -1.962269 -4.024398 -1.311568 0
M  V30 23 C -2.001209 -5.399809 -1.234764 0
M  V30 24 C -2.583694 -6.039706 -0.134354 0
M  V30 25 C -3.096872 -5.200643 0.831811 0
M  V30 26 C -3.069660 -3.822737 0.776945 0
M  V30 27 Cl -3.736427 -2.802806 2.032478 0
M  V30 28 C -1.297673 -1.078270 -0.048229 0
M  V30 29 C -1.216253 0.278684 -0.232241 0
M  V30 30 C -4.641435 -1.627404 -1.726552 0
M  V30 31 O -5.021573 -2.823267 -1.727711 0
M  V30 32 N -5.302243 -0.466331 -2.270585 0
M  V30 33 C -4.490355 0.664352 -2.030067 0
M  V30 34 O -4.957443 1.728836 -2.455219 0
M  V30 35 C 4.324318 -0.775223 2.574783 0
M  V30 36 C 3.811159 -1.581836 3.732088 0
M  V30 37 H 1.169898 -1.258748 3.694996 0
M  V30 38 H 0.806243 -3.043234 3.578343 0
M  V30 39 H 1.611670 -2.383280 5.023999 0
M  V30 40 H 3.529963 -3.913668 1.979741 0
M  V30 41 H 1.825068 -3.422177 1.796498 0
M  V30 42 H 2.524336 -2.059661 0.098482 0
M  V30 43 H 4.198250 -2.246844 0.613140 0
M  V30 44 H 4.319830 0.369044 0.090708 0
M  V30 45 H 3.526934 1.309768 1.351314 0
M  V30 46 H 1.950340 -0.279569 -0.701535 0
M  V30 47 H 2.265734 1.445834 -0.847464 0
M  V30 48 H 1.255133 1.734858 1.518789 0
M  V30 49 H 0.854824 0.017386 1.473123 0
M  V30 50 H 0.922676 3.715836 0.329417 0
M  V30 51 H -0.073833 5.727778 -0.533899 0
M  V30 52 H -1.823775 6.666188 -1.902589 0
M  V30 53 H -3.338436 3.487841 -1.890585 0
M  V30 54 H -1.482968 -3.648348 -2.217682 0
M  V30 55 H -1.589442 -6.052834 -2.009453 0
M  V30 56 H -2.612919 -7.119127 -0.076262 0
M  V30 57 H -3.551886 -5.683897 1.690458 0
M  V30 58 H -0.524418 -1.616348 0.451117 0
M  V30 59 H -6.239577 -0.616713 -2.741198 0
M  V30 60 H 5.171548 -1.324986 2.106516 0
M  V30 61 H 4.630293 0.260059 2.848844 0
M  V30 62 H 4.634415 -2.020080 4.334795 0
M  V30 63 H 3.306974 -0.858148 4.432842 0
M  V30 END ATOM
M  V30 BEGIN BOND
M  V30 1 1 1 2
M  V30 2 1 2 3
M  V30 3 1 3 4
M  V30 4 1 4 5
M  V30 5 1 5 6
M  V30 6 1 6 7
M  V30 7 1 7 8
M  V30 8 1 8 9
M  V30 9 1 9 10
M  V30 10 2 10 11
M  V30 11 1 11 12
M  V30 12 2 12 13
M  V30 13 1 13 14
M  V30 14 1 13 15
M  V30 15 2 15 16
M  V30 16 1 16 17
M  V30 17 2 17 18
M  V30 18 1 18 19
M  V30 19 2 19 20
M  V30 20 1 20 21
M  V30 21 2 21 22
M  V30 22 1 22 23
M  V30 23 2 23 24
M  V30 24 1 24 25
M  V30 25 2 25 26
M  V30 26 1 26 27
M  V30 27 1 20 28
M  V30 28 2 28 29
M  V30 29 1 19 30
M  V30 30 2 30 31
M  V30 31 1 30 32
M  V30 32 1 32 33
M  V30 33 2 33 34
M  V30 34 1 5 35
M  V30 35 1 35 36
M  V30 36 1 36 2
M  V30 37 1 29 9
M  V30 38 1 16 10
M  V30 39 1 29 17
M  V30 40 1 33 18
M  V30 41 1 26 21
M  V30 42 1 1 37
M  V30 43 1 1 38
M  V30 44 1 1 39
M  V30 45 1 3 40
M  V30 46 1 3 41
M  V30 47 1 4 42
M  V30 48 1 4 43
M  V30 49 1 6 44
M  V30 50 1 6 45
M  V30 51 1 7 46
M  V30 52 1 7 47
M  V30 53 1 8 48
M  V30 54 1 8 49
M  V30 55 1 11 50
M  V30 56 1 12 51
M  V30 57 1 14 52
M  V30 58 1 15 53
M  V30 59 1 22 54
M  V30 60 1 23 55
M  V30 61 1 24 56
M  V30 62 1 25 57
M  V30 63 1 28 58
M  V30 64 1 32 59
M  V30 65 1 35 60
M  V30 66 1 35 61
M  V30 67 1 36 62
M  V30 68 1 36 63
M  V30 END BOND
M  V30 END CTAB
M  END
>  <Dataset>  (431) 
ChEMBL_Kinases

>  <Ligand_Instance>  (431) 
nan

>  <PDB_ID>  (431) 
nan

>  <Standardized_SMILES>  (431) 
CN1CCN(CCCn2c3ccc(O)cc3c3c4c(c(-c5ccccc5Cl)cc32)C(=O)NC4=O)CC1

>  <Name>  (431) 
nan

>  <Pocket>  (431) 
nan

>  <ATP_Site>  (431) 
nan

>  <Peripheral>  (431) 
nan

>  <Num_H_Atoms_ProtBoundConf>  (431) 
nan

>  <Num_Resolved_Atoms>  (431) 
nan

>  <Num_Not_Resolved_Atoms>  (431) 
nan

$$$$
CHEMBL3702309
     RDKit          3D

  0  0  0  0  0  0  0  0  0  0999 V3000
M  V30 BEGIN CTAB
M  V30 COUNTS 47 49 0 0 0
M  V30 BEGIN ATOM
M  V30 1 C 1.240319 -0.856151 -0.036479 0
M  V30 2 C 1.608006 0.221690 0.878451 0
M  V30 3 C 2.302338 1.344981 0.413850 0
M  V30 4 C 2.742844 1.671869 -0.926951 0
M  V30 5 O 2.723226 1.198580 -2.115186 0
M  V30 6 N 3.441626 2.910358 -1.092942 0
M  V30 7 C 3.861314 3.181690 -2.472834 0
M  V30 8 C 2.710485 3.239967 -3.365170 0
M  V30 9 N 1.813114 3.293838 -4.060827 0
M  V30 10 S 2.600194 2.435355 1.869118 0
M  V30 11 C 1.750086 1.258624 2.978889 0
M  V30 12 N 1.645007 1.532768 4.311913 0
M  V30 13 C 1.016598 0.601717 5.023645 0
M  V30 14 N 0.588716 -0.442108 4.343895 0
M  V30 15 C 0.686103 -0.720091 3.037643 0
M  V30 16 N 0.135205 -1.908195 2.623102 0
M  V30 17 C -0.344415 -2.781039 1.713067 0
M  V30 18 C 0.312364 -3.991701 1.401274 0
M  V30 19 C -0.122239 -4.930136 0.488883 0
M  V30 20 C -1.298364 -4.610482 -0.140482 0
M  V30 21 C -1.719788 -5.615383 -1.093614 0
M  V30 22 N -2.055962 -6.398816 -1.864107 0
M  V30 23 C -1.999895 -3.424623 0.125729 0
M  V30 24 C -1.524250 -2.487659 1.066861 0
M  V30 25 O -2.456885 -1.521473 1.031315 0
M  V30 26 C -2.619742 -0.357254 1.693266 0
M  V30 27 C -3.988394 -0.277752 2.425830 0
M  V30 28 F -4.087496 -1.293452 3.339194 0
M  V30 29 C -2.696422 0.866833 0.748233 0
M  V30 30 F -2.863021 1.976869 1.552358 0
M  V30 31 C 1.321888 0.173581 2.193789 0
M  V30 32 H 0.216502 -0.873532 -0.385918 0
M  V30 33 H 1.749095 -1.817648 0.166981 0
M  V30 34 H 1.755653 -0.599694 -1.019305 0
M  V30 35 H 3.652685 3.595290 -0.299433 0
M  V30 36 H 4.403101 4.161430 -2.434744 0
M  V30 37 H 4.599914 2.413109 -2.768785 0
M  V30 38 H 0.890383 0.735085 6.076707 0
M  V30 39 H -0.077721 -2.591924 3.434155 0
M  V30 40 H 1.232440 -4.144198 1.957060 0
M  V30 41 H 0.495590 -5.791050 0.373677 0
M  V30 42 H -2.899592 -3.426771 -0.512815 0
M  V30 43 H -1.902319 -0.061806 2.473458 0
M  V30 44 H -4.814013 -0.215951 1.715955 0
M  V30 45 H -3.956929 0.678975 2.983632 0
M  V30 46 H -3.656617 0.770398 0.162880 0
M  V30 47 H -1.820645 0.931609 0.106377 0
M  V30 END ATOM
M  V30 BEGIN BOND
M  V30 1 1 1 2
M  V30 2 2 2 3
M  V30 3 1 3 4
M  V30 4 2 4 5
M  V30 5 1 4 6
M  V30 6 1 6 7
M  V30 7 1 7 8
M  V30 8 3 8 9
M  V30 9 1 3 10
M  V30 10 1 10 11
M  V30 11 2 11 12
M  V30 12 1 12 13
M  V30 13 2 13 14
M  V30 14 1 14 15
M  V30 15 1 15 16
M  V30 16 1 16 17
M  V30 17 2 17 18
M  V30 18 1 18 19
M  V30 19 2 19 20
M  V30 20 1 20 21
M  V30 21 3 21 22
M  V30 22 1 20 23
M  V30 23 2 23 24
M  V30 24 1 24 25
M  V30 25 1 25 26
M  V30 26 1 26 27
M  V30 27 1 27 28
M  V30 28 1 26 29
M  V30 29 1 29 30
M  V30 30 2 15 31
M  V30 31 1 31 2
M  V30 32 1 31 11
M  V30 33 1 24 17
M  V30 34 1 1 32
M  V30 35 1 1 33
M  V30 36 1 1 34
M  V30 37 1 6 35
M  V30 38 1 7 36
M  V30 39 1 7 37
M  V30 40 1 13 38
M  V30 41 1 16 39
M  V30 42 1 18 40
M  V30 43 1 19 41
M  V30 44 1 23 42
M  V30 45 1 26 43
M  V30 46 1 27 44
M  V30 47 1 27 45
M  V30 48 1 29 46
M  V30 49 1 29 47
M  V30 END BOND
M  V30 END CTAB
M  END
>  <Dataset>  (432) 
ChEMBL_Kinases

>  <Ligand_Instance>  (432) 
nan

>  <PDB_ID>  (432) 
nan

>  <Standardized_SMILES>  (432) 
Cc1c(C(=O)NCC#N)sc2ncnc(Nc3ccc(C#N)cc3OC(CF)CF)c12

>  <Name>  (432) 
nan

>  <Pocket>  (432) 
nan

>  <ATP_Site>  (432) 
nan

>  <Peripheral>  (432) 
nan

>  <Num_H_Atoms_ProtBoundConf>  (432) 
nan

>  <Num_Resolved_Atoms>  (432) 
nan

>  <Num_Not_Resolved_Atoms>  (432) 
nan

$$$$
CHEMBL5084156
     RDKit          3D

  0  0  0  0  0  0  0  0  0  0999 V3000
M  V30 BEGIN CTAB
M  V30 COUNTS 94 99 0 0 0
M  V30 BEGIN ATOM
M  V30 1 O 0.654671 -5.527045 0.830126 0
M  V30 2 C -0.126999 -5.071931 1.684094 0
M  V30 3 N 0.464524 -3.937452 2.276546 0
M  V30 4 O 1.370182 -2.991771 2.521046 0
M  V30 5 C 2.303412 -3.359366 3.511877 0
M  V30 6 C 2.728809 -2.145898 4.289094 0
M  V30 7 O 3.332472 -1.153187 3.523672 0
M  V30 8 C 3.589004 -0.091987 4.396450 0
M  V30 9 C 4.252448 1.049643 3.649603 0
M  V30 10 O 3.464944 1.512728 2.612797 0
M  V30 11 C 4.036624 2.608346 1.973364 0
M  V30 12 C 3.145335 3.003833 0.792716 0
M  V30 13 O 3.621424 4.096559 0.103476 0
M  V30 14 C 2.872180 4.427872 -0.988972 0
M  V30 15 C 2.967256 3.349145 -2.034380 0
M  V30 16 N 2.148293 3.750929 -3.165539 0
M  V30 17 C 0.798495 3.667027 -2.719882 0
M  V30 18 N -0.088690 4.499129 -2.138850 0
M  V30 19 C -1.327181 4.055486 -1.837959 0
M  V30 20 N -2.187426 4.987085 -1.241339 0
M  V30 21 C -1.804038 6.362927 -1.001315 0
M  V30 22 C -3.123400 7.118558 -0.800151 0
M  V30 23 O -3.768372 6.676488 0.334524 0
M  V30 24 C -3.875713 5.313180 0.422624 0
M  V30 25 C -3.512211 4.569169 -0.842706 0
M  V30 26 N -1.722932 2.793135 -2.098042 0
M  V30 27 C -0.842488 1.927357 -2.686369 0
M  V30 28 N -1.200553 0.558500 -2.989584 0
M  V30 29 C -2.398119 0.007161 -3.232320 0
M  V30 30 C -3.690851 0.738504 -3.232693 0
M  V30 31 F -3.969445 1.237893 -1.975626 0
M  V30 32 F -3.720897 1.741248 -4.186275 0
M  V30 33 N -2.192168 -1.319530 -3.472455 0
M  V30 34 C -0.880663 -1.604377 -3.384044 0
M  V30 35 C -0.121701 -2.754432 -3.530421 0
M  V30 36 C 1.252004 -2.773576 -3.385043 0
M  V30 37 C 1.881965 -1.577103 -3.077116 0
M  V30 38 C 1.101647 -0.438633 -2.935347 0
M  V30 39 C -0.264610 -0.408914 -3.078879 0
M  V30 40 N 0.379574 2.407624 -2.970202 0
M  V30 41 C -1.434991 -5.522023 2.099232 0
M  V30 42 C -2.192811 -4.941546 3.076458 0
M  V30 43 C -3.426372 -5.445620 3.424130 0
M  V30 44 C -3.886970 -6.570135 2.750470 0
M  V30 45 F -5.102769 -7.004234 3.150760 0
M  V30 46 C -3.113840 -7.145760 1.766987 0
M  V30 47 F -3.605115 -8.239302 1.137044 0
M  V30 48 C -1.864145 -6.631805 1.417475 0
M  V30 49 N -1.116060 -7.261860 0.377191 0
M  V30 50 C -1.536866 -6.822579 -0.924921 0
M  V30 51 C -2.555667 -5.890697 -1.085040 0
M  V30 52 C -2.995353 -5.445658 -2.331562 0
M  V30 53 C -2.405489 -5.939853 -3.472053 0
M  V30 54 I -3.044722 -5.294562 -5.363112 0
M  V30 55 C -1.389822 -6.867931 -3.322500 0
M  V30 56 C -0.962566 -7.301688 -2.088416 0
M  V30 57 F 0.036071 -8.211320 -2.021532 0
M  V30 58 H 0.007875 -3.355879 3.027938 0
M  V30 59 H 3.149078 -3.867721 3.019477 0
M  V30 60 H 1.754981 -4.014595 4.209183 0
M  V30 61 H 1.812026 -1.775643 4.814249 0
M  V30 62 H 3.482360 -2.480257 5.047046 0
M  V30 63 H 2.656946 0.332193 4.838996 0
M  V30 64 H 4.246670 -0.381230 5.237306 0
M  V30 65 H 5.249796 0.755239 3.239180 0
M  V30 66 H 4.429770 1.910330 4.333372 0
M  V30 67 H 5.065781 2.463076 1.643671 0
M  V30 68 H 4.026308 3.446789 2.721107 0
M  V30 69 H 2.176790 3.315721 1.280122 0
M  V30 70 H 2.902214 2.124074 0.205100 0
M  V30 71 H 3.106879 5.421061 -1.413766 0
M  V30 72 H 1.805222 4.541737 -0.625008 0
M  V30 73 H 4.038858 3.317045 -2.365735 0
M  V30 74 H 2.730329 2.339119 -1.704198 0
M  V30 75 H 2.544191 4.032210 -4.088499 0
M  V30 76 H -1.192957 6.427198 -0.091805 0
M  V30 77 H -1.324681 6.827349 -1.888723 0
M  V30 78 H -2.983245 8.210140 -0.766748 0
M  V30 79 H -3.757941 6.837722 -1.682298 0
M  V30 80 H -4.892360 5.015328 0.763702 0
M  V30 81 H -3.192929 4.921922 1.230050 0
M  V30 82 H -4.205443 4.837519 -1.661153 0
M  V30 83 H -3.522971 3.496731 -0.580074 0
M  V30 84 H -4.493054 -0.012383 -3.489733 0
M  V30 85 H -0.607367 -3.687886 -3.770635 0
M  V30 86 H 1.828224 -3.687581 -3.504983 0
M  V30 87 H 2.956400 -1.588108 -2.958898 0
M  V30 88 H 1.675317 0.437737 -2.694758 0
M  V30 89 H -1.814759 -4.067352 3.588609 0
M  V30 90 H -3.985396 -4.941992 4.211668 0
M  V30 91 H -0.346057 -7.958533 0.398766 0
M  V30 92 H -3.065862 -5.462365 -0.234925 0
M  V30 93 H -3.797018 -4.717766 -2.426662 0
M  V30 94 H -0.895049 -7.287633 -4.207048 0
M  V30 END ATOM
M  V30 BEGIN BOND
M  V30 1 2 1 2
M  V30 2 1 2 3
M  V30 3 1 3 4
M  V30 4 1 4 5
M  V30 5 1 5 6
M  V30 6 1 6 7
M  V30 7 1 7 8
M  V30 8 1 8 9
M  V30 9 1 9 10
M  V30 10 1 10 11
M  V30 11 1 11 12
M  V30 12 1 12 13
M  V30 13 1 13 14
M  V30 14 1 14 15
M  V30 15 1 15 16
M  V30 16 1 16 17
M  V30 17 2 17 18
M  V30 18 1 18 19
M  V30 19 1 19 20
M  V30 20 1 20 21
M  V30 21 1 21 22
M  V30 22 1 22 23
M  V30 23 1 23 24
M  V30 24 1 24 25
M  V30 25 2 19 26
M  V30 26 1 26 27
M  V30 27 1 27 28
M  V30 28 1 28 29
M  V30 29 1 29 30
M  V30 30 1 30 31
M  V30 31 1 30 32
M  V30 32 2 29 33
M  V30 33 1 33 34
M  V30 34 2 34 35
M  V30 35 1 35 36
M  V30 36 2 36 37
M  V30 37 1 37 38
M  V30 38 2 38 39
M  V30 39 2 27 40
M  V30 40 1 2 41
M  V30 41 2 41 42
M  V30 42 1 42 43
M  V30 43 2 43 44
M  V30 44 1 44 45
M  V30 45 1 44 46
M  V30 46 1 46 47
M  V30 47 2 46 48
M  V30 48 1 48 49
M  V30 49 1 49 50
M  V30 50 2 50 51
M  V30 51 1 51 52
M  V30 52 2 52 53
M  V30 53 1 53 54
M  V30 54 1 53 55
M  V30 55 2 55 56
M  V30 56 1 56 57
M  V30 57 1 40 17
M  V30 58 1 48 41
M  V30 59 1 56 50
M  V30 60 1 25 20
M  V30 61 1 39 28
M  V30 62 1 39 34
M  V30 63 1 3 58
M  V30 64 1 5 59
M  V30 65 1 5 60
M  V30 66 1 6 61
M  V30 67 1 6 62
M  V30 68 1 8 63
M  V30 69 1 8 64
M  V30 70 1 9 65
M  V30 71 1 9 66
M  V30 72 1 11 67
M  V30 73 1 11 68
M  V30 74 1 12 69
M  V30 75 1 12 70
M  V30 76 1 14 71
M  V30 77 1 14 72
M  V30 78 1 15 73
M  V30 79 1 15 74
M  V30 80 1 16 75
M  V30 81 1 21 76
M  V30 82 1 21 77
M  V30 83 1 22 78
M  V30 84 1 22 79
M  V30 85 1 24 80
M  V30 86 1 24 81
M  V30 87 1 25 82
M  V30 88 1 25 83
M  V30 89 1 30 84
M  V30 90 1 35 85
M  V30 91 1 36 86
M  V30 92 1 37 87
M  V30 93 1 38 88
M  V30 94 1 42 89
M  V30 95 1 43 90
M  V30 96 1 49 91
M  V30 97 1 51 92
M  V30 98 1 52 93
M  V30 99 1 55 94
M  V30 END BOND
M  V30 END CTAB
M  END
>  <Dataset>  (433) 
ChEMBL_Kinases

>  <Ligand_Instance>  (433) 
nan

>  <PDB_ID>  (433) 
nan

>  <Standardized_SMILES>  (433) 
O=C(NOCCOCCOCCOCCNc1nc(N2CCOCC2)nc(-n2c(C(F)F)nc3ccccc32)n1)c1ccc(F)c(F)c1Nc1ccc(I)cc1F

>  <Name>  (433) 
nan

>  <Pocket>  (433) 
nan

>  <ATP_Site>  (433) 
nan

>  <Peripheral>  (433) 
nan

>  <Num_H_Atoms_ProtBoundConf>  (433) 
nan

>  <Num_Resolved_Atoms>  (433) 
nan

>  <Num_Not_Resolved_Atoms>  (433) 
nan

$$$$
CHEMBL5084172
     RDKit          3D

  0  0  0  0  0  0  0  0  0  0999 V3000
M  V30 BEGIN CTAB
M  V30 COUNTS 45 48 0 0 0
M  V30 BEGIN ATOM
M  V30 1 O 6.873991 -1.373040 0.107719 0
M  V30 2 C 6.199403 -1.498198 -0.934012 0
M  V30 3 N 6.919032 -1.990223 -2.058040 0
M  V30 4 O 8.186355 -2.378106 -2.327283 0
M  V30 5 C 4.784423 -1.205525 -1.135140 0
M  V30 6 C 4.027084 -1.338400 -2.277723 0
M  V30 7 C 2.690922 -1.004503 -2.261951 0
M  V30 8 C 2.052628 -0.532286 -1.136565 0
M  V30 9 C 2.825961 -0.404130 0.003253 0
M  V30 10 C 4.172043 -0.728893 0.028880 0
M  V30 11 C 2.335286 0.078404 1.295744 0
M  V30 12 O 3.223424 0.463999 2.100526 0
M  V30 13 C 0.947644 0.161254 1.749847 0
M  V30 14 C 0.830205 0.707957 3.011201 0
M  V30 15 C -0.383954 0.883970 3.643085 0
M  V30 16 C -1.492954 0.474944 2.929103 0
M  V30 17 N -2.780652 0.626185 3.518919 0
M  V30 18 C -4.085798 0.308237 3.050143 0
M  V30 19 C -5.120078 1.200171 2.870622 0
M  V30 20 C -6.344539 0.763440 2.407608 0
M  V30 21 C -6.574637 -0.563173 2.111753 0
M  V30 22 F -7.795225 -0.994765 1.650832 0
M  V30 23 C -5.528486 -1.466008 2.293224 0
M  V30 24 C -4.282451 -1.047066 2.760121 0
M  V30 25 F -3.398478 -2.057019 2.872034 0
M  V30 26 C -1.403327 -0.074850 1.666075 0
M  V30 27 C -0.174181 -0.242789 1.049617 0
M  V30 28 C -0.269661 -0.845393 -0.297470 0
M  V30 29 C 0.617061 -0.234796 -1.338647 0
M  V30 30 H 6.552555 -2.168642 -3.018583 0
M  V30 31 H 8.335128 -3.222215 -1.798720 0
M  V30 32 H 4.568194 -1.705256 -3.112108 0
M  V30 33 H 2.133090 -1.121537 -3.172031 0
M  V30 34 H 4.664314 -0.581787 0.988650 0
M  V30 35 H 1.743776 1.012318 3.525530 0
M  V30 36 H -0.499741 1.307255 4.624462 0
M  V30 37 H -2.895827 1.037503 4.471997 0
M  V30 38 H -4.904735 2.212838 3.109091 0
M  V30 39 H -7.155360 1.454918 2.265583 0
M  V30 40 H -5.769736 -2.490600 2.044507 0
M  V30 41 H -2.242552 -0.406799 1.074879 0
M  V30 42 H -1.320306 -0.615024 -0.643107 0
M  V30 43 H -0.182119 -1.935641 -0.263781 0
M  V30 44 H 0.437129 0.842206 -1.429425 0
M  V30 45 H 0.313984 -0.681942 -2.300273 0
M  V30 END ATOM
M  V30 BEGIN BOND
M  V30 1 2 1 2
M  V30 2 1 2 3
M  V30 3 1 3 4
M  V30 4 1 2 5
M  V30 5 2 5 6
M  V30 6 1 6 7
M  V30 7 2 7 8
M  V30 8 1 8 9
M  V30 9 2 9 10
M  V30 10 1 9 11
M  V30 11 2 11 12
M  V30 12 1 11 13
M  V30 13 2 13 14
M  V30 14 1 14 15
M  V30 15 2 15 16
M  V30 16 1 16 17
M  V30 17 1 17 18
M  V30 18 2 18 19
M  V30 19 1 19 20
M  V30 20 2 20 21
M  V30 21 1 21 22
M  V30 22 1 21 23
M  V30 23 2 23 24
M  V30 24 1 24 25
M  V30 25 1 16 26
M  V30 26 2 26 27
M  V30 27 1 27 28
M  V30 28 1 28 29
M  V30 29 1 10 5
M  V30 30 1 27 13
M  V30 31 1 29 8
M  V30 32 1 24 18
M  V30 33 1 3 30
M  V30 34 1 4 31
M  V30 35 1 6 32
M  V30 36 1 7 33
M  V30 37 1 10 34
M  V30 38 1 14 35
M  V30 39 1 15 36
M  V30 40 1 17 37
M  V30 41 1 19 38
M  V30 42 1 20 39
M  V30 43 1 23 40
M  V30 44 1 26 41
M  V30 45 1 28 42
M  V30 46 1 28 43
M  V30 47 1 29 44
M  V30 48 1 29 45
M  V30 END BOND
M  V30 END CTAB
M  END
>  <Dataset>  (434) 
ChEMBL_Kinases

>  <Ligand_Instance>  (434) 
nan

>  <PDB_ID>  (434) 
nan

>  <Standardized_SMILES>  (434) 
O=C(NO)c1ccc2c(c1)C(=O)c1ccc(Nc3ccc(F)cc3F)cc1CC2

>  <Name>  (434) 
nan

>  <Pocket>  (434) 
nan

>  <ATP_Site>  (434) 
nan

>  <Peripheral>  (434) 
nan

>  <Num_H_Atoms_ProtBoundConf>  (434) 
nan

>  <Num_Resolved_Atoms>  (434) 
nan

>  <Num_Not_Resolved_Atoms>  (434) 
nan

$$$$
CHEMBL3774636
     RDKit          3D

  0  0  0  0  0  0  0  0  0  0999 V3000
M  V30 BEGIN CTAB
M  V30 COUNTS 65 69 0 0 0
M  V30 BEGIN ATOM
M  V30 1 C 2.670426 -1.521364 5.500948 0
M  V30 2 O 3.173349 -1.228678 4.209795 0
M  V30 3 C 3.094439 -0.012711 3.599688 0
M  V30 4 C 3.645735 0.051853 2.341390 0
M  V30 5 C 3.616573 1.246377 1.625172 0
M  V30 6 C 3.042454 2.428265 2.112952 0
M  V30 7 C 2.996681 3.648527 1.254418 0
M  V30 8 N 1.645907 3.788017 0.698667 0
M  V30 9 C 0.960256 2.745948 0.039089 0
M  V30 10 N 1.527544 1.528942 -0.233804 0
M  V30 11 C 0.814551 0.557444 -0.795979 0
M  V30 12 N 1.551088 -0.650532 -0.867598 0
M  V30 13 C 2.329799 -1.909696 -0.939074 0
M  V30 14 C 1.286913 -3.023373 -1.073864 0
M  V30 15 C 0.689722 -3.036767 0.204783 0
M  V30 16 C -0.460185 -3.808778 0.445652 0
M  V30 17 C -0.922248 -4.520812 -0.652316 0
M  V30 18 C -2.216041 -5.206449 -0.494145 0
M  V30 19 C -2.848305 -5.921583 -1.511289 0
M  V30 20 C -4.109732 -6.463972 -1.270884 0
M  V30 21 C -4.714780 -6.283270 -0.019723 0
M  V30 22 C -4.065787 -5.581353 0.957943 0
M  V30 23 N -2.839185 -5.058875 0.712178 0
M  V30 24 C -0.322749 -4.503753 -1.888540 0
M  V30 25 C 0.798376 -3.752440 -2.124173 0
M  V30 26 C -0.537973 0.735761 -1.135130 0
M  V30 27 N -1.413242 -0.127872 -1.705301 0
M  V30 28 N -2.550065 0.533807 -1.800606 0
M  V30 29 C -2.374063 1.767803 -1.301358 0
M  V30 30 C -3.455634 2.797690 -1.236062 0
M  V30 31 C -4.237621 2.656615 0.083296 0
M  V30 32 C -2.862248 4.162284 -1.375133 0
M  V30 33 C -1.081062 1.957404 -0.855628 0
M  V30 34 N -0.311156 2.860124 -0.300571 0
M  V30 35 C 2.499574 2.338670 3.377586 0
M  V30 36 C 2.526895 1.165339 4.085715 0
M  V30 37 H 2.328695 -2.576288 5.577942 0
M  V30 38 H 1.821183 -0.837825 5.710301 0
M  V30 39 H 3.445269 -1.390614 6.277786 0
M  V30 40 H 4.115387 -0.823341 1.890198 0
M  V30 41 H 4.080001 1.227155 0.669422 0
M  V30 42 H 3.695544 3.465908 0.380943 0
M  V30 43 H 3.265438 4.538098 1.853102 0
M  V30 44 H 1.175188 4.704149 0.798966 0
M  V30 45 H 0.821337 -1.205204 -1.315210 0
M  V30 46 H 2.952696 -1.954487 -1.836718 0
M  V30 47 H 2.909208 -2.059637 -0.041984 0
M  V30 48 H 0.978017 -2.518675 1.138384 0
M  V30 49 H -0.951144 -3.867367 1.415578 0
M  V30 50 H -2.355538 -6.027596 -2.444739 0
M  V30 51 H -4.595631 -7.015640 -2.069552 0
M  V30 52 H -5.684375 -6.724715 0.103955 0
M  V30 53 H -4.566001 -5.466727 1.915759 0
M  V30 54 H -0.640439 -5.049761 -2.763043 0
M  V30 55 H 1.429112 -3.576925 -2.979981 0
M  V30 56 H -1.102581 -1.115309 -1.952983 0
M  V30 57 H -4.176004 2.583099 -2.028914 0
M  V30 58 H -3.548617 2.919127 0.921254 0
M  V30 59 H -4.495981 1.594275 0.165582 0
M  V30 60 H -5.086249 3.321443 0.003922 0
M  V30 61 H -2.104666 4.390797 -0.600436 0
M  V30 62 H -3.655050 4.921350 -1.283756 0
M  V30 63 H -2.465488 4.268828 -2.424017 0
M  V30 64 H 2.071876 3.223139 3.763215 0
M  V30 65 H 2.109543 1.086346 5.091718 0
M  V30 END ATOM
M  V30 BEGIN BOND
M  V30 1 1 1 2
M  V30 2 1 2 3
M  V30 3 2 3 4
M  V30 4 1 4 5
M  V30 5 2 5 6
M  V30 6 1 6 7
M  V30 7 1 7 8
M  V30 8 1 8 9
M  V30 9 2 9 10
M  V30 10 1 10 11
M  V30 11 1 11 12
M  V30 12 1 12 13
M  V30 13 1 13 14
M  V30 14 2 14 15
M  V30 15 1 15 16
M  V30 16 2 16 17
M  V30 17 1 17 18
M  V30 18 2 18 19
M  V30 19 1 19 20
M  V30 20 2 20 21
M  V30 21 1 21 22
M  V30 22 2 22 23
M  V30 23 1 17 24
M  V30 24 2 24 25
M  V30 25 2 11 26
M  V30 26 1 26 27
M  V30 27 1 27 28
M  V30 28 2 28 29
M  V30 29 1 29 30
M  V30 30 1 30 31
M  V30 31 1 30 32
M  V30 32 1 29 33
M  V30 33 2 33 34
M  V30 34 1 6 35
M  V30 35 2 35 36
M  V30 36 1 36 3
M  V30 37 1 34 9
M  V30 38 1 25 14
M  V30 39 1 33 26
M  V30 40 1 23 18
M  V30 41 1 1 37
M  V30 42 1 1 38
M  V30 43 1 1 39
M  V30 44 1 4 40
M  V30 45 1 5 41
M  V30 46 1 7 42
M  V30 47 1 7 43
M  V30 48 1 8 44
M  V30 49 1 12 45
M  V30 50 1 13 46
M  V30 51 1 13 47
M  V30 52 1 15 48
M  V30 53 1 16 49
M  V30 54 1 19 50
M  V30 55 1 20 51
M  V30 56 1 21 52
M  V30 57 1 22 53
M  V30 58 1 24 54
M  V30 59 1 25 55
M  V30 60 1 27 56
M  V30 61 1 30 57
M  V30 62 1 31 58
M  V30 63 1 31 59
M  V30 64 1 31 60
M  V30 65 1 32 61
M  V30 66 1 32 62
M  V30 67 1 32 63
M  V30 68 1 35 64
M  V30 69 1 36 65
M  V30 END BOND
M  V30 END CTAB
M  END
>  <Dataset>  (435) 
ChEMBL_Kinases

>  <Ligand_Instance>  (435) 
nan

>  <PDB_ID>  (435) 
nan

>  <Standardized_SMILES>  (435) 
COc1ccc(CNc2nc(NCc3ccc(-c4ccccn4)cc3)c3[nH]nc(C(C)C)c3n2)cc1

>  <Name>  (435) 
nan

>  <Pocket>  (435) 
nan

>  <ATP_Site>  (435) 
nan

>  <Peripheral>  (435) 
nan

>  <Num_H_Atoms_ProtBoundConf>  (435) 
nan

>  <Num_Resolved_Atoms>  (435) 
nan

>  <Num_Not_Resolved_Atoms>  (435) 
nan

$$$$
CHEMBL5084340
     RDKit          3D

  0  0  0  0  0  0  0  0  0  0999 V3000
M  V30 BEGIN CTAB
M  V30 COUNTS 47 49 0 0 0
M  V30 BEGIN ATOM
M  V30 1 C 0.324685 -4.119574 0.044978 0
M  V30 2 C 0.489330 -3.500252 -1.328801 0
M  V30 3 C 1.513856 -2.456277 -1.358332 0
M  V30 4 C 2.779276 -2.683856 -1.894819 0
M  V30 5 C 3.773357 -1.759024 -1.927838 0
M  V30 6 O 5.024664 -2.007110 -2.466636 0
M  V30 7 C 3.472720 -0.521494 -1.383656 0
M  V30 8 F 4.469656 0.415416 -1.413697 0
M  V30 9 C 2.216279 -0.266504 -0.840997 0
M  V30 10 C 1.219299 -1.227118 -0.820113 0
M  V30 11 C -0.001623 -0.751783 -0.244180 0
M  V30 12 C -0.013080 -0.205675 1.044575 0
M  V30 13 C -1.094068 0.317021 1.742809 0
M  V30 14 N -0.999735 0.836759 3.056381 0
M  V30 15 C 0.127120 0.978737 3.929031 0
M  V30 16 C 1.162069 1.963730 3.489495 0
M  V30 17 C 2.290580 1.983490 4.529997 0
M  V30 18 O 2.868423 0.722281 4.641147 0
M  V30 19 C -2.309902 0.280244 1.048969 0
M  V30 20 N -3.395005 0.770262 1.669406 0
M  V30 21 C -4.579018 0.751541 1.033456 0
M  V30 22 N -5.843489 1.212046 1.494602 0
M  V30 23 N -4.655267 0.243704 -0.209122 0
M  V30 24 C -3.591884 -0.254254 -0.858990 0
M  V30 25 C -2.379483 -0.240473 -0.220467 0
M  V30 26 C -1.250242 -0.733194 -0.825289 0
M  V30 27 H 0.055468 -5.181643 -0.091633 0
M  V30 28 H 1.227040 -4.046076 0.674643 0
M  V30 29 H -0.538901 -3.660016 0.585249 0
M  V30 30 H 0.839058 -4.339239 -2.004799 0
M  V30 31 H -0.499494 -3.249228 -1.689950 0
M  V30 32 H 2.973265 -3.678500 -2.315307 0
M  V30 33 H 5.345675 -1.399459 -3.218407 0
M  V30 34 H 2.132938 0.743942 -0.455293 0
M  V30 35 H 0.969871 -0.213642 1.542562 0
M  V30 36 H -1.924925 1.179288 3.460274 0
M  V30 37 H 0.553652 -0.048625 4.060770 0
M  V30 38 H -0.185313 1.276051 4.951041 0
M  V30 39 H 0.736815 3.009774 3.476508 0
M  V30 40 H 1.606087 1.822779 2.514284 0
M  V30 41 H 1.830516 2.259804 5.496506 0
M  V30 42 H 2.989367 2.782470 4.262123 0
M  V30 43 H 2.340687 0.210313 5.294941 0
M  V30 44 H -6.269824 2.121388 1.157478 0
M  V30 45 H -6.188787 0.493222 2.172280 0
M  V30 46 H -3.646395 -0.663411 -1.857184 0
M  V30 47 H -1.375234 -1.112107 -1.826397 0
M  V30 END ATOM
M  V30 BEGIN BOND
M  V30 1 1 1 2
M  V30 2 1 2 3
M  V30 3 2 3 4
M  V30 4 1 4 5
M  V30 5 1 5 6
M  V30 6 2 5 7
M  V30 7 1 7 8
M  V30 8 1 7 9
M  V30 9 2 9 10
M  V30 10 1 10 11
M  V30 11 2 11 12
M  V30 12 1 12 13
M  V30 13 1 13 14
M  V30 14 1 14 15
M  V30 15 1 15 16
M  V30 16 1 16 17
M  V30 17 1 17 18
M  V30 18 2 13 19
M  V30 19 1 19 20
M  V30 20 2 20 21
M  V30 21 1 21 22
M  V30 22 1 21 23
M  V30 23 2 23 24
M  V30 24 1 24 25
M  V30 25 2 25 26
M  V30 26 1 10 3
M  V30 27 1 26 11
M  V30 28 1 25 19
M  V30 29 1 1 27
M  V30 30 1 1 28
M  V30 31 1 1 29
M  V30 32 1 2 30
M  V30 33 1 2 31
M  V30 34 1 4 32
M  V30 35 1 6 33
M  V30 36 1 9 34
M  V30 37 1 12 35
M  V30 38 1 14 36
M  V30 39 1 15 37
M  V30 40 1 15 38
M  V30 41 1 16 39
M  V30 42 1 16 40
M  V30 43 1 17 41
M  V30 44 1 17 42
M  V30 45 1 18 43
M  V30 46 1 22 44
M  V30 47 1 22 45
M  V30 48 1 24 46
M  V30 49 1 26 47
M  V30 END BOND
M  V30 END CTAB
M  END
>  <Dataset>  (436) 
ChEMBL_Kinases

>  <Ligand_Instance>  (436) 
nan

>  <PDB_ID>  (436) 
nan

>  <Standardized_SMILES>  (436) 
CCc1cc(O)c(F)cc1-c1cc(NCCCO)c2nc(N)ncc2c1

>  <Name>  (436) 
nan

>  <Pocket>  (436) 
nan

>  <ATP_Site>  (436) 
nan

>  <Peripheral>  (436) 
nan

>  <Num_H_Atoms_ProtBoundConf>  (436) 
nan

>  <Num_Resolved_Atoms>  (436) 
nan

>  <Num_Not_Resolved_Atoms>  (436) 
nan

$$$$
CHEMBL3702310
     RDKit          3D

  0  0  0  0  0  0  0  0  0  0999 V3000
M  V30 BEGIN CTAB
M  V30 COUNTS 40 42 0 0 0
M  V30 BEGIN ATOM
M  V30 1 C 1.515335 -2.221991 1.101420 0
M  V30 2 C 1.811579 -2.171480 -0.351501 0
M  V30 3 C 2.949591 -2.852437 -0.712975 0
M  V30 4 C 3.910183 -3.610979 -0.006874 0
M  V30 5 N 5.034237 -4.160081 -0.675776 0
M  V30 6 O 3.906465 -3.884255 1.214273 0
M  V30 7 S 3.064760 -2.625648 -2.504675 0
M  V30 8 C 1.555692 -1.619212 -2.644092 0
M  V30 9 N 0.929667 -1.037770 -3.695740 0
M  V30 10 C -0.201478 -0.333572 -3.526488 0
M  V30 11 N -0.623038 -0.270099 -2.276193 0
M  V30 12 C -0.057100 -0.813501 -1.212862 0
M  V30 13 N -0.796839 -0.534335 -0.036628 0
M  V30 14 C -0.600624 0.753108 0.533349 0
M  V30 15 C 0.261533 1.636363 -0.084436 0
M  V30 16 C 0.524114 2.937695 0.366308 0
M  V30 17 C -0.119290 3.372296 1.503995 0
M  V30 18 F 0.152515 4.628742 1.914904 0
M  V30 19 C -0.979617 2.495453 2.124120 0
M  V30 20 C -1.236488 1.217106 1.680479 0
M  V30 21 O -2.097026 0.390411 2.331797 0
M  V30 22 C -2.857488 0.627566 3.471657 0
M  V30 23 C -2.466812 -0.265042 4.636592 0
M  V30 24 C -4.266842 0.364096 3.178912 0
M  V30 25 N -5.383369 0.155076 2.942498 0
M  V30 26 C 1.097403 -1.541593 -1.330103 0
M  V30 27 H 1.512161 -3.300419 1.452622 0
M  V30 28 H 2.363739 -1.746352 1.663473 0
M  V30 29 H 0.549722 -1.828686 1.399152 0
M  V30 30 H 6.075082 -4.282247 -0.622529 0
M  V30 31 H 6.058556 -4.306038 -0.667600 0
M  V30 32 H -0.569784 0.061693 -4.458189 0
M  V30 33 H -1.480361 -1.133283 0.479487 0
M  V30 34 H 0.811378 1.377414 -0.989022 0
M  V30 35 H 1.209645 3.587948 -0.157495 0
M  V30 36 H -1.439544 2.921569 3.010598 0
M  V30 37 H -2.808417 1.699879 3.832589 0
M  V30 38 H -3.192002 -1.090605 4.716109 0
M  V30 39 H -1.458687 -0.731393 4.503720 0
M  V30 40 H -2.455074 0.286155 5.600949 0
M  V30 END ATOM
M  V30 BEGIN BOND
M  V30 1 1 1 2
M  V30 2 2 2 3
M  V30 3 1 3 4
M  V30 4 1 4 5
M  V30 5 2 4 6
M  V30 6 1 3 7
M  V30 7 1 7 8
M  V30 8 2 8 9
M  V30 9 1 9 10
M  V30 10 2 10 11
M  V30 11 1 11 12
M  V30 12 1 12 13
M  V30 13 1 13 14
M  V30 14 2 14 15
M  V30 15 1 15 16
M  V30 16 2 16 17
M  V30 17 1 17 18
M  V30 18 1 17 19
M  V30 19 2 19 20
M  V30 20 1 20 21
M  V30 21 1 21 22
M  V30 22 1 22 23
M  V30 23 1 22 24
M  V30 24 3 24 25
M  V30 25 2 12 26
M  V30 26 1 26 2
M  V30 27 1 26 8
M  V30 28 1 20 14
M  V30 29 1 1 27
M  V30 30 1 1 28
M  V30 31 1 1 29
M  V30 32 1 5 30
M  V30 33 1 5 31
M  V30 34 1 10 32
M  V30 35 1 13 33
M  V30 36 1 15 34
M  V30 37 1 16 35
M  V30 38 1 19 36
M  V30 39 1 22 37
M  V30 40 1 23 38
M  V30 41 1 23 39
M  V30 42 1 23 40
M  V30 END BOND
M  V30 END CTAB
M  END
>  <Dataset>  (437) 
ChEMBL_Kinases

>  <Ligand_Instance>  (437) 
nan

>  <PDB_ID>  (437) 
nan

>  <Standardized_SMILES>  (437) 
Cc1c(C(N)=O)sc2ncnc(Nc3ccc(F)cc3OC(C)C#N)c12

>  <Name>  (437) 
nan

>  <Pocket>  (437) 
nan

>  <ATP_Site>  (437) 
nan

>  <Peripheral>  (437) 
nan

>  <Num_H_Atoms_ProtBoundConf>  (437) 
nan

>  <Num_Resolved_Atoms>  (437) 
nan

>  <Num_Not_Resolved_Atoms>  (437) 
nan

$$$$
CHEMBL377456
     RDKit          3D

  0  0  0  0  0  0  0  0  0  0999 V3000
M  V30 BEGIN CTAB
M  V30 COUNTS 42 46 0 0 0
M  V30 BEGIN ATOM
M  V30 1 C 3.396446 -6.462823 2.949578 0
M  V30 2 C 2.827609 -6.217211 1.576849 0
M  V30 3 O 2.916772 -7.121914 0.728072 0
M  V30 4 C 2.197299 -4.930502 1.301941 0
M  V30 5 C 2.122122 -3.956984 2.276441 0
M  V30 6 C 1.505800 -2.779503 1.909014 0
M  V30 7 C 0.959899 -2.500128 0.645713 0
M  V30 8 C 0.365590 -1.182098 0.472802 0
M  V30 9 C 1.248543 -0.166041 0.864747 0
M  V30 10 C 0.868807 1.157629 0.754067 0
M  V30 11 N 1.521305 2.313747 1.056700 0
M  V30 12 C 0.664636 3.302395 0.741244 0
M  V30 13 C 0.916478 4.664965 0.887886 0
M  V30 14 C -0.036832 5.595892 0.531204 0
M  V30 15 C -1.249764 5.115832 0.023137 0
M  V30 16 O -2.187237 6.073045 -0.326272 0
M  V30 17 C -1.442323 3.763897 -0.099090 0
M  V30 18 C -0.523752 2.816768 0.242982 0
M  V30 19 C -0.377700 1.460848 0.258016 0
M  V30 20 C -1.244133 0.484137 -0.125405 0
M  V30 21 C -0.876279 -0.834242 -0.019279 0
M  V30 22 C -1.910092 -1.761971 -0.461554 0
M  V30 23 O -1.902159 -3.009380 -0.495625 0
M  V30 24 N -2.986068 -0.888029 -0.865866 0
M  V30 25 C -2.569301 0.450030 -0.657647 0
M  V30 26 O -3.393860 1.321421 -0.961343 0
M  V30 27 C 1.072321 -3.508965 -0.263909 0
M  V30 28 C 1.677641 -4.710970 0.041691 0
M  V30 29 H 4.218512 -5.768275 3.196975 0
M  V30 30 H 3.694725 -7.523346 3.054532 0
M  V30 31 H 2.606438 -6.265032 3.726038 0
M  V30 32 H 2.512870 -4.091458 3.261142 0
M  V30 33 H 1.453295 -2.012584 2.696474 0
M  V30 34 H 2.257682 -0.333049 1.269061 0
M  V30 35 H 2.490854 2.388570 1.452713 0
M  V30 36 H 1.842079 5.044016 1.276011 0
M  V30 37 H 0.131952 6.657780 0.634336 0
M  V30 38 H -3.052579 6.223710 0.171411 0
M  V30 39 H -2.371113 3.500194 -0.485011 0
M  V30 40 H -3.887179 -1.311343 -1.240027 0
M  V30 41 H 0.676244 -3.325755 -1.234676 0
M  V30 42 H 1.729341 -5.465818 -0.733359 0
M  V30 END ATOM
M  V30 BEGIN BOND
M  V30 1 1 1 2
M  V30 2 2 2 3
M  V30 3 1 2 4
M  V30 4 2 4 5
M  V30 5 1 5 6
M  V30 6 2 6 7
M  V30 7 1 7 8
M  V30 8 2 8 9
M  V30 9 1 9 10
M  V30 10 1 10 11
M  V30 11 1 11 12
M  V30 12 2 12 13
M  V30 13 1 13 14
M  V30 14 2 14 15
M  V30 15 1 15 16
M  V30 16 1 15 17
M  V30 17 2 17 18
M  V30 18 1 18 19
M  V30 19 1 19 20
M  V30 20 2 20 21
M  V30 21 1 21 22
M  V30 22 2 22 23
M  V30 23 1 22 24
M  V30 24 1 24 25
M  V30 25 2 25 26
M  V30 26 1 7 27
M  V30 27 2 27 28
M  V30 28 1 28 4
M  V30 29 1 21 8
M  V30 30 2 19 10
M  V30 31 1 25 20
M  V30 32 1 18 12
M  V30 33 1 1 29
M  V30 34 1 1 30
M  V30 35 1 1 31
M  V30 36 1 5 32
M  V30 37 1 6 33
M  V30 38 1 9 34
M  V30 39 1 11 35
M  V30 40 1 13 36
M  V30 41 1 14 37
M  V30 42 1 16 38
M  V30 43 1 17 39
M  V30 44 1 24 40
M  V30 45 1 27 41
M  V30 46 1 28 42
M  V30 END BOND
M  V30 END CTAB
M  END
>  <Dataset>  (438) 
ChEMBL_Kinases

>  <Ligand_Instance>  (438) 
nan

>  <PDB_ID>  (438) 
nan

>  <Standardized_SMILES>  (438) 
CC(=O)c1ccc(-c2cc3[nH]c4ccc(O)cc4c3c3c2C(=O)NC3=O)cc1

>  <Name>  (438) 
nan

>  <Pocket>  (438) 
nan

>  <ATP_Site>  (438) 
nan

>  <Peripheral>  (438) 
nan

>  <Num_H_Atoms_ProtBoundConf>  (438) 
nan

>  <Num_Resolved_Atoms>  (438) 
nan

>  <Num_Not_Resolved_Atoms>  (438) 
nan

$$$$
CHEMBL3702311
     RDKit          3D

  0  0  0  0  0  0  0  0  0  0999 V3000
M  V30 BEGIN CTAB
M  V30 COUNTS 44 46 0 0 0
M  V30 BEGIN ATOM
M  V30 1 C 3.684446 -5.730441 0.985763 0
M  V30 2 O 3.143570 -4.494794 0.526101 0
M  V30 3 C 3.454138 -3.925604 -0.670725 0
M  V30 4 O 4.270963 -4.536630 -1.400747 0
M  V30 5 C 2.925868 -2.649275 -1.210238 0
M  V30 6 S 3.444534 -2.079021 -2.749905 0
M  V30 7 C 2.423943 -0.557062 -2.738530 0
M  V30 8 N 2.286876 0.432349 -3.656370 0
M  V30 9 C 1.454873 1.444523 -3.413484 0
M  V30 10 N 0.814671 1.383819 -2.249374 0
M  V30 11 C 0.942928 0.418123 -1.342192 0
M  V30 12 N 0.109004 0.654363 -0.232245 0
M  V30 13 C 0.178172 1.563048 0.821634 0
M  V30 14 C 1.178417 2.493545 0.969694 0
M  V30 15 C 1.287065 3.411587 1.988193 0
M  V30 16 C 0.273676 3.382981 2.960354 0
M  V30 17 F 0.352400 4.278901 3.980836 0
M  V30 18 C -0.749449 2.439547 2.820670 0
M  V30 19 C -0.807963 1.543113 1.778603 0
M  V30 20 O -1.835047 0.640812 1.692353 0
M  V30 21 C -2.894457 0.436760 2.555066 0
M  V30 22 C -4.229453 0.857487 1.964050 0
M  V30 23 C -2.976856 -1.020735 2.866340 0
M  V30 24 O -2.169581 -1.855547 2.382506 0
M  V30 25 O -3.967950 -1.542939 3.723213 0
M  V30 26 C 1.781596 -0.655184 -1.525435 0
M  V30 27 C 2.036576 -1.734758 -0.729787 0
M  V30 28 C 1.380694 -1.917226 0.619182 0
M  V30 29 H 3.659265 -5.681635 2.100297 0
M  V30 30 H 4.721688 -5.883720 0.655014 0
M  V30 31 H 3.047355 -6.606249 0.713407 0
M  V30 32 H 1.430394 2.159618 -4.199980 0
M  V30 33 H -0.669502 -0.041417 -0.322982 0
M  V30 34 H 1.969597 2.534257 0.236125 0
M  V30 35 H 2.101639 4.130200 2.058568 0
M  V30 36 H -1.467529 2.514879 3.623872 0
M  V30 37 H -2.806263 1.015672 3.519902 0
M  V30 38 H -4.806556 -0.018032 1.578023 0
M  V30 39 H -4.882578 1.353534 2.731066 0
M  V30 40 H -4.046514 1.520661 1.094435 0
M  V30 41 H -4.416665 -2.427294 3.446028 0
M  V30 42 H 0.374921 -2.309441 0.505020 0
M  V30 43 H 1.424692 -0.975955 1.206627 0
M  V30 44 H 1.970287 -2.637638 1.216633 0
M  V30 END ATOM
M  V30 BEGIN BOND
M  V30 1 1 1 2
M  V30 2 1 2 3
M  V30 3 2 3 4
M  V30 4 1 3 5
M  V30 5 1 5 6
M  V30 6 1 6 7
M  V30 7 2 7 8
M  V30 8 1 8 9
M  V30 9 2 9 10
M  V30 10 1 10 11
M  V30 11 1 11 12
M  V30 12 1 12 13
M  V30 13 2 13 14
M  V30 14 1 14 15
M  V30 15 2 15 16
M  V30 16 1 16 17
M  V30 17 1 16 18
M  V30 18 2 18 19
M  V30 19 1 19 20
M  V30 20 1 20 21
M  V30 21 1 21 22
M  V30 22 1 21 23
M  V30 23 2 23 24
M  V30 24 1 23 25
M  V30 25 2 11 26
M  V30 26 1 26 27
M  V30 27 1 27 28
M  V30 28 2 27 5
M  V30 29 1 26 7
M  V30 30 1 19 13
M  V30 31 1 1 29
M  V30 32 1 1 30
M  V30 33 1 1 31
M  V30 34 1 9 32
M  V30 35 1 12 33
M  V30 36 1 14 34
M  V30 37 1 15 35
M  V30 38 1 18 36
M  V30 39 1 21 37
M  V30 40 1 22 38
M  V30 41 1 22 39
M  V30 42 1 22 40
M  V30 43 1 25 41
M  V30 44 1 28 42
M  V30 45 1 28 43
M  V30 46 1 28 44
M  V30 END BOND
M  V30 END CTAB
M  END
>  <Dataset>  (439) 
ChEMBL_Kinases

>  <Ligand_Instance>  (439) 
nan

>  <PDB_ID>  (439) 
nan

>  <Standardized_SMILES>  (439) 
COC(=O)c1sc2ncnc(Nc3ccc(F)cc3OC(C)C(=O)O)c2c1C

>  <Name>  (439) 
nan

>  <Pocket>  (439) 
nan

>  <ATP_Site>  (439) 
nan

>  <Peripheral>  (439) 
nan

>  <Num_H_Atoms_ProtBoundConf>  (439) 
nan

>  <Num_Resolved_Atoms>  (439) 
nan

>  <Num_Not_Resolved_Atoms>  (439) 
nan

$$$$
CHEMBL377481
     RDKit          3D

  0  0  0  0  0  0  0  0  0  0999 V3000
M  V30 BEGIN CTAB
M  V30 COUNTS 76 81 0 0 0
M  V30 BEGIN ATOM
M  V30 1 C -1.992248 0.854805 -3.100516 0
M  V30 2 C -1.170868 0.921390 -4.349869 0
M  V30 3 C -1.159493 2.173703 -4.927824 0
M  V30 4 C -0.432953 2.361265 -6.088679 0
M  V30 5 C 0.276967 1.301050 -6.665850 0
M  V30 6 C 0.254171 0.051968 -6.072358 0
M  V30 7 C 0.957582 -1.154014 -6.574648 0
M  V30 8 C -0.464859 -0.123007 -4.928280 0
M  V30 9 O -0.578556 -1.334995 -4.216411 0
M  V30 10 C 0.327060 -1.617539 -3.210642 0
M  V30 11 O 1.061440 -0.595980 -3.236307 0
M  V30 12 N 1.143189 -2.098900 -2.151725 0
M  V30 13 C 2.219349 -1.240111 -1.760689 0
M  V30 14 C 1.977157 -0.304876 -0.763076 0
M  V30 15 C 2.954177 0.583559 -0.305480 0
M  V30 16 C 4.214877 0.518440 -0.880051 0
M  V30 17 C 5.207577 1.385845 -0.449126 0
M  V30 18 C 6.477866 1.367109 -0.983030 0
M  V30 19 C 6.734652 0.431699 -1.986699 0
M  V30 20 C 5.742636 -0.442747 -2.424616 0
M  V30 21 C 4.476166 -0.407277 -1.875982 0
M  V30 22 C 3.494179 -1.280284 -2.316759 0
M  V30 23 C 0.981138 -3.335178 -1.465385 0
M  V30 24 C 1.535337 -4.558578 -1.758624 0
M  V30 25 C 1.213791 -5.605732 -0.924230 0
M  V30 26 N 0.399430 -5.384442 0.102597 0
M  V30 27 C -0.162554 -4.205858 0.423280 0
M  V30 28 N -1.004209 -4.086032 1.533987 0
M  V30 29 C -1.687668 -2.954037 1.988326 0
M  V30 30 C -1.728342 -1.719673 1.388004 0
M  V30 31 C -2.404843 -0.612319 1.852958 0
M  V30 32 C -3.115230 -0.726805 3.027996 0
M  V30 33 N -3.839642 0.358756 3.572781 0
M  V30 34 C -4.059709 1.653441 2.961865 0
M  V30 35 C -3.229831 2.662317 3.747563 0
M  V30 36 N -3.575807 2.570899 5.133693 0
M  V30 37 C -2.412853 2.217114 5.925264 0
M  V30 38 C -4.691619 1.686035 5.412118 0
M  V30 39 C -4.465507 0.283430 4.880127 0
M  V30 40 C -3.112460 -1.926390 3.668699 0
M  V30 41 C -2.428797 -3.003023 3.176126 0
M  V30 42 N 0.175333 -3.216318 -0.411656 0
M  V30 43 H -2.092112 -0.189461 -2.804902 0
M  V30 44 H -1.497583 1.383410 -2.262433 0
M  V30 45 H -3.017808 1.242055 -3.281211 0
M  V30 46 H -1.671216 3.040194 -4.557622 0
M  V30 47 H -0.374358 3.329608 -6.609734 0
M  V30 48 H 0.865477 1.391739 -7.579135 0
M  V30 49 H 1.170945 -0.966676 -7.647722 0
M  V30 50 H 0.350960 -2.072298 -6.520933 0
M  V30 51 H 1.958349 -1.283482 -6.084926 0
M  V30 52 H 0.977520 -0.254080 -0.309384 0
M  V30 53 H 2.730701 1.307495 0.481810 0
M  V30 54 H 5.036007 2.123642 0.330107 0
M  V30 55 H 7.304688 1.996328 -0.714106 0
M  V30 56 H 7.719289 0.364027 -2.449861 0
M  V30 57 H 5.926519 -1.175478 -3.204191 0
M  V30 58 H 3.673630 -2.004533 -3.086500 0
M  V30 59 H 2.173840 -4.563626 -2.627792 0
M  V30 60 H 1.654907 -6.557155 -1.165616 0
M  V30 61 H -1.142387 -4.972159 2.107689 0
M  V30 62 H -1.198681 -1.569174 0.475602 0
M  V30 63 H -2.377032 0.336420 1.301006 0
M  V30 64 H -5.149923 1.919630 3.059102 0
M  V30 65 H -3.737505 1.712605 1.903710 0
M  V30 66 H -3.453093 3.667209 3.329210 0
M  V30 67 H -2.166078 2.402471 3.593296 0
M  V30 68 H -1.600570 2.934504 5.727410 0
M  V30 69 H -2.642695 2.194556 7.002673 0
M  V30 70 H -2.052621 1.221492 5.537800 0
M  V30 71 H -5.641244 2.063606 5.022436 0
M  V30 72 H -4.767157 1.626945 6.519956 0
M  V30 73 H -5.451517 -0.195354 4.774787 0
M  V30 74 H -3.831650 -0.298113 5.599788 0
M  V30 75 H -3.664526 -2.057344 4.600581 0
M  V30 76 H -2.463627 -3.932559 3.732320 0
M  V30 END ATOM
M  V30 BEGIN BOND
M  V30 1 1 1 2
M  V30 2 2 2 3
M  V30 3 1 3 4
M  V30 4 2 4 5
M  V30 5 1 5 6
M  V30 6 1 6 7
M  V30 7 2 6 8
M  V30 8 1 8 9
M  V30 9 1 9 10
M  V30 10 2 10 11
M  V30 11 1 10 12
M  V30 12 1 12 13
M  V30 13 2 13 14
M  V30 14 1 14 15
M  V30 15 2 15 16
M  V30 16 1 16 17
M  V30 17 2 17 18
M  V30 18 1 18 19
M  V30 19 2 19 20
M  V30 20 1 20 21
M  V30 21 2 21 22
M  V30 22 1 12 23
M  V30 23 2 23 24
M  V30 24 1 24 25
M  V30 25 2 25 26
M  V30 26 1 26 27
M  V30 27 1 27 28
M  V30 28 1 28 29
M  V30 29 2 29 30
M  V30 30 1 30 31
M  V30 31 2 31 32
M  V30 32 1 32 33
M  V30 33 1 33 34
M  V30 34 1 34 35
M  V30 35 1 35 36
M  V30 36 1 36 37
M  V30 37 1 36 38
M  V30 38 1 38 39
M  V30 39 1 32 40
M  V30 40 2 40 41
M  V30 41 2 27 42
M  V30 42 1 8 2
M  V30 43 1 22 13
M  V30 44 1 42 23
M  V30 45 1 21 16
M  V30 46 1 41 29
M  V30 47 1 39 33
M  V30 48 1 1 43
M  V30 49 1 1 44
M  V30 50 1 1 45
M  V30 51 1 3 46
M  V30 52 1 4 47
M  V30 53 1 5 48
M  V30 54 1 7 49
M  V30 55 1 7 50
M  V30 56 1 7 51
M  V30 57 1 14 52
M  V30 58 1 15 53
M  V30 59 1 17 54
M  V30 60 1 18 55
M  V30 61 1 19 56
M  V30 62 1 20 57
M  V30 63 1 22 58
M  V30 64 1 24 59
M  V30 65 1 25 60
M  V30 66 1 28 61
M  V30 67 1 30 62
M  V30 68 1 31 63
M  V30 69 1 34 64
M  V30 70 1 34 65
M  V30 71 1 35 66
M  V30 72 1 35 67
M  V30 73 1 37 68
M  V30 74 1 37 69
M  V30 75 1 37 70
M  V30 76 1 38 71
M  V30 77 1 38 72
M  V30 78 1 39 73
M  V30 79 1 39 74
M  V30 80 1 40 75
M  V30 81 1 41 76
M  V30 END BOND
M  V30 END CTAB
M  END
>  <Dataset>  (440) 
ChEMBL_Kinases

>  <Ligand_Instance>  (440) 
nan

>  <PDB_ID>  (440) 
nan

>  <Standardized_SMILES>  (440) 
Cc1cccc(C)c1OC(=O)N(c1ccc2ccccc2c1)c1ccnc(Nc2ccc(N3CCN(C)CC3)cc2)n1

>  <Name>  (440) 
nan

>  <Pocket>  (440) 
nan

>  <ATP_Site>  (440) 
nan

>  <Peripheral>  (440) 
nan

>  <Num_H_Atoms_ProtBoundConf>  (440) 
nan

>  <Num_Resolved_Atoms>  (440) 
nan

>  <Num_Not_Resolved_Atoms>  (440) 
nan

$$$$
CHEMBL3775606
     RDKit          3D

  0  0  0  0  0  0  0  0  0  0999 V3000
M  V30 BEGIN CTAB
M  V30 COUNTS 52 55 0 0 0
M  V30 BEGIN ATOM
M  V30 1 C 2.499795 0.306610 5.814890 0
M  V30 2 C 3.452146 -0.592464 5.077618 0
M  V30 3 C 3.089239 -2.039665 5.359154 0
M  V30 4 C 3.515949 -0.330711 3.621799 0
M  V30 5 N 4.279540 0.474929 2.843699 0
M  V30 6 N 3.922075 0.323361 1.582646 0
M  V30 7 C 2.926016 -0.575837 1.505789 0
M  V30 8 C 2.245561 -1.041846 0.383062 0
M  V30 9 N 2.544992 -0.591116 -0.914917 0
M  V30 10 C 1.923413 -0.986737 -2.158636 0
M  V30 11 C 0.477179 -0.689928 -2.230746 0
M  V30 12 C 0.157116 0.589930 -2.699442 0
M  V30 13 C -1.150742 1.008441 -2.827666 0
M  V30 14 C -2.214709 0.195994 -2.503908 0
M  V30 15 C -3.586976 0.662699 -2.648997 0
M  V30 16 C -4.665595 -0.133103 -2.331914 0
M  V30 17 C -5.914988 0.428777 -2.514549 0
M  V30 18 C -6.072184 1.713731 -2.987703 0
M  V30 19 C -4.962033 2.479016 -3.294081 0
M  V30 20 N -3.739497 1.919720 -3.111813 0
M  V30 21 C -1.884805 -1.060765 -2.043983 0
M  V30 22 C -0.593954 -1.493736 -1.910053 0
M  V30 23 N 1.287917 -1.951388 0.635532 0
M  V30 24 C 0.983856 -2.399540 1.864071 0
M  V30 25 S -0.280785 -3.588753 2.116016 0
M  V30 26 C -1.834457 -2.725759 2.378985 0
M  V30 27 O -0.383967 -4.412667 0.856185 0
M  V30 28 O 0.016258 -4.425007 3.307265 0
M  V30 29 N 1.666739 -1.922305 2.920129 0
M  V30 30 C 2.644881 -1.009424 2.780053 0
M  V30 31 H 1.942220 -0.265504 6.608102 0
M  V30 32 H 1.775944 0.681201 5.077708 0
M  V30 33 H 2.991992 1.150566 6.348722 0
M  V30 34 H 4.485286 -0.418815 5.492035 0
M  V30 35 H 3.483491 -2.386568 6.339508 0
M  V30 36 H 1.986012 -2.162264 5.332388 0
M  V30 37 H 3.514148 -2.672571 4.529312 0
M  V30 38 H 4.381643 0.851349 0.801730 0
M  V30 39 H 3.327381 0.130841 -0.977510 0
M  V30 40 H 2.075528 -2.095303 -2.340397 0
M  V30 41 H 2.428010 -0.502179 -3.007055 0
M  V30 42 H 0.935475 1.299634 -2.979475 0
M  V30 43 H -1.348915 2.006836 -3.194731 0
M  V30 44 H -4.554263 -1.131011 -1.964430 0
M  V30 45 H -6.764718 -0.178478 -2.272439 0
M  V30 46 H -7.080260 2.084021 -3.104423 0
M  V30 47 H -5.105280 3.485445 -3.663467 0
M  V30 48 H -2.639792 -1.758561 -1.769470 0
M  V30 49 H -0.323356 -2.477827 -1.555688 0
M  V30 50 H -2.302910 -2.435500 1.426072 0
M  V30 51 H -1.676230 -1.833336 3.017798 0
M  V30 52 H -2.515046 -3.400978 2.970912 0
M  V30 END ATOM
M  V30 BEGIN BOND
M  V30 1 1 1 2
M  V30 2 1 2 3
M  V30 3 1 2 4
M  V30 4 2 4 5
M  V30 5 1 5 6
M  V30 6 1 6 7
M  V30 7 2 7 8
M  V30 8 1 8 9
M  V30 9 1 9 10
M  V30 10 1 10 11
M  V30 11 2 11 12
M  V30 12 1 12 13
M  V30 13 2 13 14
M  V30 14 1 14 15
M  V30 15 2 15 16
M  V30 16 1 16 17
M  V30 17 2 17 18
M  V30 18 1 18 19
M  V30 19 2 19 20
M  V30 20 1 14 21
M  V30 21 2 21 22
M  V30 22 1 8 23
M  V30 23 2 23 24
M  V30 24 1 24 25
M  V30 25 1 25 26
M  V30 26 2 25 27
M  V30 27 2 25 28
M  V30 28 1 24 29
M  V30 29 2 29 30
M  V30 30 1 30 4
M  V30 31 1 30 7
M  V30 32 1 22 11
M  V30 33 1 20 15
M  V30 34 1 1 31
M  V30 35 1 1 32
M  V30 36 1 1 33
M  V30 37 1 2 34
M  V30 38 1 3 35
M  V30 39 1 3 36
M  V30 40 1 3 37
M  V30 41 1 6 38
M  V30 42 1 9 39
M  V30 43 1 10 40
M  V30 44 1 10 41
M  V30 45 1 12 42
M  V30 46 1 13 43
M  V30 47 1 16 44
M  V30 48 1 17 45
M  V30 49 1 18 46
M  V30 50 1 19 47
M  V30 51 1 21 48
M  V30 52 1 22 49
M  V30 53 1 26 50
M  V30 54 1 26 51
M  V30 55 1 26 52
M  V30 END BOND
M  V30 END CTAB
M  END
>  <Dataset>  (441) 
ChEMBL_Kinases

>  <Ligand_Instance>  (441) 
nan

>  <PDB_ID>  (441) 
nan

>  <Standardized_SMILES>  (441) 
CC(C)c1n[nH]c2c(NCc3ccc(-c4ccccn4)cc3)nc(S(C)(=O)=O)nc12

>  <Name>  (441) 
nan

>  <Pocket>  (441) 
nan

>  <ATP_Site>  (441) 
nan

>  <Peripheral>  (441) 
nan

>  <Num_H_Atoms_ProtBoundConf>  (441) 
nan

>  <Num_Resolved_Atoms>  (441) 
nan

>  <Num_Not_Resolved_Atoms>  (441) 
nan

$$$$
CHEMBL3775562
     RDKit          3D

  0  0  0  0  0  0  0  0  0  0999 V3000
M  V30 BEGIN CTAB
M  V30 COUNTS 54 58 0 0 0
M  V30 BEGIN ATOM
M  V30 1 C 0.122524 -7.690687 4.004059 0
M  V30 2 N 0.641030 -6.750441 3.010296 0
M  V30 3 C 1.191833 -5.527293 3.097413 0
M  V30 4 C 1.489103 -5.089817 1.831444 0
M  V30 5 C 2.093323 -3.781928 1.645748 0
M  V30 6 C 2.964547 -3.090039 2.448567 0
M  V30 7 C 3.406863 -1.837869 2.102139 0
M  V30 8 C 3.033184 -1.180171 0.957117 0
M  V30 9 C 3.464649 0.156526 0.488292 0
M  V30 10 C 2.774079 1.240805 1.215306 0
M  V30 11 N 3.338465 2.051556 2.134076 0
M  V30 12 N 2.449420 2.927756 2.572402 0
M  V30 13 C 1.248466 2.743415 1.968241 0
M  V30 14 C 0.100658 3.450859 2.181413 0
M  V30 15 C -0.957706 2.969367 1.390463 0
M  V30 16 C -0.846030 1.909310 0.507839 0
M  V30 17 C -2.042720 1.488075 -0.247052 0
M  V30 18 O -2.521630 0.809424 0.734050 0
M  V30 19 N -2.660584 1.626499 -1.533326 0
M  V30 20 C -2.382477 2.281499 -2.791721 0
M  V30 21 C -3.674947 2.843595 -3.328033 0
M  V30 22 N -4.615377 1.793341 -3.658187 0
M  V30 23 C -4.230515 0.555587 -2.992970 0
M  V30 24 C -3.930259 0.918623 -1.561858 0
M  V30 25 C 0.392912 1.284507 0.398329 0
M  V30 26 C 1.478761 1.680913 1.124721 0
M  V30 27 C 2.153557 -1.902243 0.164780 0
M  V30 28 C 1.680706 -3.173905 0.480821 0
M  V30 29 C 1.106060 -6.078154 0.963345 0
M  V30 30 N 0.602753 -7.056087 1.704350 0
M  V30 31 H -0.263114 -7.056770 4.854234 0
M  V30 32 H -0.771278 -8.196463 3.587392 0
M  V30 33 H 0.887355 -8.360239 4.405355 0
M  V30 34 H 1.315780 -5.090434 4.063744 0
M  V30 35 H 3.248848 -3.615280 3.338805 0
M  V30 36 H 4.098802 -1.313986 2.754965 0
M  V30 37 H 4.570560 0.267679 0.633066 0
M  V30 38 H 3.207041 0.272097 -0.591238 0
M  V30 39 H 2.781581 3.603010 3.282330 0
M  V30 40 H 0.014346 4.273624 2.867502 0
M  V30 41 H -1.934920 3.465230 1.476448 0
M  V30 42 H -1.664957 3.126780 -2.674692 0
M  V30 43 H -1.895978 1.592295 -3.511993 0
M  V30 44 H -3.455578 3.476297 -4.224934 0
M  V30 45 H -4.094156 3.527611 -2.568935 0
M  V30 46 H -5.556073 2.087209 -3.261300 0
M  V30 47 H -5.069279 -0.183130 -3.049063 0
M  V30 48 H -3.308477 0.155459 -3.449081 0
M  V30 49 H -4.749085 1.519280 -1.106755 0
M  V30 50 H -3.870157 -0.056199 -1.004194 0
M  V30 51 H 0.500333 0.451820 -0.291208 0
M  V30 52 H 1.808582 -1.446043 -0.773599 0
M  V30 53 H 0.982506 -3.624990 -0.247807 0
M  V30 54 H 1.237632 -5.971335 -0.112409 0
M  V30 END ATOM
M  V30 BEGIN BOND
M  V30 1 1 1 2
M  V30 2 1 2 3
M  V30 3 2 3 4
M  V30 4 1 4 5
M  V30 5 2 5 6
M  V30 6 1 6 7
M  V30 7 2 7 8
M  V30 8 1 8 9
M  V30 9 1 9 10
M  V30 10 2 10 11
M  V30 11 1 11 12
M  V30 12 1 12 13
M  V30 13 2 13 14
M  V30 14 1 14 15
M  V30 15 2 15 16
M  V30 16 1 16 17
M  V30 17 2 17 18
M  V30 18 1 17 19
M  V30 19 1 19 20
M  V30 20 1 20 21
M  V30 21 1 21 22
M  V30 22 1 22 23
M  V30 23 1 23 24
M  V30 24 1 16 25
M  V30 25 2 25 26
M  V30 26 1 8 27
M  V30 27 2 27 28
M  V30 28 1 4 29
M  V30 29 2 29 30
M  V30 30 1 30 2
M  V30 31 1 28 5
M  V30 32 1 26 10
M  V30 33 1 26 13
M  V30 34 1 24 19
M  V30 35 1 1 31
M  V30 36 1 1 32
M  V30 37 1 1 33
M  V30 38 1 3 34
M  V30 39 1 6 35
M  V30 40 1 7 36
M  V30 41 1 9 37
M  V30 42 1 9 38
M  V30 43 1 12 39
M  V30 44 1 14 40
M  V30 45 1 15 41
M  V30 46 1 20 42
M  V30 47 1 20 43
M  V30 48 1 21 44
M  V30 49 1 21 45
M  V30 50 1 22 46
M  V30 51 1 23 47
M  V30 52 1 23 48
M  V30 53 1 24 49
M  V30 54 1 24 50
M  V30 55 1 25 51
M  V30 56 1 27 52
M  V30 57 1 28 53
M  V30 58 1 29 54
M  V30 END BOND
M  V30 END CTAB
M  END
>  <Dataset>  (442) 
ChEMBL_Kinases

>  <Ligand_Instance>  (442) 
nan

>  <PDB_ID>  (442) 
nan

>  <Standardized_SMILES>  (442) 
Cn1cc(-c2ccc(Cc3n[nH]c4ccc(C(=O)N5CCNCC5)cc34)cc2)cn1

>  <Name>  (442) 
nan

>  <Pocket>  (442) 
nan

>  <ATP_Site>  (442) 
nan

>  <Peripheral>  (442) 
nan

>  <Num_H_Atoms_ProtBoundConf>  (442) 
nan

>  <Num_Resolved_Atoms>  (442) 
nan

>  <Num_Not_Resolved_Atoms>  (442) 
nan

$$$$
CHEMBL3775547
     RDKit          3D

  0  0  0  0  0  0  0  0  0  0999 V3000
M  V30 BEGIN CTAB
M  V30 COUNTS 49 53 0 0 0
M  V30 BEGIN ATOM
M  V30 1 C -0.365543 -7.486532 2.110490 0
M  V30 2 N 0.353864 -6.637933 1.158898 0
M  V30 3 C 0.145983 -5.300406 1.002008 0
M  V30 4 C 1.004562 -4.846531 0.017568 0
M  V30 5 C 1.159426 -3.484653 -0.508857 0
M  V30 6 C 2.354799 -2.963542 -0.991138 0
M  V30 7 C 2.411380 -1.665904 -1.470184 0
M  V30 8 C 1.291229 -0.859443 -1.481546 0
M  V30 9 C 1.398356 0.507948 -2.004349 0
M  V30 10 C 1.853576 1.518956 -1.042456 0
M  V30 11 N 3.116053 2.037721 -1.033355 0
M  V30 12 N 3.219847 2.914888 -0.062566 0
M  V30 13 C 2.077386 3.043706 0.624329 0
M  V30 14 C 1.657123 3.800516 1.701446 0
M  V30 15 C 0.352059 3.682827 2.178339 0
M  V30 16 C -0.496584 2.796514 1.547831 0
M  V30 17 N -1.851877 2.584417 1.940936 0
M  V30 18 C -2.061049 1.556672 2.944568 0
M  V30 19 C -3.487884 1.128349 2.764148 0
M  V30 20 C -4.228685 2.268923 2.123293 0
M  V30 21 C -3.125634 3.122769 1.615054 0
M  V30 22 O -3.110851 4.212686 0.962729 0
M  V30 23 C -0.077560 2.029121 0.459088 0
M  V30 24 C 1.218632 2.159619 0.000785 0
M  V30 25 C 0.123230 -1.413389 -0.993869 0
M  V30 26 C 0.003711 -2.700238 -0.503939 0
M  V30 27 C 1.718696 -5.926354 -0.403223 0
M  V30 28 N 1.301126 -6.994451 0.307004 0
M  V30 29 H -0.081210 -7.150848 3.132865 0
M  V30 30 H -1.447736 -7.255637 1.974731 0
M  V30 31 H -0.128464 -8.530868 1.909432 0
M  V30 32 H -0.560175 -4.668567 1.537147 0
M  V30 33 H 3.179641 -3.652032 -0.949980 0
M  V30 34 H 3.373528 -1.321733 -1.831538 0
M  V30 35 H 0.422162 0.865499 -2.446204 0
M  V30 36 H 2.081566 0.477968 -2.878708 0
M  V30 37 H 4.090978 3.452111 0.152068 0
M  V30 38 H 2.325840 4.481845 2.177994 0
M  V30 39 H -0.033223 4.258966 3.028043 0
M  V30 40 H -1.434496 0.658638 2.796753 0
M  V30 41 H -1.916264 1.900613 3.972482 0
M  V30 42 H -3.586996 0.235582 2.113946 0
M  V30 43 H -3.965303 0.886799 3.753635 0
M  V30 44 H -4.867903 1.890135 1.278909 0
M  V30 45 H -4.853017 2.806166 2.867949 0
M  V30 46 H -0.733236 1.349840 -0.021647 0
M  V30 47 H -0.784047 -0.829327 -0.981404 0
M  V30 48 H -0.937390 -3.087883 -0.132046 0
M  V30 49 H 2.493274 -5.960972 -1.171859 0
M  V30 END ATOM
M  V30 BEGIN BOND
M  V30 1 1 1 2
M  V30 2 1 2 3
M  V30 3 2 3 4
M  V30 4 1 4 5
M  V30 5 2 5 6
M  V30 6 1 6 7
M  V30 7 2 7 8
M  V30 8 1 8 9
M  V30 9 1 9 10
M  V30 10 2 10 11
M  V30 11 1 11 12
M  V30 12 1 12 13
M  V30 13 2 13 14
M  V30 14 1 14 15
M  V30 15 2 15 16
M  V30 16 1 16 17
M  V30 17 1 17 18
M  V30 18 1 18 19
M  V30 19 1 19 20
M  V30 20 1 20 21
M  V30 21 2 21 22
M  V30 22 1 16 23
M  V30 23 2 23 24
M  V30 24 1 8 25
M  V30 25 2 25 26
M  V30 26 1 4 27
M  V30 27 2 27 28
M  V30 28 1 28 2
M  V30 29 1 26 5
M  V30 30 1 24 10
M  V30 31 1 24 13
M  V30 32 1 21 17
M  V30 33 1 1 29
M  V30 34 1 1 30
M  V30 35 1 1 31
M  V30 36 1 3 32
M  V30 37 1 6 33
M  V30 38 1 7 34
M  V30 39 1 9 35
M  V30 40 1 9 36
M  V30 41 1 12 37
M  V30 42 1 14 38
M  V30 43 1 15 39
M  V30 44 1 18 40
M  V30 45 1 18 41
M  V30 46 1 19 42
M  V30 47 1 19 43
M  V30 48 1 20 44
M  V30 49 1 20 45
M  V30 50 1 23 46
M  V30 51 1 25 47
M  V30 52 1 26 48
M  V30 53 1 27 49
M  V30 END BOND
M  V30 END CTAB
M  END
>  <Dataset>  (443) 
ChEMBL_Kinases

>  <Ligand_Instance>  (443) 
nan

>  <PDB_ID>  (443) 
nan

>  <Standardized_SMILES>  (443) 
Cn1cc(-c2ccc(Cc3n[nH]c4ccc(N5CCCC5=O)cc34)cc2)cn1

>  <Name>  (443) 
nan

>  <Pocket>  (443) 
nan

>  <ATP_Site>  (443) 
nan

>  <Peripheral>  (443) 
nan

>  <Num_H_Atoms_ProtBoundConf>  (443) 
nan

>  <Num_Resolved_Atoms>  (443) 
nan

>  <Num_Not_Resolved_Atoms>  (443) 
nan

$$$$
CHEMBL377554
     RDKit          3D

  0  0  0  0  0  0  0  0  0  0999 V3000
M  V30 BEGIN CTAB
M  V30 COUNTS 52 57 0 0 0
M  V30 BEGIN ATOM
M  V30 1 O -0.228375 -4.626241 2.479380 0
M  V30 2 C 0.616679 -3.595440 2.031554 0
M  V30 3 N 1.889838 -3.973761 2.009083 0
M  V30 4 C 2.855835 -3.141950 1.614808 0
M  V30 5 C 4.149692 -3.593496 1.617698 0
M  V30 6 C 5.148781 -2.735920 1.217412 0
M  V30 7 C 4.797727 -1.461596 0.832467 0
M  V30 8 C 3.471239 -1.095275 0.861576 0
M  V30 9 C 2.422146 -1.891451 1.246361 0
M  V30 10 C 1.105078 -1.500108 1.270780 0
M  V30 11 N 0.782563 -0.178706 0.881180 0
M  V30 12 C 1.045695 1.127319 0.351162 0 CFG=2
M  V30 13 C -0.083836 2.141648 0.478634 0
M  V30 14 N -0.343479 2.869451 -0.732002 0
M  V30 15 C 0.905273 3.473997 -1.164348 0
M  V30 16 C 1.932217 2.422293 -1.511060 0
M  V30 17 C 1.370384 1.071413 -1.136471 0
M  V30 18 C 0.109622 0.851184 -1.940082 0
M  V30 19 C -0.853160 1.974246 -1.725221 0
M  V30 20 C 0.123320 -2.349121 1.668952 0
M  V30 21 C -1.306262 -2.183359 1.657373 0
M  V30 22 N -2.127581 -3.136600 2.129031 0
M  V30 23 C -3.403072 -2.874308 2.009515 0
M  V30 24 C -4.480067 -3.662505 2.402402 0
M  V30 25 C -5.741586 -3.121083 2.145878 0
M  V30 26 C -5.875682 -1.872083 1.535591 0
M  V30 27 C -4.734357 -1.153855 1.176532 0
M  V30 28 C -3.471278 -1.642410 1.407189 0
M  V30 29 N -2.186820 -1.317112 1.238698 0
M  V30 30 H -0.625168 -4.481062 3.408814 0
M  V30 31 H 4.350418 -4.621749 1.937934 0
M  V30 32 H 6.150146 -3.137444 1.236896 0
M  V30 33 H 5.574177 -0.795104 0.521390 0
M  V30 34 H 3.307894 -0.091331 0.554088 0
M  V30 35 H -0.167447 0.065039 1.115284 0
M  V30 36 H 1.915391 1.645189 0.836238 0
M  V30 37 H 0.159459 2.938826 1.247608 0
M  V30 38 H -0.992045 1.661141 0.892847 0
M  V30 39 H 1.258065 4.124394 -0.333354 0
M  V30 40 H 0.713970 4.144887 -2.029472 0
M  V30 41 H 2.859034 2.629229 -0.913861 0
M  V30 42 H 2.223879 2.473226 -2.581344 0
M  V30 43 H 2.060049 0.244016 -1.403043 0
M  V30 44 H 0.430880 0.797307 -3.000426 0
M  V30 45 H -0.356398 -0.106631 -1.624634 0
M  V30 46 H -0.938506 2.556111 -2.667428 0
M  V30 47 H -1.821104 1.587196 -1.372724 0
M  V30 48 H -4.317997 -4.622956 2.871347 0
M  V30 49 H -6.617664 -3.690545 2.430360 0
M  V30 50 H -6.849703 -1.447727 1.334311 0
M  V30 51 H -4.775626 -0.166810 0.693677 0
M  V30 52 H -2.067896 -0.426916 0.775110 0
M  V30 END ATOM
M  V30 BEGIN BOND
M  V30 1 1 1 2
M  V30 2 2 2 3
M  V30 3 1 3 4
M  V30 4 2 4 5
M  V30 5 1 5 6
M  V30 6 2 6 7
M  V30 7 1 7 8
M  V30 8 2 8 9
M  V30 9 1 9 10
M  V30 10 1 10 11
M  V30 11 1 11 12
M  V30 12 1 12 13
M  V30 13 1 13 14
M  V30 14 1 14 15
M  V30 15 1 15 16
M  V30 16 1 16 17
M  V30 17 1 17 18
M  V30 18 1 18 19
M  V30 19 2 10 20
M  V30 20 1 20 21
M  V30 21 2 21 22
M  V30 22 1 22 23
M  V30 23 2 23 24
M  V30 24 1 24 25
M  V30 25 2 25 26
M  V30 26 1 26 27
M  V30 27 2 27 28
M  V30 28 1 28 29
M  V30 29 1 20 2
M  V30 30 1 29 21
M  V30 31 1 9 4
M  V30 32 1 17 12
M  V30 33 1 28 23
M  V30 34 1 19 14
M  V30 35 1 1 30
M  V30 36 1 5 31
M  V30 37 1 6 32
M  V30 38 1 7 33
M  V30 39 1 8 34
M  V30 40 1 11 35
M  V30 41 1 12 36 CFG=1
M  V30 42 1 13 37
M  V30 43 1 13 38
M  V30 44 1 15 39
M  V30 45 1 15 40
M  V30 46 1 16 41
M  V30 47 1 16 42
M  V30 48 1 17 43
M  V30 49 1 18 44
M  V30 50 1 18 45
M  V30 51 1 19 46
M  V30 52 1 19 47
M  V30 53 1 24 48
M  V30 54 1 25 49
M  V30 55 1 26 50
M  V30 56 1 27 51
M  V30 57 1 29 52
M  V30 END BOND
M  V30 END CTAB
M  END
>  <Dataset>  (444) 
ChEMBL_Kinases

>  <Ligand_Instance>  (444) 
nan

>  <PDB_ID>  (444) 
nan

>  <Standardized_SMILES>  (444) 
Oc1nc2ccccc2c(N[C@@H]2CN3CCC2CC3)c1-c1nc2ccccc2[nH]1

>  <Name>  (444) 
nan

>  <Pocket>  (444) 
nan

>  <ATP_Site>  (444) 
nan

>  <Peripheral>  (444) 
nan

>  <Num_H_Atoms_ProtBoundConf>  (444) 
nan

>  <Num_Resolved_Atoms>  (444) 
nan

>  <Num_Not_Resolved_Atoms>  (444) 
nan

$$$$
CHEMBL5083940
     RDKit          3D

  0  0  0  0  0  0  0  0  0  0999 V3000
M  V30 BEGIN CTAB
M  V30 COUNTS 32 34 0 0 0
M  V30 BEGIN ATOM
M  V30 1 C -2.014498 -0.639524 2.212341 0
M  V30 2 N -1.029866 -0.088319 1.337417 0
M  V30 3 C 0.144346 -0.607243 0.957631 0
M  V30 4 N 0.723851 -1.845288 1.323345 0
M  V30 5 C 0.273454 -2.928467 2.178022 0
M  V30 6 C 0.350526 -4.137256 1.226695 0
M  V30 7 C 1.444988 -3.722417 0.229692 0
M  V30 8 C 1.972393 -2.491860 0.987928 0
M  V30 9 C 0.741493 0.293366 0.106814 0
M  V30 10 C 1.989203 0.272507 -0.598359 0
M  V30 11 N 2.992174 0.274999 -1.172126 0
M  V30 12 C -0.099122 1.402922 -0.037965 0
M  V30 13 C -0.070657 2.600576 -0.729962 0
M  V30 14 N 1.072839 2.857915 -1.530317 0
M  V30 15 N -1.079528 3.487047 -0.651876 0
M  V30 16 C -2.138243 3.190075 0.122454 0
M  V30 17 N -2.190083 2.038422 0.801885 0
M  V30 18 C -1.195591 1.127871 0.745603 0
M  V30 19 H -2.894806 0.064325 2.338137 0
M  V30 20 H -1.649275 -0.754865 3.255103 0
M  V30 21 H -2.511996 -1.567414 1.828151 0
M  V30 22 H 1.034375 -3.125642 2.966578 0
M  V30 23 H -0.693702 -2.805542 2.631754 0
M  V30 24 H 0.722439 -5.029834 1.743715 0
M  V30 25 H -0.606940 -4.326265 0.733739 0
M  V30 26 H 0.977407 -3.327293 -0.690533 0
M  V30 27 H 2.203661 -4.491786 0.088897 0
M  V30 28 H 2.470002 -2.899692 1.899076 0
M  V30 29 H 2.653196 -1.911484 0.365326 0
M  V30 30 H 1.169162 2.966392 -2.574982 0
M  V30 31 H 1.950517 2.948978 -0.949903 0
M  V30 32 H -3.013833 3.830501 0.263093 0
M  V30 END ATOM
M  V30 BEGIN BOND
M  V30 1 1 1 2
M  V30 2 1 2 3
M  V30 3 1 3 4
M  V30 4 1 4 5
M  V30 5 1 5 6
M  V30 6 1 6 7
M  V30 7 1 7 8
M  V30 8 2 3 9
M  V30 9 1 9 10
M  V30 10 3 10 11
M  V30 11 1 9 12
M  V30 12 2 12 13
M  V30 13 1 13 14
M  V30 14 1 13 15
M  V30 15 2 15 16
M  V30 16 1 16 17
M  V30 17 2 17 18
M  V30 18 1 18 2
M  V30 19 1 8 4
M  V30 20 1 18 12
M  V30 21 1 1 19
M  V30 22 1 1 20
M  V30 23 1 1 21
M  V30 24 1 5 22
M  V30 25 1 5 23
M  V30 26 1 6 24
M  V30 27 1 6 25
M  V30 28 1 7 26
M  V30 29 1 7 27
M  V30 30 1 8 28
M  V30 31 1 8 29
M  V30 32 1 14 30
M  V30 33 1 14 31
M  V30 34 1 16 32
M  V30 END BOND
M  V30 END CTAB
M  END
>  <Dataset>  (445) 
ChEMBL_Kinases

>  <Ligand_Instance>  (445) 
nan

>  <PDB_ID>  (445) 
nan

>  <Standardized_SMILES>  (445) 
Cn1c(N2CCCC2)c(C#N)c2c(N)ncnc21

>  <Name>  (445) 
nan

>  <Pocket>  (445) 
nan

>  <ATP_Site>  (445) 
nan

>  <Peripheral>  (445) 
nan

>  <Num_H_Atoms_ProtBoundConf>  (445) 
nan

>  <Num_Resolved_Atoms>  (445) 
nan

>  <Num_Not_Resolved_Atoms>  (445) 
nan

$$$$
CHEMBL3775535
     RDKit          3D

  0  0  0  0  0  0  0  0  0  0999 V3000
M  V30 BEGIN CTAB
M  V30 COUNTS 45 48 0 0 0
M  V30 BEGIN ATOM
M  V30 1 C -3.923131 -5.092325 -0.981950 0
M  V30 2 N -2.828746 -4.522515 -1.718735 0
M  V30 3 C -2.422650 -3.198318 -1.399043 0
M  V30 4 O -3.098385 -2.673443 -0.476513 0
M  V30 5 C -1.339422 -2.519950 -2.068062 0
M  V30 6 C -0.601131 -3.101255 -3.076188 0
M  V30 7 C 0.425234 -2.399533 -3.679255 0
M  V30 8 C 0.705526 -1.113492 -3.265085 0
M  V30 9 N 1.605987 -0.181881 -3.628408 0
M  V30 10 N 1.446554 0.909006 -2.900834 0
M  V30 11 C 0.435275 0.766746 -2.015141 0
M  V30 12 C 0.010658 1.794992 -1.062002 0
M  V30 13 C 0.448381 1.583807 0.328177 0
M  V30 14 C -0.271084 0.928654 1.334457 0
M  V30 15 C 0.309012 0.825138 2.581802 0
M  V30 16 C 1.551029 1.321948 2.911432 0
M  V30 17 C 2.122719 1.187056 4.246032 0
M  V30 18 C 3.484621 1.081386 4.463026 0
M  V30 19 N 3.659309 0.971912 5.810322 0
M  V30 20 N 2.470190 1.007616 6.397430 0
M  V30 21 C 2.112909 0.927790 7.816714 0
M  V30 22 C 1.472901 1.139827 5.484382 0
M  V30 23 C 2.262807 1.968373 1.922080 0
M  V30 24 C 1.700548 2.082421 0.668401 0
M  V30 25 C -0.034538 -0.508826 -2.242878 0
M  V30 26 C -1.034755 -1.228371 -1.674239 0
M  V30 27 H -3.556987 -5.220498 0.072943 0
M  V30 28 H -4.199029 -6.106760 -1.374433 0
M  V30 29 H -4.817994 -4.470352 -0.947105 0
M  V30 30 H -2.347795 -5.059205 -2.462797 0
M  V30 31 H -0.812409 -4.108215 -3.408760 0
M  V30 32 H 1.042213 -2.798388 -4.475891 0
M  V30 33 H 2.322329 -0.335488 -4.390058 0
M  V30 34 H -1.108725 1.897033 -1.134729 0
M  V30 35 H 0.390539 2.791439 -1.388861 0
M  V30 36 H -1.242098 0.547221 1.060867 0
M  V30 37 H -0.289416 0.309328 3.322780 0
M  V30 38 H 4.318505 1.076977 3.761401 0
M  V30 39 H 1.935838 1.957150 8.167210 0
M  V30 40 H 2.959665 0.469642 8.379105 0
M  V30 41 H 1.215887 0.320129 7.955753 0
M  V30 42 H 0.409394 1.200247 5.616284 0
M  V30 43 H 3.251031 2.377547 2.139606 0
M  V30 44 H 2.304643 2.598474 -0.064558 0
M  V30 45 H -1.616574 -0.776043 -0.884536 0
M  V30 END ATOM
M  V30 BEGIN BOND
M  V30 1 1 1 2
M  V30 2 1 2 3
M  V30 3 2 3 4
M  V30 4 1 3 5
M  V30 5 2 5 6
M  V30 6 1 6 7
M  V30 7 2 7 8
M  V30 8 1 8 9
M  V30 9 1 9 10
M  V30 10 2 10 11
M  V30 11 1 11 12
M  V30 12 1 12 13
M  V30 13 2 13 14
M  V30 14 1 14 15
M  V30 15 2 15 16
M  V30 16 1 16 17
M  V30 17 1 17 18
M  V30 18 2 18 19
M  V30 19 1 19 20
M  V30 20 1 20 21
M  V30 21 1 20 22
M  V30 22 1 16 23
M  V30 23 2 23 24
M  V30 24 1 11 25
M  V30 25 2 25 26
M  V30 26 1 26 5
M  V30 27 1 25 8
M  V30 28 1 24 13
M  V30 29 2 22 17
M  V30 30 1 1 27
M  V30 31 1 1 28
M  V30 32 1 1 29
M  V30 33 1 2 30
M  V30 34 1 6 31
M  V30 35 1 7 32
M  V30 36 1 9 33
M  V30 37 1 12 34
M  V30 38 1 12 35
M  V30 39 1 14 36
M  V30 40 1 15 37
M  V30 41 1 18 38
M  V30 42 1 21 39
M  V30 43 1 21 40
M  V30 44 1 21 41
M  V30 45 1 22 42
M  V30 46 1 23 43
M  V30 47 1 24 44
M  V30 48 1 26 45
M  V30 END BOND
M  V30 END CTAB
M  END
>  <Dataset>  (446) 
ChEMBL_Kinases

>  <Ligand_Instance>  (446) 
nan

>  <PDB_ID>  (446) 
nan

>  <Standardized_SMILES>  (446) 
CNC(=O)c1ccc2[nH]nc(Cc3ccc(-c4cnn(C)c4)cc3)c2c1

>  <Name>  (446) 
nan

>  <Pocket>  (446) 
nan

>  <ATP_Site>  (446) 
nan

>  <Peripheral>  (446) 
nan

>  <Num_H_Atoms_ProtBoundConf>  (446) 
nan

>  <Num_Resolved_Atoms>  (446) 
nan

>  <Num_Not_Resolved_Atoms>  (446) 
nan

$$$$
CHEMBL3775519
     RDKit          3D

  0  0  0  0  0  0  0  0  0  0999 V3000
M  V30 BEGIN CTAB
M  V30 COUNTS 48 52 0 0 0
M  V30 BEGIN ATOM
M  V30 1 C 3.522331 -6.348541 -0.481856 0
M  V30 2 N 3.211395 -4.963335 -0.182426 0
M  V30 3 C 2.778972 -4.516788 1.031438 0
M  V30 4 N 2.588896 -3.167497 0.944590 0
M  V30 5 C 2.894275 -2.755133 -0.304877 0
M  V30 6 C 2.836956 -1.383498 -0.851070 0
M  V30 7 C 3.193700 -1.168535 -2.167886 0
M  V30 8 C 3.122587 0.148153 -2.635096 0
M  V30 9 C 2.709784 1.176572 -1.797090 0
M  V30 10 N 2.536860 2.495412 -1.919969 0
M  V30 11 N 2.115383 3.014094 -0.778633 0
M  V30 12 C 1.987536 2.048068 0.168310 0
M  V30 13 C 1.528234 2.338770 1.551362 0
M  V30 14 C 0.116970 1.946568 1.794963 0
M  V30 15 C -0.332142 0.752940 2.285735 0
M  V30 16 C -1.656059 0.443084 2.489894 0
M  V30 17 C -2.621265 1.373626 2.191037 0
M  V30 18 C -4.010777 0.993769 2.426782 0
M  V30 19 C -5.124082 1.753920 2.786034 0
M  V30 20 N -6.199271 0.932211 2.883848 0
M  V30 21 N -5.829162 -0.306788 2.606406 0
M  V30 22 C -6.703719 -1.477237 2.605472 0
M  V30 23 C -4.516287 -0.305525 2.326558 0
M  V30 24 C -2.227640 2.601233 1.690784 0
M  V30 25 C -0.872238 2.885254 1.494515 0
M  V30 26 C 2.365990 0.898909 -0.490325 0
M  V30 27 C 2.421773 -0.380358 0.008628 0
M  V30 28 C 3.281191 -3.888436 -0.995924 0
M  V30 29 H 2.941664 -7.033281 0.163692 0
M  V30 30 H 4.619523 -6.550562 -0.404641 0
M  V30 31 H 3.240906 -6.571202 -1.528725 0
M  V30 32 H 2.602316 -5.091918 1.933779 0
M  V30 33 H 3.516143 -1.978031 -2.819024 0
M  V30 34 H 3.387450 0.389476 -3.657901 0
M  V30 35 H 2.700276 3.060023 -2.770163 0
M  V30 36 H 1.661872 3.402293 1.798524 0
M  V30 37 H 2.221881 1.748845 2.216870 0
M  V30 38 H 0.403890 0.016655 2.525876 0
M  V30 39 H -1.925058 -0.535759 2.885588 0
M  V30 40 H -4.986855 2.828173 2.928993 0
M  V30 41 H -6.083757 -2.392227 2.474457 0
M  V30 42 H -7.501239 -1.407311 1.839536 0
M  V30 43 H -7.225733 -1.607462 3.589454 0
M  V30 44 H -3.981468 -1.220778 2.066026 0
M  V30 45 H -3.017680 3.305308 1.468899 0
M  V30 46 H -0.702081 3.874114 1.100387 0
M  V30 47 H 2.154912 -0.602849 1.031144 0
M  V30 48 H 3.596875 -3.941630 -2.029251 0
M  V30 END ATOM
M  V30 BEGIN BOND
M  V30 1 1 1 2
M  V30 2 1 2 3
M  V30 3 2 3 4
M  V30 4 1 4 5
M  V30 5 1 5 6
M  V30 6 2 6 7
M  V30 7 1 7 8
M  V30 8 2 8 9
M  V30 9 1 9 10
M  V30 10 1 10 11
M  V30 11 2 11 12
M  V30 12 1 12 13
M  V30 13 1 13 14
M  V30 14 2 14 15
M  V30 15 1 15 16
M  V30 16 2 16 17
M  V30 17 1 17 18
M  V30 18 1 18 19
M  V30 19 2 19 20
M  V30 20 1 20 21
M  V30 21 1 21 22
M  V30 22 1 21 23
M  V30 23 1 17 24
M  V30 24 2 24 25
M  V30 25 1 12 26
M  V30 26 2 26 27
M  V30 27 2 5 28
M  V30 28 1 28 2
M  V30 29 1 27 6
M  V30 30 1 26 9
M  V30 31 1 25 14
M  V30 32 2 23 18
M  V30 33 1 1 29
M  V30 34 1 1 30
M  V30 35 1 1 31
M  V30 36 1 3 32
M  V30 37 1 7 33
M  V30 38 1 8 34
M  V30 39 1 10 35
M  V30 40 1 13 36
M  V30 41 1 13 37
M  V30 42 1 15 38
M  V30 43 1 16 39
M  V30 44 1 19 40
M  V30 45 1 22 41
M  V30 46 1 22 42
M  V30 47 1 22 43
M  V30 48 1 23 44
M  V30 49 1 24 45
M  V30 50 1 25 46
M  V30 51 1 27 47
M  V30 52 1 28 48
M  V30 END BOND
M  V30 END CTAB
M  END
>  <Dataset>  (447) 
ChEMBL_Kinases

>  <Ligand_Instance>  (447) 
nan

>  <PDB_ID>  (447) 
nan

>  <Standardized_SMILES>  (447) 
Cn1cnc(-c2ccc3[nH]nc(Cc4ccc(-c5cnn(C)c5)cc4)c3c2)c1

>  <Name>  (447) 
nan

>  <Pocket>  (447) 
nan

>  <ATP_Site>  (447) 
nan

>  <Peripheral>  (447) 
nan

>  <Num_H_Atoms_ProtBoundConf>  (447) 
nan

>  <Num_Resolved_Atoms>  (447) 
nan

>  <Num_Not_Resolved_Atoms>  (447) 
nan

$$$$
CHEMBL3775509
     RDKit          3D

  0  0  0  0  0  0  0  0  0  0999 V3000
M  V30 BEGIN CTAB
M  V30 COUNTS 59 63 0 0 0
M  V30 BEGIN ATOM
M  V30 1 C 2.255878 -3.068108 5.175590 0
M  V30 2 C 3.358960 -3.075949 4.156894 0
M  V30 3 C 4.724497 -3.183372 4.747721 0
M  V30 4 C 3.235934 -1.849410 3.307456 0
M  V30 5 N 3.790311 -0.644714 3.506705 0
M  V30 6 N 3.445204 0.185615 2.531340 0
M  V30 7 C 2.640707 -0.477773 1.657506 0
M  V30 8 C 2.028500 -0.031107 0.479426 0
M  V30 9 N 2.200286 1.290310 0.026735 0
M  V30 10 C 1.634307 1.871760 -1.149538 0
M  V30 11 C 0.162651 1.906188 -1.184210 0
M  V30 12 C -0.747088 0.999593 -1.683680 0
M  V30 13 C -2.101171 1.239345 -1.603135 0
M  V30 14 C -2.630005 2.373988 -1.032004 0
M  V30 15 C -4.076120 2.530786 -0.997425 0
M  V30 16 C -4.728282 3.601438 -0.462394 0
M  V30 17 C -6.104277 3.677907 -0.466627 0
M  V30 18 C -6.888215 2.660650 -1.019786 0
M  V30 19 C -6.169004 1.607403 -1.543683 0
M  V30 20 N -4.827751 1.557129 -1.526915 0
M  V30 21 C -1.736971 3.293972 -0.526311 0
M  V30 22 C -0.376871 3.060750 -0.603274 0
M  V30 23 N 1.306317 -0.982123 -0.114260 0
M  V30 24 C 1.131012 -2.230734 0.289976 0
M  V30 25 N 0.345732 -3.194125 -0.400383 0
M  V30 26 C -0.316617 -2.911050 -1.658500 0
M  V30 27 C -0.385122 -4.258362 -2.389525 0
M  V30 28 O 0.734321 -5.043873 -2.138181 0
M  V30 29 C 0.773613 -5.507561 -0.829817 0
M  V30 30 C 0.173189 -4.527033 0.142406 0
M  V30 31 N 1.748876 -2.588386 1.429096 0
M  V30 32 C 2.505483 -1.758422 2.140614 0
M  V30 33 H 2.489319 -2.436279 6.053617 0
M  V30 34 H 1.953977 -4.099073 5.467809 0
M  V30 35 H 1.363577 -2.594916 4.694035 0
M  V30 36 H 3.200590 -3.984251 3.533645 0
M  V30 37 H 5.012116 -4.264018 4.849580 0
M  V30 38 H 4.662833 -2.825746 5.814832 0
M  V30 39 H 5.512423 -2.684366 4.184741 0
M  V30 40 H 3.722930 1.187934 2.416470 0
M  V30 41 H 2.804809 1.921194 0.606837 0
M  V30 42 H 2.038963 2.865218 -1.374797 0
M  V30 43 H 1.954466 1.211784 -2.013227 0
M  V30 44 H -0.274649 0.135567 -2.119187 0
M  V30 45 H -2.719987 0.452889 -2.030692 0
M  V30 46 H -4.167352 4.397949 -0.031322 0
M  V30 47 H -6.575121 4.562376 -0.022482 0
M  V30 48 H -7.961329 2.766557 -0.999143 0
M  V30 49 H -6.748699 0.805772 -1.978723 0
M  V30 50 H -2.140587 4.189476 -0.075545 0
M  V30 51 H 0.234883 3.862415 -0.167780 0
M  V30 52 H -1.330130 -2.526369 -1.424061 0
M  V30 53 H 0.289506 -2.186721 -2.252447 0
M  V30 54 H -1.286682 -4.827381 -2.146959 0
M  V30 55 H -0.312047 -3.991723 -3.484351 0
M  V30 56 H 0.229247 -6.467205 -0.703770 0
M  V30 57 H 1.833865 -5.662348 -0.551345 0
M  V30 58 H -0.899515 -4.751562 0.356304 0
M  V30 59 H 0.673179 -4.596844 1.145692 0
M  V30 END ATOM
M  V30 BEGIN BOND
M  V30 1 1 1 2
M  V30 2 1 2 3
M  V30 3 1 2 4
M  V30 4 2 4 5
M  V30 5 1 5 6
M  V30 6 1 6 7
M  V30 7 2 7 8
M  V30 8 1 8 9
M  V30 9 1 9 10
M  V30 10 1 10 11
M  V30 11 2 11 12
M  V30 12 1 12 13
M  V30 13 2 13 14
M  V30 14 1 14 15
M  V30 15 2 15 16
M  V30 16 1 16 17
M  V30 17 2 17 18
M  V30 18 1 18 19
M  V30 19 2 19 20
M  V30 20 1 14 21
M  V30 21 2 21 22
M  V30 22 1 8 23
M  V30 23 2 23 24
M  V30 24 1 24 25
M  V30 25 1 25 26
M  V30 26 1 26 27
M  V30 27 1 27 28
M  V30 28 1 28 29
M  V30 29 1 29 30
M  V30 30 1 24 31
M  V30 31 2 31 32
M  V30 32 1 32 4
M  V30 33 1 32 7
M  V30 34 1 22 11
M  V30 35 1 30 25
M  V30 36 1 20 15
M  V30 37 1 1 33
M  V30 38 1 1 34
M  V30 39 1 1 35
M  V30 40 1 2 36
M  V30 41 1 3 37
M  V30 42 1 3 38
M  V30 43 1 3 39
M  V30 44 1 6 40
M  V30 45 1 9 41
M  V30 46 1 10 42
M  V30 47 1 10 43
M  V30 48 1 12 44
M  V30 49 1 13 45
M  V30 50 1 16 46
M  V30 51 1 17 47
M  V30 52 1 18 48
M  V30 53 1 19 49
M  V30 54 1 21 50
M  V30 55 1 22 51
M  V30 56 1 26 52
M  V30 57 1 26 53
M  V30 58 1 27 54
M  V30 59 1 27 55
M  V30 60 1 29 56
M  V30 61 1 29 57
M  V30 62 1 30 58
M  V30 63 1 30 59
M  V30 END BOND
M  V30 END CTAB
M  END
>  <Dataset>  (448) 
ChEMBL_Kinases

>  <Ligand_Instance>  (448) 
nan

>  <PDB_ID>  (448) 
nan

>  <Standardized_SMILES>  (448) 
CC(C)c1n[nH]c2c(NCc3ccc(-c4ccccn4)cc3)nc(N3CCOCC3)nc12

>  <Name>  (448) 
nan

>  <Pocket>  (448) 
nan

>  <ATP_Site>  (448) 
nan

>  <Peripheral>  (448) 
nan

>  <Num_H_Atoms_ProtBoundConf>  (448) 
nan

>  <Num_Resolved_Atoms>  (448) 
nan

>  <Num_Not_Resolved_Atoms>  (448) 
nan

$$$$
CHEMBL3775502
     RDKit          3D

  0  0  0  0  0  0  0  0  0  0999 V3000
M  V30 BEGIN CTAB
M  V30 COUNTS 55 58 0 0 0
M  V30 BEGIN ATOM
M  V30 1 C 1.208799 -4.389790 4.359687 0
M  V30 2 C 2.397751 -4.502336 3.395662 0
M  V30 3 C 1.965466 -5.384643 2.255246 0
M  V30 4 C 2.616756 -3.134501 2.875009 0
M  V30 5 N 3.412150 -2.205244 3.388396 0
M  V30 6 N 3.381381 -1.083603 2.679071 0
M  V30 7 C 2.521715 -1.334430 1.675434 0
M  V30 8 C 2.133614 -0.487566 0.651714 0
M  V30 9 N 2.565766 0.837095 0.440179 0
M  V30 10 C 2.227998 1.786279 -0.575967 0
M  V30 11 C 0.814280 2.159581 -0.643656 0
M  V30 12 C -0.203632 1.611185 -1.393830 0
M  V30 13 C -1.496004 2.089058 -1.330211 0
M  V30 14 C -1.836899 3.144403 -0.509479 0
M  V30 15 C -3.224946 3.589310 -0.500120 0
M  V30 16 C -3.700826 4.617863 0.260868 0
M  V30 17 C -5.052946 4.958280 0.189531 0
M  V30 18 C -5.921406 4.291061 -0.622603 0
M  V30 19 C -5.409288 3.256347 -1.379123 0
M  V30 20 N -4.099809 2.952099 -1.288035 0
M  V30 21 C -0.849345 3.723955 0.259192 0
M  V30 22 C 0.451769 3.227891 0.182310 0
M  V30 23 N 1.254122 -0.976005 -0.235829 0
M  V30 24 C 0.744759 -2.193149 -0.194021 0
M  V30 25 N -0.174273 -2.652015 -1.148095 0
M  V30 26 C -0.740250 -3.965478 -1.134602 0
M  V30 27 C 0.272886 -5.082745 -1.252411 0
M  V30 28 O -0.338436 -6.333101 -1.232979 0
M  V30 29 N 1.133246 -3.021589 0.819145 0
M  V30 30 C 2.011521 -2.611735 1.751854 0
M  V30 31 H 0.728916 -5.377090 4.536202 0
M  V30 32 H 0.438899 -3.707810 3.950561 0
M  V30 33 H 1.542860 -3.935536 5.327049 0
M  V30 34 H 3.282490 -4.878972 3.922561 0
M  V30 35 H 2.085008 -6.465865 2.512943 0
M  V30 36 H 0.914178 -5.222590 1.963422 0
M  V30 37 H 2.592523 -5.245183 1.348630 0
M  V30 38 H 3.912285 -0.197338 2.863247 0
M  V30 39 H 3.260147 1.134148 1.191185 0
M  V30 40 H 2.472704 1.298410 -1.567888 0
M  V30 41 H 2.845791 2.681599 -0.482863 0
M  V30 42 H 0.086757 0.801388 -2.020971 0
M  V30 43 H -2.220587 1.582163 -1.964848 0
M  V30 44 H -3.036876 5.150396 0.901132 0
M  V30 45 H -5.454532 5.766228 0.779759 0
M  V30 46 H -6.967577 4.465923 -0.754384 0
M  V30 47 H -5.977032 2.626085 -2.077904 0
M  V30 48 H -1.089657 4.545983 0.905172 0
M  V30 49 H 1.169744 3.741244 0.820726 0
M  V30 50 H -0.469901 -1.990614 -1.926676 0
M  V30 51 H -1.327942 -4.168381 -0.202112 0
M  V30 52 H -1.448892 -4.114468 -1.974144 0
M  V30 53 H 0.798760 -5.041614 -2.251233 0
M  V30 54 H 1.041594 -5.022153 -0.466064 0
M  V30 55 H -1.300496 -6.253367 -0.968589 0
M  V30 END ATOM
M  V30 BEGIN BOND
M  V30 1 1 1 2
M  V30 2 1 2 3
M  V30 3 1 2 4
M  V30 4 2 4 5
M  V30 5 1 5 6
M  V30 6 1 6 7
M  V30 7 2 7 8
M  V30 8 1 8 9
M  V30 9 1 9 10
M  V30 10 1 10 11
M  V30 11 2 11 12
M  V30 12 1 12 13
M  V30 13 2 13 14
M  V30 14 1 14 15
M  V30 15 2 15 16
M  V30 16 1 16 17
M  V30 17 2 17 18
M  V30 18 1 18 19
M  V30 19 2 19 20
M  V30 20 1 14 21
M  V30 21 2 21 22
M  V30 22 1 8 23
M  V30 23 2 23 24
M  V30 24 1 24 25
M  V30 25 1 25 26
M  V30 26 1 26 27
M  V30 27 1 27 28
M  V30 28 1 24 29
M  V30 29 2 29 30
M  V30 30 1 30 4
M  V30 31 1 30 7
M  V30 32 1 22 11
M  V30 33 1 20 15
M  V30 34 1 1 31
M  V30 35 1 1 32
M  V30 36 1 1 33
M  V30 37 1 2 34
M  V30 38 1 3 35
M  V30 39 1 3 36
M  V30 40 1 3 37
M  V30 41 1 6 38
M  V30 42 1 9 39
M  V30 43 1 10 40
M  V30 44 1 10 41
M  V30 45 1 12 42
M  V30 46 1 13 43
M  V30 47 1 16 44
M  V30 48 1 17 45
M  V30 49 1 18 46
M  V30 50 1 19 47
M  V30 51 1 21 48
M  V30 52 1 22 49
M  V30 53 1 25 50
M  V30 54 1 26 51
M  V30 55 1 26 52
M  V30 56 1 27 53
M  V30 57 1 27 54
M  V30 58 1 28 55
M  V30 END BOND
M  V30 END CTAB
M  END
>  <Dataset>  (449) 
ChEMBL_Kinases

>  <Ligand_Instance>  (449) 
nan

>  <PDB_ID>  (449) 
nan

>  <Standardized_SMILES>  (449) 
CC(C)c1n[nH]c2c(NCc3ccc(-c4ccccn4)cc3)nc(NCCO)nc12

>  <Name>  (449) 
nan

>  <Pocket>  (449) 
nan

>  <ATP_Site>  (449) 
nan

>  <Peripheral>  (449) 
nan

>  <Num_H_Atoms_ProtBoundConf>  (449) 
nan

>  <Num_Resolved_Atoms>  (449) 
nan

>  <Num_Not_Resolved_Atoms>  (449) 
nan

$$$$
CHEMBL3775496
     RDKit          3D

  0  0  0  0  0  0  0  0  0  0999 V3000
M  V30 BEGIN CTAB
M  V30 COUNTS 45 48 0 0 0
M  V30 BEGIN ATOM
M  V30 1 C -1.026052 -4.683028 1.220631 0
M  V30 2 C -1.305490 -3.715671 0.105182 0
M  V30 3 O -2.435894 -3.294132 -0.185888 0
M  V30 4 N -0.156678 -3.323392 -0.591384 0
M  V30 5 C -0.042373 -2.421982 -1.702920 0
M  V30 6 C -0.128649 -2.867401 -3.009807 0
M  V30 7 C -0.023161 -2.030014 -4.103312 0
M  V30 8 C 0.177630 -0.688156 -3.873370 0
M  V30 9 N 0.333690 0.448872 -4.563423 0
M  V30 10 N 0.500986 1.504266 -3.787787 0
M  V30 11 C 0.464234 1.111899 -2.477822 0
M  V30 12 C 0.636550 2.169434 -1.502981 0
M  V30 13 C 0.616074 1.750642 -0.097414 0
M  V30 14 C -0.637355 1.762484 0.530489 0
M  V30 15 C -0.679880 1.381956 1.863090 0
M  V30 16 C 0.481615 1.010300 2.523276 0
M  V30 17 C 0.409510 0.611967 3.932489 0
M  V30 18 C -0.732320 -0.027239 4.430166 0
M  V30 19 N -0.450991 -0.239030 5.726855 0
M  V30 20 N 0.751787 0.218558 6.031336 0
M  V30 21 C 1.473199 0.210795 7.299011 0
M  V30 22 C 1.338742 0.763504 4.943967 0
M  V30 23 C 1.707705 1.005239 1.886359 0
M  V30 24 C 1.804005 1.379412 0.546936 0
M  V30 25 C 0.263008 -0.248181 -2.569859 0
M  V30 26 C 0.158128 -1.080764 -1.481713 0
M  V30 27 H -0.210784 -4.196993 1.828049 0
M  V30 28 H -0.600383 -5.586602 0.784577 0
M  V30 29 H -1.938007 -4.830322 1.826406 0
M  V30 30 H 0.821092 -3.641431 -0.395270 0
M  V30 31 H -0.288619 -3.935429 -3.210376 0
M  V30 32 H -0.086202 -2.346028 -5.127190 0
M  V30 33 H 0.320017 0.469876 -5.627601 0
M  V30 34 H -0.147934 2.964575 -1.708615 0
M  V30 35 H 1.598746 2.751467 -1.659289 0
M  V30 36 H -1.519908 2.057521 -0.015714 0
M  V30 37 H -1.653497 1.384065 2.374388 0
M  V30 38 H -1.652330 -0.316592 3.965261 0
M  V30 39 H 1.660202 1.243125 7.644860 0
M  V30 40 H 2.403455 -0.390790 7.249274 0
M  V30 41 H 0.795042 -0.297815 8.040276 0
M  V30 42 H 2.279804 1.231397 4.761603 0
M  V30 43 H 2.616316 0.717348 2.392193 0
M  V30 44 H 2.713393 1.403673 -0.019619 0
M  V30 45 H 0.220411 -0.764388 -0.475177 0
M  V30 END ATOM
M  V30 BEGIN BOND
M  V30 1 1 1 2
M  V30 2 2 2 3
M  V30 3 1 2 4
M  V30 4 1 4 5
M  V30 5 2 5 6
M  V30 6 1 6 7
M  V30 7 2 7 8
M  V30 8 1 8 9
M  V30 9 1 9 10
M  V30 10 2 10 11
M  V30 11 1 11 12
M  V30 12 1 12 13
M  V30 13 2 13 14
M  V30 14 1 14 15
M  V30 15 2 15 16
M  V30 16 1 16 17
M  V30 17 1 17 18
M  V30 18 2 18 19
M  V30 19 1 19 20
M  V30 20 1 20 21
M  V30 21 1 20 22
M  V30 22 1 16 23
M  V30 23 2 23 24
M  V30 24 1 11 25
M  V30 25 2 25 26
M  V30 26 1 26 5
M  V30 27 1 25 8
M  V30 28 1 24 13
M  V30 29 2 22 17
M  V30 30 1 1 27
M  V30 31 1 1 28
M  V30 32 1 1 29
M  V30 33 1 4 30
M  V30 34 1 6 31
M  V30 35 1 7 32
M  V30 36 1 9 33
M  V30 37 1 12 34
M  V30 38 1 12 35
M  V30 39 1 14 36
M  V30 40 1 15 37
M  V30 41 1 18 38
M  V30 42 1 21 39
M  V30 43 1 21 40
M  V30 44 1 21 41
M  V30 45 1 22 42
M  V30 46 1 23 43
M  V30 47 1 24 44
M  V30 48 1 26 45
M  V30 END BOND
M  V30 END CTAB
M  END
>  <Dataset>  (450) 
ChEMBL_Kinases

>  <Ligand_Instance>  (450) 
nan

>  <PDB_ID>  (450) 
nan

>  <Standardized_SMILES>  (450) 
CC(=O)Nc1ccc2[nH]nc(Cc3ccc(-c4cnn(C)c4)cc3)c2c1

>  <Name>  (450) 
nan

>  <Pocket>  (450) 
nan

>  <ATP_Site>  (450) 
nan

>  <Peripheral>  (450) 
nan

>  <Num_H_Atoms_ProtBoundConf>  (450) 
nan

>  <Num_Resolved_Atoms>  (450) 
nan

>  <Num_Not_Resolved_Atoms>  (450) 
nan

$$$$
CHEMBL3775479
     RDKit          3D

  0  0  0  0  0  0  0  0  0  0999 V3000
M  V30 BEGIN CTAB
M  V30 COUNTS 50 53 0 0 0
M  V30 BEGIN ATOM
M  V30 1 C -2.567203 -3.574686 3.891454 0
M  V30 2 S -1.425726 -4.759967 3.086480 0
M  V30 3 C -1.036660 -4.048152 1.471450 0
M  V30 4 N 0.031468 -3.246198 1.474528 0
M  V30 5 C 0.463428 -2.623995 0.371585 0
M  V30 6 N 1.527008 -1.756154 0.079319 0
M  V30 7 C 2.596080 -0.884588 -0.211554 0
M  V30 8 C 2.602499 0.428149 0.501275 0
M  V30 9 C 1.937665 1.486651 -0.104622 0
M  V30 10 C 1.849816 2.779154 0.419716 0
M  V30 11 C 2.473144 3.009940 1.629211 0
M  V30 12 C 2.383503 4.360263 2.172889 0
M  V30 13 C 2.946754 4.766088 3.363456 0
M  V30 14 C 2.876592 6.027373 3.887298 0
M  V30 15 C 2.175836 6.992653 3.159081 0
M  V30 16 C 1.625170 6.548384 1.970851 0
M  V30 17 N 1.713634 5.283156 1.477071 0
M  V30 18 C 3.139006 1.969982 2.246530 0
M  V30 19 C 3.212599 0.699349 1.708669 0
M  V30 20 C -0.235357 -2.824137 -0.832097 0
M  V30 21 N -0.216930 -2.443505 -2.144355 0
M  V30 22 N -1.186232 -2.979094 -2.834953 0
M  V30 23 C -1.950842 -3.772470 -2.053415 0
M  V30 24 C -3.127654 -4.552928 -2.477209 0
M  V30 25 C -4.436063 -3.868908 -2.111452 0
M  V30 26 C -3.088778 -5.995944 -2.044702 0
M  V30 27 C -1.351720 -3.669456 -0.810252 0
M  V30 28 N -1.704496 -4.244226 0.335422 0
M  V30 29 H -1.999002 -2.766920 4.393109 0
M  V30 30 H -3.221218 -3.092141 3.133599 0
M  V30 31 H -3.180776 -4.082929 4.656812 0
M  V30 32 H 1.911238 -1.735582 1.082702 0
M  V30 33 H 2.501615 -0.666749 -1.341086 0
M  V30 34 H 3.624334 -1.313787 -0.166714 0
M  V30 35 H 1.443975 1.322079 -1.050825 0
M  V30 36 H 1.308921 3.542313 -0.124350 0
M  V30 37 H 3.498130 4.030651 3.949682 0
M  V30 38 H 3.326778 6.310434 4.816299 0
M  V30 39 H 2.074210 7.993539 3.493342 0
M  V30 40 H 1.059423 7.236815 1.335555 0
M  V30 41 H 3.626069 2.147522 3.188572 0
M  V30 42 H 3.725513 -0.118805 2.173302 0
M  V30 43 H 0.513676 -1.794006 -2.499402 0
M  V30 44 H -3.141570 -4.564825 -3.614522 0
M  V30 45 H -5.192909 -4.677702 -2.007688 0
M  V30 46 H -4.353155 -3.240487 -1.196360 0
M  V30 47 H -4.803031 -3.189444 -2.914155 0
M  V30 48 H -2.279076 -6.097617 -1.268225 0
M  V30 49 H -4.035431 -6.355797 -1.605224 0
M  V30 50 H -2.732733 -6.634736 -2.886832 0
M  V30 END ATOM
M  V30 BEGIN BOND
M  V30 1 1 1 2
M  V30 2 1 2 3
M  V30 3 2 3 4
M  V30 4 1 4 5
M  V30 5 1 5 6
M  V30 6 1 6 7
M  V30 7 1 7 8
M  V30 8 2 8 9
M  V30 9 1 9 10
M  V30 10 2 10 11
M  V30 11 1 11 12
M  V30 12 2 12 13
M  V30 13 1 13 14
M  V30 14 2 14 15
M  V30 15 1 15 16
M  V30 16 2 16 17
M  V30 17 1 11 18
M  V30 18 2 18 19
M  V30 19 2 5 20
M  V30 20 1 20 21
M  V30 21 1 21 22
M  V30 22 2 22 23
M  V30 23 1 23 24
M  V30 24 1 24 25
M  V30 25 1 24 26
M  V30 26 1 23 27
M  V30 27 2 27 28
M  V30 28 1 28 3
M  V30 29 1 19 8
M  V30 30 1 27 20
M  V30 31 1 17 12
M  V30 32 1 1 29
M  V30 33 1 1 30
M  V30 34 1 1 31
M  V30 35 1 6 32
M  V30 36 1 7 33
M  V30 37 1 7 34
M  V30 38 1 9 35
M  V30 39 1 10 36
M  V30 40 1 13 37
M  V30 41 1 14 38
M  V30 42 1 15 39
M  V30 43 1 16 40
M  V30 44 1 18 41
M  V30 45 1 19 42
M  V30 46 1 21 43
M  V30 47 1 24 44
M  V30 48 1 25 45
M  V30 49 1 25 46
M  V30 50 1 25 47
M  V30 51 1 26 48
M  V30 52 1 26 49
M  V30 53 1 26 50
M  V30 END BOND
M  V30 END CTAB
M  END
>  <Dataset>  (451) 
ChEMBL_Kinases

>  <Ligand_Instance>  (451) 
nan

>  <PDB_ID>  (451) 
nan

>  <Standardized_SMILES>  (451) 
CSc1nc(NCc2ccc(-c3ccccn3)cc2)c2[nH]nc(C(C)C)c2n1

>  <Name>  (451) 
nan

>  <Pocket>  (451) 
nan

>  <ATP_Site>  (451) 
nan

>  <Peripheral>  (451) 
nan

>  <Num_H_Atoms_ProtBoundConf>  (451) 
nan

>  <Num_Resolved_Atoms>  (451) 
nan

>  <Num_Not_Resolved_Atoms>  (451) 
nan

$$$$
CHEMBL508402
     RDKit          3D

  0  0  0  0  0  0  0  0  0  0999 V3000
M  V30 BEGIN CTAB
M  V30 COUNTS 45 46 0 0 0
M  V30 BEGIN ATOM
M  V30 1 C -0.289136 -4.783502 1.407273 0
M  V30 2 C -0.153987 -3.471898 0.640276 0
M  V30 3 C -1.461387 -2.718064 0.897032 0
M  V30 4 C 0.030022 -3.730376 -0.827850 0
M  V30 5 C 0.961858 -2.720753 1.260383 0
M  V30 6 O 1.572978 -3.243284 2.250068 0
M  V30 7 O 1.356292 -1.456681 0.783985 0
M  V30 8 C 2.431534 -0.870707 1.477162 0
M  V30 9 C 2.857348 0.463009 0.973012 0
M  V30 10 C 4.008101 0.936439 1.813003 0
M  V30 11 O 4.428849 2.220796 1.416591 0
M  V30 12 C 1.731809 1.501058 0.960912 0
M  V30 13 C 0.994261 1.080609 -0.226555 0
M  V30 14 C -0.263015 0.984970 -0.612749 0
M  V30 15 C -1.359436 1.360081 0.265242 0
M  V30 16 C -2.319451 2.122443 -0.423272 0
M  V30 17 C -3.475355 2.607461 0.156219 0
M  V30 18 C -3.734121 2.347035 1.485662 0
M  V30 19 Cl -5.145804 2.887422 2.366303 0
M  V30 20 C -2.787866 1.598048 2.154163 0
M  V30 21 F -2.934165 1.275404 3.478338 0
M  V30 22 C -1.635000 1.110033 1.589790 0
M  V30 23 C 2.110882 0.692889 -1.118427 0
M  V30 24 O 2.170793 0.576894 -2.393022 0
M  V30 25 O 3.274531 0.417605 -0.384040 0
M  V30 26 H -1.341071 -5.072479 1.430199 0
M  V30 27 H 0.312968 -5.581076 0.907233 0
M  V30 28 H 0.052313 -4.604060 2.446523 0
M  V30 29 H -1.516392 -2.605500 2.012466 0
M  V30 30 H -1.409000 -1.757115 0.364744 0
M  V30 31 H -2.310958 -3.332303 0.562291 0
M  V30 32 H 0.172863 -4.807553 -1.039092 0
M  V30 33 H 0.870483 -3.118578 -1.264837 0
M  V30 34 H -0.886827 -3.423838 -1.409185 0
M  V30 35 H 3.330005 -1.526727 1.457809 0
M  V30 36 H 2.099481 -0.732248 2.537311 0
M  V30 37 H 3.812179 0.885475 2.882758 0
M  V30 38 H 4.860123 0.258160 1.569575 0
M  V30 39 H 4.805054 2.178117 0.502734 0
M  V30 40 H 1.242952 1.446355 1.920825 0
M  V30 41 H 2.206674 2.501564 0.857166 0
M  V30 42 H -0.488796 0.608127 -1.624940 0
M  V30 43 H -2.253081 2.410018 -1.481364 0
M  V30 44 H -4.213723 3.190250 -0.360627 0
M  V30 45 H -0.886947 0.523477 2.059057 0
M  V30 END ATOM
M  V30 BEGIN BOND
M  V30 1 1 1 2
M  V30 2 1 2 3
M  V30 3 1 2 4
M  V30 4 1 2 5
M  V30 5 2 5 6
M  V30 6 1 5 7
M  V30 7 1 7 8
M  V30 8 1 8 9
M  V30 9 1 9 10
M  V30 10 1 10 11
M  V30 11 1 9 12
M  V30 12 1 12 13
M  V30 13 2 13 14
M  V30 14 1 14 15
M  V30 15 2 15 16
M  V30 16 1 16 17
M  V30 17 2 17 18
M  V30 18 1 18 19
M  V30 19 1 18 20
M  V30 20 1 20 21
M  V30 21 2 20 22
M  V30 22 1 13 23
M  V30 23 2 23 24
M  V30 24 1 23 25
M  V30 25 1 25 9
M  V30 26 1 22 15
M  V30 27 1 1 26
M  V30 28 1 1 27
M  V30 29 1 1 28
M  V30 30 1 3 29
M  V30 31 1 3 30
M  V30 32 1 3 31
M  V30 33 1 4 32
M  V30 34 1 4 33
M  V30 35 1 4 34
M  V30 36 1 8 35
M  V30 37 1 8 36
M  V30 38 1 10 37
M  V30 39 1 10 38
M  V30 40 1 11 39
M  V30 41 1 12 40
M  V30 42 1 12 41
M  V30 43 1 14 42
M  V30 44 1 16 43
M  V30 45 1 17 44
M  V30 46 1 22 45
M  V30 END BOND
M  V30 END CTAB
M  END
>  <Dataset>  (452) 
ChEMBL_Kinases

>  <Ligand_Instance>  (452) 
nan

>  <PDB_ID>  (452) 
nan

>  <Standardized_SMILES>  (452) 
CC(C)(C)C(=O)OCC1(CO)C/C(=C\c2ccc(Cl)c(F)c2)C(=O)O1

>  <Name>  (452) 
nan

>  <Pocket>  (452) 
nan

>  <ATP_Site>  (452) 
nan

>  <Peripheral>  (452) 
nan

>  <Num_H_Atoms_ProtBoundConf>  (452) 
nan

>  <Num_Resolved_Atoms>  (452) 
nan

>  <Num_Not_Resolved_Atoms>  (452) 
nan

$$$$
CHEMBL3775467
     RDKit          3D

  0  0  0  0  0  0  0  0  0  0999 V3000
M  V30 BEGIN CTAB
M  V30 COUNTS 67 71 0 0 0
M  V30 BEGIN ATOM
M  V30 1 C 4.780995 -1.318045 3.899563 0
M  V30 2 C 5.396099 -1.026065 2.547588 0
M  V30 3 C 5.406060 -2.290988 1.720229 0
M  V30 4 C 4.639296 0.050995 1.824411 0
M  V30 5 N 4.832571 1.395328 1.857224 0
M  V30 6 N 3.951271 1.984669 1.076862 0
M  V30 7 C 3.167018 1.046664 0.519784 0
M  V30 8 C 2.097294 1.167463 -0.371514 0
M  V30 9 N 1.686552 2.441303 -0.830792 0
M  V30 10 C 0.615050 2.770467 -1.739320 0
M  V30 11 C -0.727156 2.368369 -1.251277 0
M  V30 12 C -1.329549 3.360173 -0.467237 0
M  V30 13 C -2.598728 3.170801 0.081703 0
M  V30 14 C -3.300780 2.008258 -0.126790 0
M  V30 15 C -4.627450 1.716665 0.402069 0
M  V30 16 C -5.329831 2.605683 1.188195 0
M  V30 17 C -6.585316 2.383319 1.715056 0
M  V30 18 C -7.183214 1.163179 1.425712 0
M  V30 19 C -6.479425 0.274542 0.639101 0
M  V30 20 N -5.255414 0.550177 0.153994 0
M  V30 21 C -2.691621 1.042908 -0.901637 0
M  V30 22 C -1.439626 1.207366 -1.453909 0
M  V30 23 N 1.507560 0.020512 -0.749035 0
M  V30 24 C 1.896779 -1.191604 -0.315159 0
M  V30 25 N 1.300614 -2.425287 -0.693488 0
M  V30 26 C 1.710743 -3.690491 -0.123172 0
M  V30 27 C 0.659399 -4.756719 -0.289835 0
M  V30 28 N -0.686934 -4.312789 -0.280074 0
M  V30 29 C -1.222660 -4.469317 1.055563 0
M  V30 30 C -2.659661 -4.015319 1.149579 0
M  V30 31 O -3.432719 -4.778082 0.272344 0
M  V30 32 C -0.965094 -3.043153 -0.858340 0
M  V30 33 C 0.238727 -2.605201 -1.663393 0
M  V30 34 N 2.930094 -1.268988 0.542100 0
M  V30 35 C 3.580466 -0.176766 0.974744 0
M  V30 36 H 3.997066 -0.554182 4.088693 0
M  V30 37 H 5.535440 -1.196849 4.716345 0
M  V30 38 H 4.345930 -2.332435 3.943874 0
M  V30 39 H 6.429582 -0.695795 2.674414 0
M  V30 40 H 4.417270 -2.756349 1.655770 0
M  V30 41 H 5.873235 -2.101570 0.740940 0
M  V30 42 H 6.052130 -3.024894 2.263592 0
M  V30 43 H 3.952564 3.007690 0.981963 0
M  V30 44 H 2.230537 3.273273 -0.465604 0
M  V30 45 H 0.639016 3.832745 -2.046796 0
M  V30 46 H 0.864431 2.212004 -2.693954 0
M  V30 47 H -0.868945 4.322783 -0.233390 0
M  V30 48 H -3.052554 3.927943 0.677064 0
M  V30 49 H -4.905286 3.567066 1.439964 0
M  V30 50 H -7.116622 3.084444 2.323635 0
M  V30 51 H -8.171114 0.875660 1.785608 0
M  V30 52 H -6.855446 -0.713933 0.350104 0
M  V30 53 H -3.194277 0.101975 -1.103616 0
M  V30 54 H -0.903166 0.502437 -2.070313 0
M  V30 55 H 2.662492 -3.989707 -0.598981 0
M  V30 56 H 1.903998 -3.577267 0.963932 0
M  V30 57 H 0.774836 -5.578411 0.451863 0
M  V30 58 H 0.860922 -5.224621 -1.290540 0
M  V30 59 H -1.178417 -5.528860 1.348810 0
M  V30 60 H -0.660967 -3.874341 1.802525 0
M  V30 61 H -3.018221 -4.250435 2.173004 0
M  V30 62 H -2.790624 -2.944835 0.992594 0
M  V30 63 H -3.281704 -5.729437 0.425140 0
M  V30 64 H -1.099609 -2.231714 -0.084222 0
M  V30 65 H -1.885530 -3.140220 -1.474441 0
M  V30 66 H 0.534156 -3.445395 -2.327201 0
M  V30 67 H 0.038227 -1.677019 -2.236852 0
M  V30 END ATOM
M  V30 BEGIN BOND
M  V30 1 1 1 2
M  V30 2 1 2 3
M  V30 3 1 2 4
M  V30 4 2 4 5
M  V30 5 1 5 6
M  V30 6 1 6 7
M  V30 7 2 7 8
M  V30 8 1 8 9
M  V30 9 1 9 10
M  V30 10 1 10 11
M  V30 11 2 11 12
M  V30 12 1 12 13
M  V30 13 2 13 14
M  V30 14 1 14 15
M  V30 15 2 15 16
M  V30 16 1 16 17
M  V30 17 2 17 18
M  V30 18 1 18 19
M  V30 19 2 19 20
M  V30 20 1 14 21
M  V30 21 2 21 22
M  V30 22 1 8 23
M  V30 23 2 23 24
M  V30 24 1 24 25
M  V30 25 1 25 26
M  V30 26 1 26 27
M  V30 27 1 27 28
M  V30 28 1 28 29
M  V30 29 1 29 30
M  V30 30 1 30 31
M  V30 31 1 28 32
M  V30 32 1 32 33
M  V30 33 1 24 34
M  V30 34 2 34 35
M  V30 35 1 35 4
M  V30 36 1 35 7
M  V30 37 1 22 11
M  V30 38 1 33 25
M  V30 39 1 20 15
M  V30 40 1 1 36
M  V30 41 1 1 37
M  V30 42 1 1 38
M  V30 43 1 2 39
M  V30 44 1 3 40
M  V30 45 1 3 41
M  V30 46 1 3 42
M  V30 47 1 6 43
M  V30 48 1 9 44
M  V30 49 1 10 45
M  V30 50 1 10 46
M  V30 51 1 12 47
M  V30 52 1 13 48
M  V30 53 1 16 49
M  V30 54 1 17 50
M  V30 55 1 18 51
M  V30 56 1 19 52
M  V30 57 1 21 53
M  V30 58 1 22 54
M  V30 59 1 26 55
M  V30 60 1 26 56
M  V30 61 1 27 57
M  V30 62 1 27 58
M  V30 63 1 29 59
M  V30 64 1 29 60
M  V30 65 1 30 61
M  V30 66 1 30 62
M  V30 67 1 31 63
M  V30 68 1 32 64
M  V30 69 1 32 65
M  V30 70 1 33 66
M  V30 71 1 33 67
M  V30 END BOND
M  V30 END CTAB
M  END
>  <Dataset>  (453) 
ChEMBL_Kinases

>  <Ligand_Instance>  (453) 
nan

>  <PDB_ID>  (453) 
nan

>  <Standardized_SMILES>  (453) 
CC(C)c1n[nH]c2c(NCc3ccc(-c4ccccn4)cc3)nc(N3CCN(CCO)CC3)nc12

>  <Name>  (453) 
nan

>  <Pocket>  (453) 
nan

>  <ATP_Site>  (453) 
nan

>  <Peripheral>  (453) 
nan

>  <Num_H_Atoms_ProtBoundConf>  (453) 
nan

>  <Num_Resolved_Atoms>  (453) 
nan

>  <Num_Not_Resolved_Atoms>  (453) 
nan

$$$$
CHEMBL3775423
     RDKit          3D

  0  0  0  0  0  0  0  0  0  0999 V3000
M  V30 BEGIN CTAB
M  V30 COUNTS 50 54 0 0 0
M  V30 BEGIN ATOM
M  V30 1 C -1.783660 -6.149752 1.884198 0
M  V30 2 N -0.499387 -5.516176 1.559423 0
M  V30 3 C -0.326024 -4.383127 0.860784 0
M  V30 4 C 1.031282 -4.112520 0.781469 0
M  V30 5 C 1.523738 -2.937101 0.074191 0
M  V30 6 C 2.688956 -2.319080 0.547379 0
M  V30 7 C 3.160116 -1.187745 -0.105677 0
M  V30 8 C 2.430702 -0.726631 -1.215930 0
M  V30 9 C 3.041144 0.476921 -1.765558 0
M  V30 10 C 2.756145 1.717231 -1.042375 0
M  V30 11 N 3.471789 2.832298 -1.313622 0
M  V30 12 N 3.067588 3.830319 -0.547523 0
M  V30 13 C 2.071766 3.460543 0.273532 0
M  V30 14 C 1.244256 3.973862 1.257763 0
M  V30 15 C 0.272090 3.245381 1.915561 0
M  V30 16 C 0.110562 1.898657 1.565989 0
M  V30 17 C -0.917363 1.100462 2.249426 0
M  V30 18 O -0.573897 0.765146 3.428359 0
M  V30 19 N -2.161928 0.761111 1.614899 0
M  V30 20 C -2.929673 0.911501 0.385245 0
M  V30 21 C -4.166089 0.977180 1.298969 0
M  V30 22 O -5.302341 0.458603 0.723837 0
M  V30 23 C -3.315567 -0.010554 2.104360 0
M  V30 24 C 0.932542 1.394230 0.589375 0
M  V30 25 C 1.895629 2.136420 -0.055433 0
M  V30 26 C 1.286826 -1.309559 -1.707846 0
M  V30 27 C 0.864485 -2.425553 -1.023473 0
M  V30 28 C 1.651148 -5.137330 1.465068 0
M  V30 29 N 0.682713 -5.981080 1.929469 0
M  V30 30 H -2.235407 -5.648810 2.781319 0
M  V30 31 H -2.517393 -6.034858 1.079683 0
M  V30 32 H -1.636164 -7.210889 2.165606 0
M  V30 33 H -1.137244 -3.800882 0.446553 0
M  V30 34 H 3.179127 -2.757062 1.415820 0
M  V30 35 H 4.046189 -0.768719 0.301465 0
M  V30 36 H 2.624441 0.577385 -2.821378 0
M  V30 37 H 4.124131 0.343659 -1.892983 0
M  V30 38 H 3.434783 4.821275 -0.527723 0
M  V30 39 H 1.421388 5.020469 1.481560 0
M  V30 40 H -0.340571 3.712997 2.677030 0
M  V30 41 H -2.824769 1.858158 -0.144492 0
M  V30 42 H -2.943403 -0.015859 -0.211457 0
M  V30 43 H -4.232197 1.978419 1.772444 0
M  V30 44 H -5.621746 1.127622 0.051657 0
M  V30 45 H -3.488991 0.051026 3.195578 0
M  V30 46 H -3.382926 -1.011973 1.672037 0
M  V30 47 H 0.750165 0.365265 0.390240 0
M  V30 48 H 0.795237 -0.885852 -2.571318 0
M  V30 49 H -0.050057 -2.928201 -1.381899 0
M  V30 50 H 2.729379 -5.178263 1.557662 0
M  V30 END ATOM
M  V30 BEGIN BOND
M  V30 1 1 1 2
M  V30 2 1 2 3
M  V30 3 2 3 4
M  V30 4 1 4 5
M  V30 5 2 5 6
M  V30 6 1 6 7
M  V30 7 2 7 8
M  V30 8 1 8 9
M  V30 9 1 9 10
M  V30 10 2 10 11
M  V30 11 1 11 12
M  V30 12 1 12 13
M  V30 13 2 13 14
M  V30 14 1 14 15
M  V30 15 2 15 16
M  V30 16 1 16 17
M  V30 17 2 17 18
M  V30 18 1 17 19
M  V30 19 1 19 20
M  V30 20 1 20 21
M  V30 21 1 21 22
M  V30 22 1 21 23
M  V30 23 1 16 24
M  V30 24 2 24 25
M  V30 25 1 8 26
M  V30 26 2 26 27
M  V30 27 1 4 28
M  V30 28 2 28 29
M  V30 29 1 29 2
M  V30 30 1 27 5
M  V30 31 1 25 10
M  V30 32 1 25 13
M  V30 33 1 23 19
M  V30 34 1 1 30
M  V30 35 1 1 31
M  V30 36 1 1 32
M  V30 37 1 3 33
M  V30 38 1 6 34
M  V30 39 1 7 35
M  V30 40 1 9 36
M  V30 41 1 9 37
M  V30 42 1 12 38
M  V30 43 1 14 39
M  V30 44 1 15 40
M  V30 45 1 20 41
M  V30 46 1 20 42
M  V30 47 1 21 43
M  V30 48 1 22 44
M  V30 49 1 23 45
M  V30 50 1 23 46
M  V30 51 1 24 47
M  V30 52 1 26 48
M  V30 53 1 27 49
M  V30 54 1 28 50
M  V30 END BOND
M  V30 END CTAB
M  END
>  <Dataset>  (454) 
ChEMBL_Kinases

>  <Ligand_Instance>  (454) 
nan

>  <PDB_ID>  (454) 
nan

>  <Standardized_SMILES>  (454) 
Cn1cc(-c2ccc(Cc3n[nH]c4ccc(C(=O)N5CC(O)C5)cc34)cc2)cn1

>  <Name>  (454) 
nan

>  <Pocket>  (454) 
nan

>  <ATP_Site>  (454) 
nan

>  <Peripheral>  (454) 
nan

>  <Num_H_Atoms_ProtBoundConf>  (454) 
nan

>  <Num_Resolved_Atoms>  (454) 
nan

>  <Num_Not_Resolved_Atoms>  (454) 
nan

$$$$
CHEMBL5084003
     RDKit          3D

  0  0  0  0  0  0  0  0  0  0999 V3000
M  V30 BEGIN CTAB
M  V30 COUNTS 47 50 0 0 0
M  V30 BEGIN ATOM
M  V30 1 C 0.693319 -2.632583 0.554755 0
M  V30 2 N 1.051120 -1.350350 1.183850 0
M  V30 3 C 2.148238 -0.472385 0.995769 0
M  V30 4 N 2.933219 -0.465910 2.109011 0
M  V30 5 C 4.068039 0.291972 2.154760 0
M  V30 6 N 4.424932 1.044173 1.096172 0
M  V30 7 C 3.671667 1.060158 -0.017012 0
M  V30 8 N 3.744767 1.684981 -1.206335 0
M  V30 9 C 2.692700 1.330531 -1.966330 0
M  V30 10 C 2.320089 1.696657 -3.242472 0
M  V30 11 C 1.170309 1.185577 -3.805545 0
M  V30 12 Cl 0.725871 1.668007 -5.422219 0
M  V30 13 C 0.382661 0.290735 -3.070550 0
M  V30 14 C 0.783695 -0.053672 -1.799564 0
M  V30 15 C 1.917553 0.454455 -1.254195 0
M  V30 16 C 2.534237 0.302501 -0.066403 0
M  V30 17 C 0.132045 -0.889163 2.201671 0 CFG=2
M  V30 18 C 0.086199 -1.919399 3.338940 0
M  V30 19 C -0.996436 -1.425899 4.274665 0
M  V30 20 C -1.619982 -0.146832 3.813819 0
M  V30 21 N -2.144171 -0.194861 2.457379 0
M  V30 22 C -3.480196 -0.702852 2.429842 0
M  V30 23 C -4.096722 -0.715861 1.083635 0
M  V30 24 C -3.470206 -1.542501 0.074931 0
M  V30 25 N -2.980594 -2.219288 -0.749800 0
M  V30 26 C -1.281694 -0.955823 1.601151 0
M  V30 27 H 1.439045 -2.742198 -0.280009 0
M  V30 28 H 0.864464 -3.417522 1.288598 0
M  V30 29 H -0.334101 -2.659509 0.192523 0
M  V30 30 H 4.728662 0.337865 3.006821 0
M  V30 31 H 4.499514 2.347757 -1.506505 0
M  V30 32 H 2.902719 2.375058 -3.819785 0
M  V30 33 H -0.515760 -0.065626 -3.598502 0
M  V30 34 H 0.079257 -0.735025 -1.370555 0
M  V30 35 H 0.366588 0.071585 2.645920 0
M  V30 36 H -0.273268 -2.862936 2.874007 0
M  V30 37 H 1.067186 -2.033273 3.831644 0
M  V30 38 H -1.757288 -2.225840 4.474531 0
M  V30 39 H -0.518935 -1.211208 5.252657 0
M  V30 40 H -0.961297 0.698312 4.020231 0
M  V30 41 H -2.521449 0.017328 4.460754 0
M  V30 42 H -3.507005 -1.762553 2.829535 0
M  V30 43 H -4.150397 -0.059067 3.076569 0
M  V30 44 H -5.171014 -1.084407 1.147896 0
M  V30 45 H -4.170067 0.313438 0.632529 0
M  V30 46 H -1.273619 -0.558243 0.570092 0
M  V30 47 H -1.613804 -2.010572 1.622721 0
M  V30 END ATOM
M  V30 BEGIN BOND
M  V30 1 1 1 2
M  V30 2 1 2 3
M  V30 3 2 3 4
M  V30 4 1 4 5
M  V30 5 2 5 6
M  V30 6 1 6 7
M  V30 7 1 7 8
M  V30 8 1 8 9
M  V30 9 2 9 10
M  V30 10 1 10 11
M  V30 11 1 11 12
M  V30 12 2 11 13
M  V30 13 1 13 14
M  V30 14 2 14 15
M  V30 15 1 15 16
M  V30 16 1 2 17
M  V30 17 1 17 18
M  V30 18 1 18 19
M  V30 19 1 19 20
M  V30 20 1 20 21
M  V30 21 1 21 22
M  V30 22 1 22 23
M  V30 23 1 23 24
M  V30 24 3 24 25
M  V30 25 1 21 26
M  V30 26 1 16 3
M  V30 27 1 26 17
M  V30 28 2 16 7
M  V30 29 1 15 9
M  V30 30 1 1 27
M  V30 31 1 1 28
M  V30 32 1 1 29
M  V30 33 1 5 30
M  V30 34 1 8 31
M  V30 35 1 10 32
M  V30 36 1 13 33
M  V30 37 1 14 34
M  V30 38 1 17 35 CFG=1
M  V30 39 1 18 36
M  V30 40 1 18 37
M  V30 41 1 19 38
M  V30 42 1 19 39
M  V30 43 1 20 40
M  V30 44 1 20 41
M  V30 45 1 22 42
M  V30 46 1 22 43
M  V30 47 1 23 44
M  V30 48 1 23 45
M  V30 49 1 26 46
M  V30 50 1 26 47
M  V30 END BOND
M  V30 END CTAB
M  END
>  <Dataset>  (455) 
ChEMBL_Kinases

>  <Ligand_Instance>  (455) 
nan

>  <PDB_ID>  (455) 
nan

>  <Standardized_SMILES>  (455) 
CN(c1ncnc2[nH]c3cc(Cl)ccc3c12)[C@@H]1CCCN(CCC#N)C1

>  <Name>  (455) 
nan

>  <Pocket>  (455) 
nan

>  <ATP_Site>  (455) 
nan

>  <Peripheral>  (455) 
nan

>  <Num_H_Atoms_ProtBoundConf>  (455) 
nan

>  <Num_Resolved_Atoms>  (455) 
nan

>  <Num_Not_Resolved_Atoms>  (455) 
nan

$$$$
CHEMBL3775384
     RDKit          3D

  0  0  0  0  0  0  0  0  0  0999 V3000
M  V30 BEGIN CTAB
M  V30 COUNTS 55 59 0 0 0
M  V30 BEGIN ATOM
M  V30 1 C 1.510551 -2.669884 7.699834 0
M  V30 2 N 2.385843 -2.080004 6.705752 0
M  V30 3 C 2.095629 -1.883123 5.409534 0
M  V30 4 C 3.182399 -1.294483 4.769526 0
M  V30 5 C 3.266452 -0.924083 3.370428 0
M  V30 6 C 4.014115 0.143136 2.916953 0
M  V30 7 C 4.018872 0.399731 1.561310 0
M  V30 8 C 3.315858 -0.350436 0.614501 0
M  V30 9 C 3.481666 0.115003 -0.786809 0
M  V30 10 C 2.514640 1.174750 -1.166512 0
M  V30 11 N 2.802710 2.505261 -1.259165 0
M  V30 12 N 1.753003 3.200750 -1.611583 0
M  V30 13 C 0.714087 2.364110 -1.770568 0
M  V30 14 C -0.613837 2.538974 -2.131641 0
M  V30 15 C -1.389981 1.404303 -2.189596 0
M  V30 16 C -1.006931 0.127294 -1.933542 0
M  V30 17 C -1.848160 -1.056508 -2.001823 0
M  V30 18 O -1.229633 -2.147607 -1.718225 0
M  V30 19 N -3.218183 -1.212968 -2.324098 0
M  V30 20 C -4.259893 -0.286392 -2.691089 0
M  V30 21 C -5.595335 -0.910890 -2.920085 0
M  V30 22 C -6.011735 -1.882441 -1.851673 0
M  V30 23 C -4.822142 -2.572350 -1.225328 0
M  V30 24 C -3.739237 -2.573818 -2.302231 0
M  V30 25 C 0.321502 0.030770 -1.582359 0
M  V30 26 C 1.178158 1.098931 -1.495579 0
M  V30 27 C 2.581641 -1.406612 1.105255 0
M  V30 28 C 2.570549 -1.671161 2.458701 0
M  V30 29 C 4.133730 -1.159841 5.786844 0
M  V30 30 N 3.616849 -1.643402 6.934955 0
M  V30 31 H 1.679850 -2.163782 8.664539 0
M  V30 32 H 0.451340 -2.652136 7.372048 0
M  V30 33 H 1.761556 -3.759138 7.814848 0
M  V30 34 H 1.186683 -2.120333 4.888365 0
M  V30 35 H 4.573751 0.749943 3.615418 0
M  V30 36 H 4.632279 1.260719 1.273302 0
M  V30 37 H 4.514849 0.523109 -0.929338 0
M  V30 38 H 3.337124 -0.738749 -1.493934 0
M  V30 39 H 1.727976 4.235264 -1.746633 0
M  V30 40 H -0.969617 3.535850 -2.345332 0
M  V30 41 H -2.400155 1.627522 -2.478819 0
M  V30 42 H -3.928815 0.239959 -3.604157 0
M  V30 43 H -4.323649 0.468866 -1.881406 0
M  V30 44 H -6.348124 -0.102897 -3.015275 0
M  V30 45 H -5.591854 -1.453243 -3.885593 0
M  V30 46 H -6.541921 -1.348426 -1.041254 0
M  V30 47 H -6.694625 -2.663437 -2.230144 0
M  V30 48 H -5.105013 -3.615462 -1.010701 0
M  V30 49 H -4.463655 -2.091328 -0.314840 0
M  V30 50 H -4.169259 -2.776723 -3.286777 0
M  V30 51 H -2.984292 -3.310258 -1.970884 0
M  V30 52 H 0.742853 -0.941146 -1.357055 0
M  V30 53 H 2.055899 -1.961391 0.342012 0
M  V30 54 H 1.950942 -2.534279 2.719354 0
M  V30 55 H 5.127774 -0.726448 5.637815 0
M  V30 END ATOM
M  V30 BEGIN BOND
M  V30 1 1 1 2
M  V30 2 1 2 3
M  V30 3 2 3 4
M  V30 4 1 4 5
M  V30 5 2 5 6
M  V30 6 1 6 7
M  V30 7 2 7 8
M  V30 8 1 8 9
M  V30 9 1 9 10
M  V30 10 2 10 11
M  V30 11 1 11 12
M  V30 12 1 12 13
M  V30 13 2 13 14
M  V30 14 1 14 15
M  V30 15 2 15 16
M  V30 16 1 16 17
M  V30 17 2 17 18
M  V30 18 1 17 19
M  V30 19 1 19 20
M  V30 20 1 20 21
M  V30 21 1 21 22
M  V30 22 1 22 23
M  V30 23 1 23 24
M  V30 24 1 16 25
M  V30 25 2 25 26
M  V30 26 1 8 27
M  V30 27 2 27 28
M  V30 28 1 4 29
M  V30 29 2 29 30
M  V30 30 1 30 2
M  V30 31 1 28 5
M  V30 32 1 26 10
M  V30 33 1 26 13
M  V30 34 1 24 19
M  V30 35 1 1 31
M  V30 36 1 1 32
M  V30 37 1 1 33
M  V30 38 1 3 34
M  V30 39 1 6 35
M  V30 40 1 7 36
M  V30 41 1 9 37
M  V30 42 1 9 38
M  V30 43 1 12 39
M  V30 44 1 14 40
M  V30 45 1 15 41
M  V30 46 1 20 42
M  V30 47 1 20 43
M  V30 48 1 21 44
M  V30 49 1 21 45
M  V30 50 1 22 46
M  V30 51 1 22 47
M  V30 52 1 23 48
M  V30 53 1 23 49
M  V30 54 1 24 50
M  V30 55 1 24 51
M  V30 56 1 25 52
M  V30 57 1 27 53
M  V30 58 1 28 54
M  V30 59 1 29 55
M  V30 END BOND
M  V30 END CTAB
M  END
>  <Dataset>  (456) 
ChEMBL_Kinases

>  <Ligand_Instance>  (456) 
nan

>  <PDB_ID>  (456) 
nan

>  <Standardized_SMILES>  (456) 
Cn1cc(-c2ccc(Cc3n[nH]c4ccc(C(=O)N5CCCCC5)cc34)cc2)cn1

>  <Name>  (456) 
nan

>  <Pocket>  (456) 
nan

>  <ATP_Site>  (456) 
nan

>  <Peripheral>  (456) 
nan

>  <Num_H_Atoms_ProtBoundConf>  (456) 
nan

>  <Num_Resolved_Atoms>  (456) 
nan

>  <Num_Not_Resolved_Atoms>  (456) 
nan

$$$$
CHEMBL377538
     RDKit          3D

  0  0  0  0  0  0  0  0  0  0999 V3000
M  V30 BEGIN CTAB
M  V30 COUNTS 40 44 0 0 0
M  V30 BEGIN ATOM
M  V30 1 C 0.380910 -4.204678 -0.054767 0
M  V30 2 C 0.012099 -4.100687 1.277981 0
M  V30 3 C 0.766892 -3.253396 2.102682 0
M  V30 4 C 1.846384 -2.562182 1.537867 0
M  V30 5 C 2.475428 -1.748966 2.595124 0
M  V30 6 N 3.185157 -2.177794 3.654818 0
M  V30 7 C 3.603481 -1.121860 4.404483 0
M  V30 8 O 3.148381 -0.055636 3.801974 0
M  V30 9 C 2.474417 -0.374760 2.725284 0
M  V30 10 C 1.815101 0.546837 1.789047 0
M  V30 11 C 2.737785 1.475013 1.297187 0
M  V30 12 C 2.284741 2.409124 0.392741 0
M  V30 13 C 0.939149 2.377614 0.019960 0
M  V30 14 N 0.260972 3.161317 -0.843065 0
M  V30 15 N -0.991541 2.731230 -0.870040 0
M  V30 16 C -1.145460 1.665999 -0.027808 0
M  V30 17 C -2.386986 0.852780 0.229895 0
M  V30 18 C -3.544106 1.449869 -0.514986 0
M  V30 19 C -3.006885 0.710974 -1.759677 0
M  V30 20 C -2.480650 -0.318840 -0.785810 0
M  V30 21 N 0.082349 1.471088 0.513989 0
M  V30 22 C 0.481155 0.540821 1.399475 0
M  V30 23 C 2.188825 -2.682573 0.221508 0
M  V30 24 C 1.444550 -3.521538 -0.604648 0
M  V30 25 H -0.206309 -4.857572 -0.685485 0
M  V30 26 H -0.845823 -4.672190 1.656124 0
M  V30 27 H 0.404143 -3.239167 3.117061 0
M  V30 28 H 4.187159 -1.111083 5.309662 0
M  V30 29 H 3.776227 1.548103 1.543631 0
M  V30 30 H 2.930612 3.162116 -0.036076 0
M  V30 31 H -2.538414 0.516853 1.248350 0
M  V30 32 H -3.502659 2.539461 -0.726495 0
M  V30 33 H -4.548055 1.060314 -0.240766 0
M  V30 34 H -2.167765 1.234372 -2.251950 0
M  V30 35 H -3.811640 0.347764 -2.426346 0
M  V30 36 H -3.226146 -1.028833 -0.408746 0
M  V30 37 H -1.485244 -0.715237 -1.056523 0
M  V30 38 H -0.127168 -0.227990 1.853497 0
M  V30 39 H 3.041167 -2.090730 -0.055568 0
M  V30 40 H 1.751243 -3.584381 -1.637758 0
M  V30 END ATOM
M  V30 BEGIN BOND
M  V30 1 2 1 2
M  V30 2 1 2 3
M  V30 3 2 3 4
M  V30 4 1 4 5
M  V30 5 1 5 6
M  V30 6 2 6 7
M  V30 7 1 7 8
M  V30 8 1 8 9
M  V30 9 1 9 10
M  V30 10 1 10 11
M  V30 11 2 11 12
M  V30 12 1 12 13
M  V30 13 2 13 14
M  V30 14 1 14 15
M  V30 15 2 15 16
M  V30 16 1 16 17
M  V30 17 1 17 18
M  V30 18 1 18 19
M  V30 19 1 19 20
M  V30 20 1 16 21
M  V30 21 1 21 22
M  V30 22 1 4 23
M  V30 23 2 23 24
M  V30 24 1 24 1
M  V30 25 2 9 5
M  V30 26 2 22 10
M  V30 27 1 21 13
M  V30 28 1 20 17
M  V30 29 1 1 25
M  V30 30 1 2 26
M  V30 31 1 3 27
M  V30 32 1 7 28
M  V30 33 1 11 29
M  V30 34 1 12 30
M  V30 35 1 17 31
M  V30 36 1 18 32
M  V30 37 1 18 33
M  V30 38 1 19 34
M  V30 39 1 19 35
M  V30 40 1 20 36
M  V30 41 1 20 37
M  V30 42 1 22 38
M  V30 43 1 23 39
M  V30 44 1 24 40
M  V30 END BOND
M  V30 END CTAB
M  END
>  <Dataset>  (457) 
ChEMBL_Kinases

>  <Ligand_Instance>  (457) 
nan

>  <PDB_ID>  (457) 
nan

>  <Standardized_SMILES>  (457) 
c1ccc(-c2ncoc2-c2ccc3nnc(C4CCC4)n3c2)cc1

>  <Name>  (457) 
nan

>  <Pocket>  (457) 
nan

>  <ATP_Site>  (457) 
nan

>  <Peripheral>  (457) 
nan

>  <Num_H_Atoms_ProtBoundConf>  (457) 
nan

>  <Num_Resolved_Atoms>  (457) 
nan

>  <Num_Not_Resolved_Atoms>  (457) 
nan

$$$$
CHEMBL3775321
     RDKit          3D

  0  0  0  0  0  0  0  0  0  0999 V3000
M  V30 BEGIN CTAB
M  V30 COUNTS 53 57 0 0 0
M  V30 BEGIN ATOM
M  V30 1 C 0.544043 -3.004778 7.575822 0
M  V30 2 N 0.899796 -3.158888 6.169990 0
M  V30 3 C 1.340935 -2.132543 5.416988 0
M  V30 4 C 1.581009 -2.639687 4.140933 0
M  V30 5 C 2.065040 -1.951783 2.948135 0
M  V30 6 C 2.935643 -0.886604 2.949464 0
M  V30 7 C 3.353207 -0.284086 1.774778 0
M  V30 8 C 2.914037 -0.724112 0.539369 0
M  V30 9 C 3.409598 -0.027723 -0.678390 0
M  V30 10 C 2.584665 1.165497 -0.999107 0
M  V30 11 N 2.948306 2.453207 -0.746865 0
M  V30 12 N 2.027149 3.300772 -1.127658 0
M  V30 13 C 0.991424 2.630468 -1.658464 0
M  V30 14 C -0.219932 3.055720 -2.203183 0
M  V30 15 C -1.073905 2.058093 -2.669159 0
M  V30 16 C -0.736853 0.727430 -2.594314 0
M  V30 17 C -1.604714 -0.342354 -3.066202 0
M  V30 18 O -1.271829 -1.121717 -4.011424 0
M  V30 19 N -2.875922 -0.534314 -2.455205 0
M  V30 20 C -3.863677 -1.542052 -2.791924 0
M  V30 21 C -4.760822 -1.655151 -1.559623 0
M  V30 22 C -3.994361 -0.865229 -0.498735 0 CFG=2
M  V30 23 O -4.843987 -0.387458 0.489339 0
M  V30 24 C -3.431159 0.253253 -1.365078 0
M  V30 25 C 0.478586 0.340915 -2.044692 0
M  V30 26 C 1.340706 1.300303 -1.577410 0
M  V30 27 C 2.043634 -1.791623 0.565925 0
M  V30 28 C 1.619101 -2.401638 1.721924 0
M  V30 29 C 1.263845 -3.995277 4.180749 0
M  V30 30 N 0.850349 -4.268805 5.445201 0
M  V30 31 H -0.398946 -2.398703 7.658301 0
M  V30 32 H 0.481681 -3.967948 8.108619 0
M  V30 33 H 1.338587 -2.377026 8.053577 0
M  V30 34 H 1.520185 -1.086829 5.619224 0
M  V30 35 H 3.261093 -0.565758 3.945852 0
M  V30 36 H 4.049019 0.560074 1.856948 0
M  V30 37 H 4.443660 0.312991 -0.461139 0
M  V30 38 H 3.416331 -0.723763 -1.560981 0
M  V30 39 H 2.138186 4.332281 -1.011437 0
M  V30 40 H -0.447277 4.108146 -2.243807 0
M  V30 41 H -2.023804 2.348603 -3.098723 0
M  V30 42 H -4.413654 -1.293466 -3.705935 0
M  V30 43 H -3.417040 -2.543490 -2.965040 0
M  V30 44 H -4.963802 -2.679521 -1.255462 0
M  V30 45 H -5.681540 -1.071798 -1.824711 0
M  V30 46 H -3.151186 -1.450958 -0.133011 0
M  V30 47 H -4.846172 -1.048458 1.225736 0
M  V30 48 H -2.676065 0.862671 -0.841145 0
M  V30 49 H -4.260363 0.864302 -1.801033 0
M  V30 50 H 0.737602 -0.699711 -1.991733 0
M  V30 51 H 1.684171 -2.163834 -0.382813 0
M  V30 52 H 0.932280 -3.237939 1.672606 0
M  V30 53 H 1.349208 -4.663685 3.332529 0
M  V30 END ATOM
M  V30 BEGIN BOND
M  V30 1 1 1 2
M  V30 2 1 2 3
M  V30 3 2 3 4
M  V30 4 1 4 5
M  V30 5 2 5 6
M  V30 6 1 6 7
M  V30 7 2 7 8
M  V30 8 1 8 9
M  V30 9 1 9 10
M  V30 10 2 10 11
M  V30 11 1 11 12
M  V30 12 1 12 13
M  V30 13 2 13 14
M  V30 14 1 14 15
M  V30 15 2 15 16
M  V30 16 1 16 17
M  V30 17 2 17 18
M  V30 18 1 17 19
M  V30 19 1 19 20
M  V30 20 1 20 21
M  V30 21 1 21 22
M  V30 22 1 22 23
M  V30 23 1 22 24
M  V30 24 1 16 25
M  V30 25 2 25 26
M  V30 26 1 8 27
M  V30 27 2 27 28
M  V30 28 1 4 29
M  V30 29 2 29 30
M  V30 30 1 30 2
M  V30 31 1 28 5
M  V30 32 1 26 10
M  V30 33 1 26 13
M  V30 34 1 24 19
M  V30 35 1 1 31
M  V30 36 1 1 32
M  V30 37 1 1 33
M  V30 38 1 3 34
M  V30 39 1 6 35
M  V30 40 1 7 36
M  V30 41 1 9 37
M  V30 42 1 9 38
M  V30 43 1 12 39
M  V30 44 1 14 40
M  V30 45 1 15 41
M  V30 46 1 20 42
M  V30 47 1 20 43
M  V30 48 1 21 44
M  V30 49 1 21 45
M  V30 50 1 22 46 CFG=1
M  V30 51 1 23 47
M  V30 52 1 24 48
M  V30 53 1 24 49
M  V30 54 1 25 50
M  V30 55 1 27 51
M  V30 56 1 28 52
M  V30 57 1 29 53
M  V30 END BOND
M  V30 END CTAB
M  END
>  <Dataset>  (458) 
ChEMBL_Kinases

>  <Ligand_Instance>  (458) 
nan

>  <PDB_ID>  (458) 
nan

>  <Standardized_SMILES>  (458) 
Cn1cc(-c2ccc(Cc3n[nH]c4ccc(C(=O)N5CC[C@H](O)C5)cc34)cc2)cn1

>  <Name>  (458) 
nan

>  <Pocket>  (458) 
nan

>  <ATP_Site>  (458) 
nan

>  <Peripheral>  (458) 
nan

>  <Num_H_Atoms_ProtBoundConf>  (458) 
nan

>  <Num_Resolved_Atoms>  (458) 
nan

>  <Num_Not_Resolved_Atoms>  (458) 
nan

$$$$
CHEMBL3775317
     RDKit          3D

  0  0  0  0  0  0  0  0  0  0999 V3000
M  V30 BEGIN CTAB
M  V30 COUNTS 53 57 0 0 0
M  V30 BEGIN ATOM
M  V30 1 C -0.256282 -0.837611 8.993044 0
M  V30 2 N 0.160211 -1.410254 7.723457 0
M  V30 3 C 0.650673 -0.604145 6.743183 0
M  V30 4 C 0.949238 -1.461057 5.679835 0
M  V30 5 C 1.513295 -1.020756 4.386772 0
M  V30 6 C 2.367567 0.046808 4.223177 0
M  V30 7 C 2.812953 0.336009 2.943153 0
M  V30 8 C 2.458052 -0.374624 1.818232 0
M  V30 9 C 2.997486 0.027171 0.506704 0
M  V30 10 C 2.188665 1.064557 -0.177656 0
M  V30 11 N 2.563153 2.369252 -0.229986 0
M  V30 12 N 1.660435 3.067189 -0.895325 0
M  V30 13 C 0.648537 2.292248 -1.320382 0
M  V30 14 C -0.512510 2.498149 -2.032628 0
M  V30 15 C -1.286002 1.389953 -2.250212 0
M  V30 16 C -1.006919 0.097488 -1.822602 0
M  V30 17 C -1.932442 -0.955053 -2.136579 0
M  V30 18 O -2.135990 -1.572364 -1.037419 0
M  V30 19 N -2.536427 -1.299771 -3.379363 0
M  V30 20 C -2.494652 -0.792776 -4.760324 0
M  V30 21 C -2.314823 -2.092559 -5.519053 0
M  V30 22 C -2.810303 -3.201519 -4.604512 0 CFG=1
M  V30 23 O -1.748356 -3.906734 -4.036677 0
M  V30 24 C -3.461157 -2.418385 -3.475315 0
M  V30 25 C 0.176384 -0.044004 -1.111204 0
M  V30 26 C 0.998105 1.033140 -0.858990 0
M  V30 27 C 1.605625 -1.422759 2.058746 0
M  V30 28 C 1.120079 -1.773942 3.292011 0
M  V30 29 C 0.636522 -2.738438 6.040890 0
M  V30 30 N 0.153482 -2.678708 7.302321 0
M  V30 31 H -1.265933 -0.387606 8.875138 0
M  V30 32 H 0.446561 -0.036017 9.288525 0
M  V30 33 H -0.236841 -1.587578 9.817304 0
M  V30 34 H 0.791534 0.470361 6.753912 0
M  V30 35 H 2.636299 0.592900 5.107284 0
M  V30 36 H 3.485515 1.196403 2.902313 0
M  V30 37 H 4.030726 0.354929 0.653501 0
M  V30 38 H 3.022195 -0.846052 -0.193486 0
M  V30 39 H 1.717525 4.096467 -1.074711 0
M  V30 40 H -0.773026 3.475960 -2.384941 0
M  V30 41 H -2.216681 1.542667 -2.818631 0
M  V30 42 H -1.648991 -0.101970 -4.929782 0
M  V30 43 H -3.485034 -0.356430 -4.969997 0
M  V30 44 H -1.217557 -2.202100 -5.656324 0
M  V30 45 H -2.867345 -2.087775 -6.480691 0
M  V30 46 H -3.535141 -3.862592 -5.118322 0
M  V30 47 H -1.383382 -4.593535 -4.678037 0
M  V30 48 H -3.547746 -3.010727 -2.556681 0
M  V30 49 H -4.447946 -1.996019 -3.803034 0
M  V30 50 H 0.427554 -1.013825 -0.768205 0
M  V30 51 H 1.289541 -2.022740 1.214223 0
M  V30 52 H 0.445582 -2.623806 3.395480 0
M  V30 53 H 0.754058 -3.631403 5.429466 0
M  V30 END ATOM
M  V30 BEGIN BOND
M  V30 1 1 1 2
M  V30 2 1 2 3
M  V30 3 2 3 4
M  V30 4 1 4 5
M  V30 5 2 5 6
M  V30 6 1 6 7
M  V30 7 2 7 8
M  V30 8 1 8 9
M  V30 9 1 9 10
M  V30 10 2 10 11
M  V30 11 1 11 12
M  V30 12 1 12 13
M  V30 13 2 13 14
M  V30 14 1 14 15
M  V30 15 2 15 16
M  V30 16 1 16 17
M  V30 17 2 17 18
M  V30 18 1 17 19
M  V30 19 1 19 20
M  V30 20 1 20 21
M  V30 21 1 21 22
M  V30 22 1 22 23
M  V30 23 1 22 24
M  V30 24 1 16 25
M  V30 25 2 25 26
M  V30 26 1 8 27
M  V30 27 2 27 28
M  V30 28 1 4 29
M  V30 29 2 29 30
M  V30 30 1 30 2
M  V30 31 1 28 5
M  V30 32 1 26 10
M  V30 33 1 26 13
M  V30 34 1 24 19
M  V30 35 1 1 31
M  V30 36 1 1 32
M  V30 37 1 1 33
M  V30 38 1 3 34
M  V30 39 1 6 35
M  V30 40 1 7 36
M  V30 41 1 9 37
M  V30 42 1 9 38
M  V30 43 1 12 39
M  V30 44 1 14 40
M  V30 45 1 15 41
M  V30 46 1 20 42
M  V30 47 1 20 43
M  V30 48 1 21 44
M  V30 49 1 21 45
M  V30 50 1 22 46 CFG=3
M  V30 51 1 23 47
M  V30 52 1 24 48
M  V30 53 1 24 49
M  V30 54 1 25 50
M  V30 55 1 27 51
M  V30 56 1 28 52
M  V30 57 1 29 53
M  V30 END BOND
M  V30 END CTAB
M  END
>  <Dataset>  (459) 
ChEMBL_Kinases

>  <Ligand_Instance>  (459) 
nan

>  <PDB_ID>  (459) 
nan

>  <Standardized_SMILES>  (459) 
Cn1cc(-c2ccc(Cc3n[nH]c4ccc(C(=O)N5CC[C@@H](O)C5)cc34)cc2)cn1

>  <Name>  (459) 
nan

>  <Pocket>  (459) 
nan

>  <ATP_Site>  (459) 
nan

>  <Peripheral>  (459) 
nan

>  <Num_H_Atoms_ProtBoundConf>  (459) 
nan

>  <Num_Resolved_Atoms>  (459) 
nan

>  <Num_Not_Resolved_Atoms>  (459) 
nan

$$$$
CHEMBL3775223
     RDKit          3D

  0  0  0  0  0  0  0  0  0  0999 V3000
M  V30 BEGIN CTAB
M  V30 COUNTS 66 70 0 0 0
M  V30 BEGIN ATOM
M  V30 1 C 5.609885 -3.243634 -0.048110 0
M  V30 2 C 4.904762 -2.484728 1.029778 0
M  V30 3 C 3.734722 -3.297959 1.546081 0
M  V30 4 C 4.389116 -1.163076 0.586883 0
M  V30 5 N 5.039974 0.027049 0.629876 0
M  V30 6 N 4.261918 0.993316 0.147125 0
M  V30 7 C 3.113867 0.396027 -0.199936 0
M  V30 8 C 1.967777 0.973197 -0.758186 0
M  V30 9 N 1.803907 2.349811 -1.073026 0
M  V30 10 C 0.685085 3.033558 -1.638947 0
M  V30 11 C -0.560553 2.965291 -0.847274 0
M  V30 12 C -0.688515 3.980063 0.111544 0
M  V30 13 C -1.775505 4.105253 0.954684 0
M  V30 14 C -2.805470 3.192671 0.867112 0
M  V30 15 C -4.004791 3.211961 1.696204 0
M  V30 16 C -4.233164 4.162075 2.669360 0
M  V30 17 C -5.354542 4.210674 3.471419 0
M  V30 18 C -6.325581 3.249250 3.301723 0
M  V30 19 C -6.090334 2.301653 2.326096 0
M  V30 20 N -4.979420 2.294137 1.566467 0
M  V30 21 C -2.691626 2.188512 -0.073169 0
M  V30 22 C -1.605115 2.065500 -0.914136 0
M  V30 23 N 0.962634 0.135312 -1.005167 0
M  V30 24 C 0.935717 -1.180323 -0.778334 0
M  V30 25 N -0.199708 -2.004862 -1.080360 0
M  V30 26 C -0.194024 -3.423549 -0.819840 0 CFG=2
M  V30 27 C -1.559901 -3.949798 -1.279603 0
M  V30 28 C -1.924525 -5.235578 -0.597405 0
M  V30 29 C -2.095206 -4.954136 0.879251 0
M  V30 30 C -1.321464 -3.737869 1.314853 0
M  V30 31 C 0.047540 -3.780930 0.624768 0 CFG=1
M  V30 32 N 0.468287 -5.169139 0.669901 0
M  V30 33 N 2.051739 -1.698385 -0.242587 0
M  V30 34 C 3.133752 -0.957535 0.052349 0
M  V30 35 H 6.246943 -2.585161 -0.675409 0
M  V30 36 H 4.920434 -3.875264 -0.655320 0
M  V30 37 H 6.302276 -3.971520 0.443742 0
M  V30 38 H 5.618456 -2.340598 1.860549 0
M  V30 39 H 2.997867 -2.572842 1.964232 0
M  V30 40 H 3.315417 -3.942338 0.764649 0
M  V30 41 H 4.059778 -3.935667 2.406190 0
M  V30 42 H 4.512705 2.009701 0.063011 0
M  V30 43 H 2.678987 2.905030 -0.828109 0
M  V30 44 H 0.950115 4.078926 -1.830802 0
M  V30 45 H 0.537456 2.579919 -2.666727 0
M  V30 46 H 0.079646 4.749716 0.253457 0
M  V30 47 H -1.847153 4.891127 1.678459 0
M  V30 48 H -3.511212 4.938781 2.848910 0
M  V30 49 H -5.522614 4.956696 4.228050 0
M  V30 50 H -7.252009 3.161192 3.853981 0
M  V30 51 H -6.796485 1.498310 2.112627 0
M  V30 52 H -3.423703 1.402194 -0.253732 0
M  V30 53 H -1.467828 1.304614 -1.666447 0
M  V30 54 H -1.030332 -1.492135 -1.504428 0
M  V30 55 H 0.556296 -3.942781 -1.450698 0
M  V30 56 H -1.500966 -4.077555 -2.363095 0
M  V30 57 H -2.313506 -3.179427 -1.001362 0
M  V30 58 H -2.888328 -5.552630 -1.012949 0
M  V30 59 H -1.194204 -6.019277 -0.825928 0
M  V30 60 H -3.176001 -4.757273 1.109537 0
M  V30 61 H -1.696621 -5.816113 1.441261 0
M  V30 62 H -1.207753 -3.796305 2.418861 0
M  V30 63 H -1.803547 -2.783493 1.053112 0
M  V30 64 H 0.758206 -3.135761 1.137391 0
M  V30 65 H 0.536749 -5.507544 1.665698 0
M  V30 66 H 1.416473 -5.320631 0.259134 0
M  V30 END ATOM
M  V30 BEGIN BOND
M  V30 1 1 1 2
M  V30 2 1 2 3
M  V30 3 1 2 4
M  V30 4 2 4 5
M  V30 5 1 5 6
M  V30 6 1 6 7
M  V30 7 2 7 8
M  V30 8 1 8 9
M  V30 9 1 9 10
M  V30 10 1 10 11
M  V30 11 2 11 12
M  V30 12 1 12 13
M  V30 13 2 13 14
M  V30 14 1 14 15
M  V30 15 2 15 16
M  V30 16 1 16 17
M  V30 17 2 17 18
M  V30 18 1 18 19
M  V30 19 2 19 20
M  V30 20 1 14 21
M  V30 21 2 21 22
M  V30 22 1 8 23
M  V30 23 2 23 24
M  V30 24 1 24 25
M  V30 25 1 25 26
M  V30 26 1 26 27
M  V30 27 1 27 28
M  V30 28 1 28 29
M  V30 29 1 29 30
M  V30 30 1 30 31
M  V30 31 1 31 32
M  V30 32 1 24 33
M  V30 33 2 33 34
M  V30 34 1 34 4
M  V30 35 1 34 7
M  V30 36 1 22 11
M  V30 37 1 31 26
M  V30 38 1 20 15
M  V30 39 1 1 35
M  V30 40 1 1 36
M  V30 41 1 1 37
M  V30 42 1 2 38
M  V30 43 1 3 39
M  V30 44 1 3 40
M  V30 45 1 3 41
M  V30 46 1 6 42
M  V30 47 1 9 43
M  V30 48 1 10 44
M  V30 49 1 10 45
M  V30 50 1 12 46
M  V30 51 1 13 47
M  V30 52 1 16 48
M  V30 53 1 17 49
M  V30 54 1 18 50
M  V30 55 1 19 51
M  V30 56 1 21 52
M  V30 57 1 22 53
M  V30 58 1 25 54
M  V30 59 1 26 55 CFG=3
M  V30 60 1 27 56
M  V30 61 1 27 57
M  V30 62 1 28 58
M  V30 63 1 28 59
M  V30 64 1 29 60
M  V30 65 1 29 61
M  V30 66 1 30 62
M  V30 67 1 30 63
M  V30 68 1 31 64 CFG=1
M  V30 69 1 32 65
M  V30 70 1 32 66
M  V30 END BOND
M  V30 END CTAB
M  END
>  <Dataset>  (460) 
ChEMBL_Kinases

>  <Ligand_Instance>  (460) 
nan

>  <PDB_ID>  (460) 
nan

>  <Standardized_SMILES>  (460) 
CC(C)c1n[nH]c2c(NCc3ccc(-c4ccccn4)cc3)nc(N[C@@H]3CCCC[C@H]3N)nc12

>  <Name>  (460) 
nan

>  <Pocket>  (460) 
nan

>  <ATP_Site>  (460) 
nan

>  <Peripheral>  (460) 
nan

>  <Num_H_Atoms_ProtBoundConf>  (460) 
nan

>  <Num_Resolved_Atoms>  (460) 
nan

>  <Num_Not_Resolved_Atoms>  (460) 
nan

$$$$
CHEMBL508401
     RDKit          3D

  0  0  0  0  0  0  0  0  0  0999 V3000
M  V30 BEGIN CTAB
M  V30 COUNTS 45 46 0 0 0
M  V30 BEGIN ATOM
M  V30 1 C 0.413917 -4.851412 1.599066 0
M  V30 2 C 0.271700 -3.385409 1.272727 0
M  V30 3 C -0.284079 -2.637595 2.455977 0
M  V30 4 C -0.652200 -3.245384 0.066420 0
M  V30 5 C 1.576498 -2.774549 0.916467 0
M  V30 6 O 2.797210 -3.047878 0.772261 0
M  V30 7 O 1.812150 -1.471796 0.585236 0
M  V30 8 C 3.081033 -0.940105 0.251134 0
M  V30 9 C 2.865066 0.546970 -0.022242 0
M  V30 10 C 4.166371 1.206305 -0.391292 0
M  V30 11 O 3.904108 2.571488 -0.574474 0
M  V30 12 C 2.186915 1.193892 1.176164 0
M  V30 13 C 0.755764 1.189621 0.758550 0
M  V30 14 C -0.255374 1.574816 1.514667 0
M  V30 15 C -1.655682 1.583279 1.127102 0
M  V30 16 C -2.548883 0.991847 2.027262 0
M  V30 17 C -3.918815 0.923185 1.854229 0
M  V30 18 C -4.456695 1.481590 0.701586 0
M  V30 19 Cl -6.192921 1.409780 0.449407 0
M  V30 20 C -3.590226 2.070827 -0.200235 0
M  V30 21 C -2.230114 2.117336 0.012198 0
M  V30 22 C 0.646911 0.643317 -0.611096 0
M  V30 23 O -0.441585 0.204697 -1.081852 0
M  V30 24 O 1.958532 0.764056 -1.108487 0
M  V30 25 H 0.371351 -5.007156 2.698383 0
M  V30 26 H -0.470787 -5.378760 1.184140 0
M  V30 27 H 1.326949 -5.293846 1.139686 0
M  V30 28 H -0.001353 -3.212966 3.375002 0
M  V30 29 H 0.226199 -1.658506 2.527187 0
M  V30 30 H -1.386788 -2.510043 2.389829 0
M  V30 31 H -1.207515 -2.295603 0.212646 0
M  V30 32 H -1.297036 -4.133954 -0.013146 0
M  V30 33 H -0.053021 -3.147046 -0.857660 0
M  V30 34 H 3.805425 -0.985043 1.081170 0
M  V30 35 H 3.482172 -1.475605 -0.607225 0
M  V30 36 H 4.933966 1.041389 0.385194 0
M  V30 37 H 4.468492 0.814324 -1.382247 0
M  V30 38 H 3.850175 2.809882 -1.552322 0
M  V30 39 H 2.379223 0.681830 2.118742 0
M  V30 40 H 2.526962 2.255348 1.198168 0
M  V30 41 H -0.043250 1.917870 2.525304 0
M  V30 42 H -2.174550 0.536138 2.947962 0
M  V30 43 H -4.543820 0.444398 2.598978 0
M  V30 44 H -4.008809 2.511974 -1.110478 0
M  V30 45 H -1.564752 2.593493 -0.689946 0
M  V30 END ATOM
M  V30 BEGIN BOND
M  V30 1 1 1 2
M  V30 2 1 2 3
M  V30 3 1 2 4
M  V30 4 1 2 5
M  V30 5 2 5 6
M  V30 6 1 5 7
M  V30 7 1 7 8
M  V30 8 1 8 9
M  V30 9 1 9 10
M  V30 10 1 10 11
M  V30 11 1 9 12
M  V30 12 1 12 13
M  V30 13 2 13 14
M  V30 14 1 14 15
M  V30 15 2 15 16
M  V30 16 1 16 17
M  V30 17 2 17 18
M  V30 18 1 18 19
M  V30 19 1 18 20
M  V30 20 2 20 21
M  V30 21 1 13 22
M  V30 22 2 22 23
M  V30 23 1 22 24
M  V30 24 1 24 9
M  V30 25 1 21 15
M  V30 26 1 1 25
M  V30 27 1 1 26
M  V30 28 1 1 27
M  V30 29 1 3 28
M  V30 30 1 3 29
M  V30 31 1 3 30
M  V30 32 1 4 31
M  V30 33 1 4 32
M  V30 34 1 4 33
M  V30 35 1 8 34
M  V30 36 1 8 35
M  V30 37 1 10 36
M  V30 38 1 10 37
M  V30 39 1 11 38
M  V30 40 1 12 39
M  V30 41 1 12 40
M  V30 42 1 14 41
M  V30 43 1 16 42
M  V30 44 1 17 43
M  V30 45 1 20 44
M  V30 46 1 21 45
M  V30 END BOND
M  V30 END CTAB
M  END
>  <Dataset>  (461) 
ChEMBL_Kinases

>  <Ligand_Instance>  (461) 
nan

>  <PDB_ID>  (461) 
nan

>  <Standardized_SMILES>  (461) 
CC(C)(C)C(=O)OCC1(CO)C/C(=C/c2ccc(Cl)cc2)C(=O)O1

>  <Name>  (461) 
nan

>  <Pocket>  (461) 
nan

>  <ATP_Site>  (461) 
nan

>  <Peripheral>  (461) 
nan

>  <Num_H_Atoms_ProtBoundConf>  (461) 
nan

>  <Num_Resolved_Atoms>  (461) 
nan

>  <Num_Not_Resolved_Atoms>  (461) 
nan

$$$$
CHEMBL3775134
     RDKit          3D

  0  0  0  0  0  0  0  0  0  0999 V3000
M  V30 BEGIN CTAB
M  V30 COUNTS 49 53 0 0 0
M  V30 BEGIN ATOM
M  V30 1 C -0.161970 -7.820991 4.597451 0
M  V30 2 N -0.192836 -6.603992 3.803413 0
M  V30 3 C 0.849986 -5.782250 3.588024 0
M  V30 4 C 0.468029 -4.737557 2.798398 0
M  V30 5 C 1.172591 -3.576195 2.266386 0
M  V30 6 C 0.775469 -3.073474 1.048016 0
M  V30 7 C 1.359310 -1.976227 0.440376 0
M  V30 8 C 2.409541 -1.319607 1.067244 0
M  V30 9 C 3.105503 -0.133508 0.515764 0
M  V30 10 C 2.566844 1.151262 0.968381 0
M  V30 11 N 3.156083 1.917661 1.908371 0
M  V30 12 N 2.431941 3.011580 2.106935 0
M  V30 13 C 1.346364 3.011547 1.314017 0
M  V30 14 C 0.313595 3.902070 1.152637 0
M  V30 15 C -0.700357 3.654488 0.247297 0
M  V30 16 C -0.580056 2.473197 -0.451216 0
M  V30 17 C -1.585167 2.096983 -1.427567 0
M  V30 18 O -2.081022 0.926380 -1.561523 0
M  V30 19 N -2.419502 2.512791 -2.493513 0
M  V30 20 C -3.326245 1.619105 -3.179682 0
M  V30 21 C -4.250133 2.844893 -3.295698 0
M  V30 22 F -5.009260 2.867042 -4.419369 0
M  V30 23 F -4.895166 3.016630 -2.094134 0
M  V30 24 C -2.896170 3.552679 -3.387379 0
M  V30 25 C 0.444642 1.561347 -0.309375 0
M  V30 26 C 1.433324 1.839507 0.597710 0
M  V30 27 C 2.799771 -1.826183 2.280492 0
M  V30 28 C 2.214926 -2.925850 2.890116 0
M  V30 29 C -0.881539 -4.998509 2.557010 0
M  V30 30 N -1.257516 -6.121786 3.168710 0
M  V30 31 H 0.443517 -8.606581 4.082519 0
M  V30 32 H -1.190911 -8.221154 4.700462 0
M  V30 33 H 0.328870 -7.649248 5.556145 0
M  V30 34 H 1.881619 -5.852329 3.945105 0
M  V30 35 H -0.037728 -3.548698 0.517767 0
M  V30 36 H 1.012356 -1.629874 -0.512691 0
M  V30 37 H 3.067489 -0.170969 -0.609776 0
M  V30 38 H 4.182600 -0.238386 0.774367 0
M  V30 39 H 2.637611 3.805553 2.782264 0
M  V30 40 H 0.238320 4.837186 1.720914 0
M  V30 41 H -1.548996 4.308983 0.064990 0
M  V30 42 H -2.989914 1.364152 -4.217367 0
M  V30 43 H -3.761651 0.789723 -2.626169 0
M  V30 44 H -2.487171 3.452394 -4.399427 0
M  V30 45 H -2.910315 4.583568 -2.981109 0
M  V30 46 H 0.500305 0.653174 -0.875302 0
M  V30 47 H 3.614753 -1.367887 2.831312 0
M  V30 48 H 2.525389 -3.322769 3.847213 0
M  V30 49 H -1.524228 -4.357323 1.947089 0
M  V30 END ATOM
M  V30 BEGIN BOND
M  V30 1 1 1 2
M  V30 2 1 2 3
M  V30 3 2 3 4
M  V30 4 1 4 5
M  V30 5 2 5 6
M  V30 6 1 6 7
M  V30 7 2 7 8
M  V30 8 1 8 9
M  V30 9 1 9 10
M  V30 10 2 10 11
M  V30 11 1 11 12
M  V30 12 1 12 13
M  V30 13 2 13 14
M  V30 14 1 14 15
M  V30 15 2 15 16
M  V30 16 1 16 17
M  V30 17 2 17 18
M  V30 18 1 17 19
M  V30 19 1 19 20
M  V30 20 1 20 21
M  V30 21 1 21 22
M  V30 22 1 21 23
M  V30 23 1 21 24
M  V30 24 1 16 25
M  V30 25 2 25 26
M  V30 26 1 8 27
M  V30 27 2 27 28
M  V30 28 1 4 29
M  V30 29 2 29 30
M  V30 30 1 30 2
M  V30 31 1 28 5
M  V30 32 1 26 10
M  V30 33 1 26 13
M  V30 34 1 24 19
M  V30 35 1 1 31
M  V30 36 1 1 32
M  V30 37 1 1 33
M  V30 38 1 3 34
M  V30 39 1 6 35
M  V30 40 1 7 36
M  V30 41 1 9 37
M  V30 42 1 9 38
M  V30 43 1 12 39
M  V30 44 1 14 40
M  V30 45 1 15 41
M  V30 46 1 20 42
M  V30 47 1 20 43
M  V30 48 1 24 44
M  V30 49 1 24 45
M  V30 50 1 25 46
M  V30 51 1 27 47
M  V30 52 1 28 48
M  V30 53 1 29 49
M  V30 END BOND
M  V30 END CTAB
M  END
>  <Dataset>  (462) 
ChEMBL_Kinases

>  <Ligand_Instance>  (462) 
nan

>  <PDB_ID>  (462) 
nan

>  <Standardized_SMILES>  (462) 
Cn1cc(-c2ccc(Cc3n[nH]c4ccc(C(=O)N5CC(F)(F)C5)cc34)cc2)cn1

>  <Name>  (462) 
nan

>  <Pocket>  (462) 
nan

>  <ATP_Site>  (462) 
nan

>  <Peripheral>  (462) 
nan

>  <Num_H_Atoms_ProtBoundConf>  (462) 
nan

>  <Num_Resolved_Atoms>  (462) 
nan

>  <Num_Not_Resolved_Atoms>  (462) 
nan

$$$$
CHEMBL3775123
     RDKit          3D

  0  0  0  0  0  0  0  0  0  0999 V3000
M  V30 BEGIN CTAB
M  V30 COUNTS 46 50 0 0 0
M  V30 BEGIN ATOM
M  V30 1 C -1.020413 -5.194418 2.149637 0
M  V30 2 N -0.224540 -4.717606 1.029689 0
M  V30 3 N 0.831799 -5.333863 0.535957 0
M  V30 4 C 1.333980 -4.631682 -0.496922 0
M  V30 5 C 0.518004 -3.534543 -0.614363 0
M  V30 6 C 0.561134 -2.468107 -1.511568 0
M  V30 7 C -0.358295 -1.449061 -1.467095 0
M  V30 8 C -0.413325 -0.281632 -2.390933 0
M  V30 9 C 0.777514 0.613781 -2.157537 0
M  V30 10 N 1.780280 0.727491 -3.050150 0
M  V30 11 N 2.699947 1.592043 -2.632110 0
M  V30 12 C 2.297962 2.068079 -1.424603 0
M  V30 13 C 2.835692 2.977233 -0.502028 0
M  V30 14 C 2.118046 3.198054 0.651267 0
M  V30 15 C 0.924707 2.594834 0.952456 0
M  V30 16 C 0.087813 2.756815 2.134465 0
M  V30 17 O -0.308516 3.861960 2.583499 0
M  V30 18 N -0.351832 1.608767 2.880765 0
M  V30 19 C -1.180387 1.505516 4.067114 0
M  V30 20 C -0.359067 0.296935 4.459728 0
M  V30 21 O -1.025940 -0.714066 5.101713 0
M  V30 22 C -0.272594 0.139988 2.936237 0
M  V30 23 C 0.362957 1.681663 0.046994 0
M  V30 24 C 1.104229 1.465527 -1.123051 0
M  V30 25 C -1.332092 -1.562159 -0.461416 0
M  V30 26 C -1.428150 -2.599098 0.460037 0
M  V30 27 C -0.474798 -3.573562 0.347154 0
M  V30 28 H -0.391470 -5.057420 3.044418 0
M  V30 29 H -1.938087 -4.591418 2.289957 0
M  V30 30 H -1.300418 -6.260395 2.060405 0
M  V30 31 H 2.198263 -4.875814 -1.104678 0
M  V30 32 H 1.315142 -2.372748 -2.292410 0
M  V30 33 H -0.490579 -0.560712 -3.454821 0
M  V30 34 H -1.296205 0.336168 -2.076544 0
M  V30 35 H 3.578404 1.870507 -3.130074 0
M  V30 36 H 3.769037 3.467751 -0.712051 0
M  V30 37 H 2.469362 3.882186 1.409180 0
M  V30 38 H -2.217230 1.156780 3.840152 0
M  V30 39 H -1.151111 2.371256 4.734354 0
M  V30 40 H 0.610518 0.618343 4.906177 0
M  V30 41 H -0.389227 -1.191552 5.703468 0
M  V30 42 H -1.190314 -0.341698 2.562996 0
M  V30 43 H 0.691608 -0.276647 2.583029 0
M  V30 44 H -0.567177 1.158305 0.195979 0
M  V30 45 H -2.096175 -0.790441 -0.368413 0
M  V30 46 H -2.200161 -2.617809 1.191841 0
M  V30 END ATOM
M  V30 BEGIN BOND
M  V30 1 1 1 2
M  V30 2 1 2 3
M  V30 3 2 3 4
M  V30 4 1 4 5
M  V30 5 2 5 6
M  V30 6 1 6 7
M  V30 7 1 7 8
M  V30 8 1 8 9
M  V30 9 2 9 10
M  V30 10 1 10 11
M  V30 11 1 11 12
M  V30 12 2 12 13
M  V30 13 1 13 14
M  V30 14 2 14 15
M  V30 15 1 15 16
M  V30 16 2 16 17
M  V30 17 1 16 18
M  V30 18 1 18 19
M  V30 19 1 19 20
M  V30 20 1 20 21
M  V30 21 1 20 22
M  V30 22 1 15 23
M  V30 23 2 23 24
M  V30 24 2 7 25
M  V30 25 1 25 26
M  V30 26 2 26 27
M  V30 27 1 27 2
M  V30 28 1 27 5
M  V30 29 1 24 9
M  V30 30 1 24 12
M  V30 31 1 22 18
M  V30 32 1 1 28
M  V30 33 1 1 29
M  V30 34 1 1 30
M  V30 35 1 4 31
M  V30 36 1 6 32
M  V30 37 1 8 33
M  V30 38 1 8 34
M  V30 39 1 11 35
M  V30 40 1 13 36
M  V30 41 1 14 37
M  V30 42 1 19 38
M  V30 43 1 19 39
M  V30 44 1 20 40
M  V30 45 1 21 41
M  V30 46 1 22 42
M  V30 47 1 22 43
M  V30 48 1 23 44
M  V30 49 1 25 45
M  V30 50 1 26 46
M  V30 END BOND
M  V30 END CTAB
M  END
>  <Dataset>  (463) 
ChEMBL_Kinases

>  <Ligand_Instance>  (463) 
nan

>  <PDB_ID>  (463) 
nan

>  <Standardized_SMILES>  (463) 
Cn1ncc2cc(Cc3n[nH]c4ccc(C(=O)N5CC(O)C5)cc34)ccc21

>  <Name>  (463) 
nan

>  <Pocket>  (463) 
nan

>  <ATP_Site>  (463) 
nan

>  <Peripheral>  (463) 
nan

>  <Num_H_Atoms_ProtBoundConf>  (463) 
nan

>  <Num_Resolved_Atoms>  (463) 
nan

>  <Num_Not_Resolved_Atoms>  (463) 
nan

$$$$
CHEMBL3775470
     RDKit          3D

  0  0  0  0  0  0  0  0  0  0999 V3000
M  V30 BEGIN CTAB
M  V30 COUNTS 56 59 0 0 0
M  V30 BEGIN ATOM
M  V30 1 C 3.309357 -4.449325 2.661090 0
M  V30 2 C 3.821701 -4.193253 1.258955 0
M  V30 3 C 3.162090 -5.143768 0.291137 0
M  V30 4 C 3.568545 -2.789507 0.873662 0
M  V30 5 N 4.458068 -1.790325 1.087656 0
M  V30 6 N 3.928565 -0.644788 0.626993 0
M  V30 7 C 2.699427 -0.957207 0.126697 0
M  V30 8 C 1.763128 -0.141030 -0.454730 0
M  V30 9 N 1.953130 1.254296 -0.634501 0
M  V30 10 C 1.067212 2.239747 -1.225005 0
M  V30 11 C -0.230026 2.354948 -0.511102 0
M  V30 12 C -1.412260 1.695095 -0.750948 0
M  V30 13 C -2.528447 1.924439 0.024985 0
M  V30 14 C -2.520824 2.831700 1.088065 0
M  V30 15 C -3.750091 3.006502 1.850370 0
M  V30 16 C -3.842340 3.866846 2.904021 0
M  V30 17 C -5.024367 4.029285 3.630079 0
M  V30 18 C -6.065925 3.236908 3.169545 0
M  V30 19 C -6.002663 2.371347 2.122850 0
M  V30 20 N -4.824437 2.276208 1.477740 0
M  V30 21 C -1.344811 3.477828 1.314227 0
M  V30 22 C -0.205887 3.266342 0.549255 0
M  V30 23 N 0.646012 -0.732800 -0.849044 0
M  V30 24 C 0.330757 -2.031862 -0.743837 0
M  V30 25 N -0.923393 -2.506714 -1.206499 0
M  V30 26 C -1.462440 -3.828966 -1.247577 0
M  V30 27 C -0.705757 -4.693584 -2.200621 0
M  V30 28 N 0.661296 -4.807473 -1.827169 0
M  V30 29 N 1.272789 -2.805842 -0.168118 0
M  V30 30 C 2.435417 -2.296912 0.262901 0
M  V30 31 H 3.575675 -5.440277 3.028323 0
M  V30 32 H 2.193625 -4.385318 2.630785 0
M  V30 33 H 3.693503 -3.695457 3.369423 0
M  V30 34 H 4.929801 -4.393212 1.276043 0
M  V30 35 H 3.692672 -6.139752 0.317392 0
M  V30 36 H 2.116598 -5.368470 0.580175 0
M  V30 37 H 3.242556 -4.799961 -0.752229 0
M  V30 38 H 4.364993 0.312435 0.642665 0
M  V30 39 H 2.866567 1.629645 -0.290841 0
M  V30 40 H 1.554641 3.199739 -1.388687 0
M  V30 41 H 0.855851 1.845854 -2.266771 0
M  V30 42 H -1.385231 1.017602 -1.565836 0
M  V30 43 H -3.418355 1.353567 -0.242298 0
M  V30 44 H -2.994501 4.465398 3.224226 0
M  V30 45 H -5.138106 4.705402 4.476568 0
M  V30 46 H -7.021812 3.303561 3.680457 0
M  V30 47 H -6.844306 1.772315 1.798917 0
M  V30 48 H -1.301936 4.182988 2.123785 0
M  V30 49 H 0.686205 3.843405 0.822645 0
M  V30 50 H -1.579565 -1.759521 -1.589774 0
M  V30 51 H -2.531069 -3.837703 -1.519374 0
M  V30 52 H -1.410072 -4.313363 -0.242071 0
M  V30 53 H -1.162506 -5.707473 -2.225117 0
M  V30 54 H -0.766395 -4.212501 -3.206939 0
M  V30 55 H 1.310791 -4.646854 -2.638413 0
M  V30 56 H 0.860055 -5.756048 -1.421284 0
M  V30 END ATOM
M  V30 BEGIN BOND
M  V30 1 1 1 2
M  V30 2 1 2 3
M  V30 3 1 2 4
M  V30 4 2 4 5
M  V30 5 1 5 6
M  V30 6 1 6 7
M  V30 7 2 7 8
M  V30 8 1 8 9
M  V30 9 1 9 10
M  V30 10 1 10 11
M  V30 11 2 11 12
M  V30 12 1 12 13
M  V30 13 2 13 14
M  V30 14 1 14 15
M  V30 15 2 15 16
M  V30 16 1 16 17
M  V30 17 2 17 18
M  V30 18 1 18 19
M  V30 19 2 19 20
M  V30 20 1 14 21
M  V30 21 2 21 22
M  V30 22 1 8 23
M  V30 23 2 23 24
M  V30 24 1 24 25
M  V30 25 1 25 26
M  V30 26 1 26 27
M  V30 27 1 27 28
M  V30 28 1 24 29
M  V30 29 2 29 30
M  V30 30 1 30 4
M  V30 31 1 30 7
M  V30 32 1 22 11
M  V30 33 1 20 15
M  V30 34 1 1 31
M  V30 35 1 1 32
M  V30 36 1 1 33
M  V30 37 1 2 34
M  V30 38 1 3 35
M  V30 39 1 3 36
M  V30 40 1 3 37
M  V30 41 1 6 38
M  V30 42 1 9 39
M  V30 43 1 10 40
M  V30 44 1 10 41
M  V30 45 1 12 42
M  V30 46 1 13 43
M  V30 47 1 16 44
M  V30 48 1 17 45
M  V30 49 1 18 46
M  V30 50 1 19 47
M  V30 51 1 21 48
M  V30 52 1 22 49
M  V30 53 1 25 50
M  V30 54 1 26 51
M  V30 55 1 26 52
M  V30 56 1 27 53
M  V30 57 1 27 54
M  V30 58 1 28 55
M  V30 59 1 28 56
M  V30 END BOND
M  V30 END CTAB
M  END
>  <Dataset>  (464) 
ChEMBL_Kinases

>  <Ligand_Instance>  (464) 
nan

>  <PDB_ID>  (464) 
nan

>  <Standardized_SMILES>  (464) 
CC(C)c1n[nH]c2c(NCc3ccc(-c4ccccn4)cc3)nc(NCCN)nc12

>  <Name>  (464) 
nan

>  <Pocket>  (464) 
nan

>  <ATP_Site>  (464) 
nan

>  <Peripheral>  (464) 
nan

>  <Num_H_Atoms_ProtBoundConf>  (464) 
nan

>  <Num_Resolved_Atoms>  (464) 
nan

>  <Num_Not_Resolved_Atoms>  (464) 
nan

$$$$
CHEMBL5072876
     RDKit          3D

  0  0  0  0  0  0  0  0  0  0999 V3000
M  V30 BEGIN CTAB
M  V30 COUNTS 60 64 0 0 0
M  V30 BEGIN ATOM
M  V30 1 C -0.477966 -3.530240 4.658959 0
M  V30 2 C -0.225685 -2.121598 4.261331 0
M  V30 3 C 0.217336 -1.153019 5.153303 0
M  V30 4 C 0.447499 0.152631 4.768688 0
M  V30 5 C 0.232441 0.523887 3.446467 0
M  V30 6 N 0.440197 1.854015 2.939125 0
M  V30 7 C 1.700636 2.287681 2.401011 0
M  V30 8 O 2.666340 1.499152 2.361530 0
M  V30 9 C 1.748742 3.671479 1.925688 0
M  V30 10 C 2.943252 4.156087 1.391275 0
M  V30 11 N 3.006315 5.425145 0.949448 0
M  V30 12 C 1.958154 6.255153 1.000856 0
M  V30 13 C 0.767998 5.786090 1.528737 0
M  V30 14 C -0.466398 6.620469 1.636875 0
M  V30 15 F -1.508242 5.780298 1.222663 0
M  V30 16 F -0.707029 6.906039 2.956849 0
M  V30 17 F -0.357855 7.718939 0.826435 0
M  V30 18 N 0.686389 4.517025 1.976363 0
M  V30 19 C -0.206717 -0.476603 2.604924 0
M  V30 20 C -0.448859 -1.788472 2.944310 0
M  V30 21 C -0.914846 -2.707411 1.900740 0
M  V30 22 C -1.940114 -3.627684 2.001800 0
M  V30 23 C -2.257547 -4.423931 0.920507 0
M  V30 24 C -1.548223 -4.295820 -0.256020 0
M  V30 25 C -0.515274 -3.371345 -0.363698 0
M  V30 26 C -0.213535 -2.591877 0.713286 0
M  V30 27 O 0.236378 -3.191643 -1.514807 0
M  V30 28 C -0.087857 -3.373387 -2.879417 0
M  V30 29 C 1.046421 -2.844240 -3.725504 0
M  V30 30 C 1.309696 -1.423681 -3.273772 0
M  V30 31 O 0.187302 -0.628067 -3.351978 0
M  V30 32 C -0.901527 -1.263879 -3.942958 0
M  V30 33 C -1.307937 -2.534456 -3.237707 0
M  V30 34 C -0.354725 -4.820160 -3.170244 0
M  V30 35 C -1.675206 -5.228626 -2.625130 0
M  V30 36 O -2.595048 -5.628737 -3.408510 0
M  V30 37 N -2.053519 -5.223268 -1.237347 0
M  V30 38 H -0.281561 -4.235279 3.838236 0
M  V30 39 H 0.262394 -3.747261 5.480621 0
M  V30 40 H -1.462296 -3.631310 5.146063 0
M  V30 41 H 0.390316 -1.430156 6.194122 0
M  V30 42 H 0.793008 0.918851 5.452893 0
M  V30 43 H -0.440272 2.431653 3.022128 0
M  V30 44 H 3.780515 3.470338 1.357774 0
M  V30 45 H 1.992070 7.289487 0.646207 0
M  V30 46 H -0.375425 -0.177068 1.558934 0
M  V30 47 H -2.436328 -3.658533 2.952717 0
M  V30 48 H -3.069752 -5.141697 1.025090 0
M  V30 49 H 0.615244 -1.889680 0.540839 0
M  V30 50 H 0.709427 -2.839485 -4.785570 0
M  V30 51 H 1.970305 -3.414081 -3.618436 0
M  V30 52 H 1.574745 -1.513480 -2.180008 0
M  V30 53 H 2.214391 -0.980512 -3.763282 0
M  V30 54 H -1.771753 -0.559865 -3.818001 0
M  V30 55 H -0.782963 -1.408126 -5.036042 0
M  V30 56 H -1.958791 -3.107215 -3.923237 0
M  V30 57 H -1.896314 -2.281093 -2.332217 0
M  V30 58 H 0.440198 -5.456873 -2.760115 0
M  V30 59 H -0.398825 -4.938664 -4.291942 0
M  V30 60 H -2.742648 -5.950862 -0.945984 0
M  V30 END ATOM
M  V30 BEGIN BOND
M  V30 1 1 1 2
M  V30 2 2 2 3
M  V30 3 1 3 4
M  V30 4 2 4 5
M  V30 5 1 5 6
M  V30 6 1 6 7
M  V30 7 2 7 8
M  V30 8 1 7 9
M  V30 9 2 9 10
M  V30 10 1 10 11
M  V30 11 2 11 12
M  V30 12 1 12 13
M  V30 13 1 13 14
M  V30 14 1 14 15
M  V30 15 1 14 16
M  V30 16 1 14 17
M  V30 17 2 13 18
M  V30 18 1 5 19
M  V30 19 2 19 20
M  V30 20 1 20 21
M  V30 21 2 21 22
M  V30 22 1 22 23
M  V30 23 2 23 24
M  V30 24 1 24 25
M  V30 25 2 25 26
M  V30 26 1 25 27
M  V30 27 1 27 28
M  V30 28 1 28 29
M  V30 29 1 29 30
M  V30 30 1 30 31
M  V30 31 1 31 32
M  V30 32 1 32 33
M  V30 33 1 28 34
M  V30 34 1 34 35
M  V30 35 2 35 36
M  V30 36 1 35 37
M  V30 37 1 20 2
M  V30 38 1 26 21
M  V30 39 1 33 28
M  V30 40 1 18 9
M  V30 41 1 37 24
M  V30 42 1 1 38
M  V30 43 1 1 39
M  V30 44 1 1 40
M  V30 45 1 3 41
M  V30 46 1 4 42
M  V30 47 1 6 43
M  V30 48 1 10 44
M  V30 49 1 12 45
M  V30 50 1 19 46
M  V30 51 1 22 47
M  V30 52 1 23 48
M  V30 53 1 26 49
M  V30 54 1 29 50
M  V30 55 1 29 51
M  V30 56 1 30 52
M  V30 57 1 30 53
M  V30 58 1 32 54
M  V30 59 1 32 55
M  V30 60 1 33 56
M  V30 61 1 33 57
M  V30 62 1 34 58
M  V30 63 1 34 59
M  V30 64 1 37 60
M  V30 END BOND
M  V30 END CTAB
M  END
>  <Dataset>  (465) 
ChEMBL_Kinases

>  <Ligand_Instance>  (465) 
nan

>  <PDB_ID>  (465) 
nan

>  <Standardized_SMILES>  (465) 
Cc1ccc(NC(=O)c2cncc(C(F)(F)F)n2)cc1-c1ccc2c(c1)OC1(CCOCC1)CC(=O)N2

>  <Name>  (465) 
nan

>  <Pocket>  (465) 
nan

>  <ATP_Site>  (465) 
nan

>  <Peripheral>  (465) 
nan

>  <Num_H_Atoms_ProtBoundConf>  (465) 
nan

>  <Num_Resolved_Atoms>  (465) 
nan

>  <Num_Not_Resolved_Atoms>  (465) 
nan

$$$$
CHEMBL379394
     RDKit          3D

  0  0  0  0  0  0  0  0  0  0999 V3000
M  V30 BEGIN CTAB
M  V30 COUNTS 42 45 0 0 0
M  V30 BEGIN ATOM
M  V30 1 C -0.156266 -4.741987 -0.185220 0
M  V30 2 C -0.039781 -3.225912 -0.222382 0
M  V30 3 C -1.113400 -2.692584 0.700445 0
M  V30 4 C -0.336439 -2.774477 -1.610126 0
M  V30 5 C 1.324169 -2.918593 0.263569 0
M  V30 6 N 2.248029 -3.822803 0.648592 0
M  V30 7 N 3.356938 -3.170962 1.025293 0
M  V30 8 C 3.098842 -1.857546 0.865390 0
M  V30 9 C 3.928207 -0.793107 1.119686 0
M  V30 10 C 3.422972 0.475528 0.871979 0
M  V30 11 C 2.126031 0.651253 0.385375 0
M  V30 12 C 1.645519 2.013901 0.144292 0
M  V30 13 O 2.213115 2.840827 -0.702820 0
M  V30 14 C 1.560187 3.990624 -0.703752 0
M  V30 15 N 0.525587 3.956405 0.156052 0
M  V30 16 C 0.570033 2.720331 0.693648 0
M  V30 17 C -0.245884 2.004913 1.689344 0
M  V30 18 C -1.568354 1.887967 1.260457 0
M  V30 19 C -2.510515 1.246443 2.044307 0
M  V30 20 C -2.104083 0.728971 3.256000 0
M  V30 21 F -2.957968 0.075964 4.105968 0
M  V30 22 C -0.781471 0.842496 3.691848 0
M  V30 23 C 0.148994 1.483189 2.904207 0
M  V30 24 C 1.343724 -0.460308 0.150697 0
M  V30 25 N 1.861758 -1.677228 0.400475 0
M  V30 26 H -1.121149 -5.060714 -0.577424 0
M  V30 27 H 0.656721 -5.124660 -0.863034 0
M  V30 28 H 0.061765 -5.059913 0.848319 0
M  V30 29 H -0.822793 -2.758385 1.779382 0
M  V30 30 H -1.993502 -3.374301 0.598601 0
M  V30 31 H -1.489997 -1.697849 0.402491 0
M  V30 32 H -0.963388 -3.552924 -2.130029 0
M  V30 33 H 0.577626 -2.673273 -2.231741 0
M  V30 34 H -0.985639 -1.852422 -1.651771 0
M  V30 35 H 4.954471 -0.820447 1.499000 0
M  V30 36 H 4.045113 1.357408 1.058872 0
M  V30 37 H 1.791207 4.871166 -1.300900 0
M  V30 38 H -1.972466 2.264237 0.325510 0
M  V30 39 H -3.546999 1.120126 1.774360 0
M  V30 40 H -0.427215 0.442950 4.647371 0
M  V30 41 H 1.186211 1.635775 3.121509 0
M  V30 42 H 0.354982 -0.292623 -0.222128 0
M  V30 END ATOM
M  V30 BEGIN BOND
M  V30 1 1 1 2
M  V30 2 1 2 3
M  V30 3 1 2 4
M  V30 4 1 2 5
M  V30 5 2 5 6
M  V30 6 1 6 7
M  V30 7 2 7 8
M  V30 8 1 8 9
M  V30 9 2 9 10
M  V30 10 1 10 11
M  V30 11 1 11 12
M  V30 12 1 12 13
M  V30 13 1 13 14
M  V30 14 2 14 15
M  V30 15 1 15 16
M  V30 16 1 16 17
M  V30 17 2 17 18
M  V30 18 1 18 19
M  V30 19 2 19 20
M  V30 20 1 20 21
M  V30 21 1 20 22
M  V30 22 2 22 23
M  V30 23 2 11 24
M  V30 24 1 24 25
M  V30 25 1 25 5
M  V30 26 1 25 8
M  V30 27 2 16 12
M  V30 28 1 23 17
M  V30 29 1 1 26
M  V30 30 1 1 27
M  V30 31 1 1 28
M  V30 32 1 3 29
M  V30 33 1 3 30
M  V30 34 1 3 31
M  V30 35 1 4 32
M  V30 36 1 4 33
M  V30 37 1 4 34
M  V30 38 1 9 35
M  V30 39 1 10 36
M  V30 40 1 14 37
M  V30 41 1 18 38
M  V30 42 1 19 39
M  V30 43 1 22 40
M  V30 44 1 23 41
M  V30 45 1 24 42
M  V30 END BOND
M  V30 END CTAB
M  END
>  <Dataset>  (466) 
ChEMBL_Kinases

>  <Ligand_Instance>  (466) 
nan

>  <PDB_ID>  (466) 
nan

>  <Standardized_SMILES>  (466) 
CC(C)(C)c1nnc2ccc(-c3ocnc3-c3ccc(F)cc3)cn12

>  <Name>  (466) 
nan

>  <Pocket>  (466) 
nan

>  <ATP_Site>  (466) 
nan

>  <Peripheral>  (466) 
nan

>  <Num_H_Atoms_ProtBoundConf>  (466) 
nan

>  <Num_Resolved_Atoms>  (466) 
nan

>  <Num_Not_Resolved_Atoms>  (466) 
nan

$$$$
CHEMBL5072899
     RDKit          3D

  0  0  0  0  0  0  0  0  0  0999 V3000
M  V30 BEGIN CTAB
M  V30 COUNTS 58 61 0 0 0
M  V30 BEGIN ATOM
M  V30 1 C 0.684910 -0.619943 6.901101 0
M  V30 2 O 1.141388 0.703951 6.909268 0
M  V30 3 C 2.311219 1.127800 6.309814 0
M  V30 4 O 2.800299 0.087967 5.805135 0
M  V30 5 C 3.519919 1.765569 5.732259 0 CFG=1
M  V30 6 N 4.340964 0.770439 5.039848 0
M  V30 7 C 3.135338 2.862787 4.731286 0
M  V30 8 N 2.359398 2.323057 3.648922 0
M  V30 9 C 1.923164 3.212664 2.632142 0
M  V30 10 O 2.251070 4.406054 2.759320 0
M  V30 11 C 1.129991 2.803398 1.476625 0
M  V30 12 C 0.793272 3.808555 0.580362 0
M  V30 13 C 0.039012 3.459581 -0.532152 0
M  V30 14 C -0.367226 2.149272 -0.744979 0
M  V30 15 C -0.014160 1.174120 0.167578 0
M  V30 16 C 0.736783 1.494418 1.284531 0
M  V30 17 C -0.359743 -0.265357 0.098525 0
M  V30 18 O -0.211727 -0.887927 1.189367 0
M  V30 19 C -0.843770 -1.035020 -1.065857 0
M  V30 20 C -1.169158 -2.329899 -0.713946 0
M  V30 21 C -1.636420 -3.152884 -1.722296 0
M  V30 22 C -1.769079 -2.696488 -3.017046 0
M  V30 23 N -2.243831 -3.522920 -4.067922 0
M  V30 24 C -2.565050 -4.896571 -3.897344 0
M  V30 25 C -3.803133 -5.461988 -4.111546 0
M  V30 26 C -4.032982 -6.816352 -3.924044 0
M  V30 27 C -2.995714 -7.621628 -3.511962 0
M  V30 28 F -3.281940 -8.944405 -3.344504 0
M  V30 29 C -1.732940 -7.082311 -3.286762 0
M  V30 30 C -1.510126 -5.715665 -3.478264 0
M  V30 31 F -0.226652 -5.321622 -3.224050 0
M  V30 32 C -1.424964 -1.389954 -3.297434 0
M  V30 33 C -0.952480 -0.514341 -2.340462 0
M  V30 34 C -0.643179 0.834440 -2.846506 0
M  V30 35 C -1.171871 1.952757 -1.991494 0
M  V30 36 H 1.291525 -1.340515 6.355747 0
M  V30 37 H 0.568618 -1.026784 7.944117 0
M  V30 38 H -0.340246 -0.671698 6.466930 0
M  V30 39 H 4.143747 2.207142 6.534843 0
M  V30 40 H 3.883874 0.347271 4.227381 0
M  V30 41 H 4.722853 0.082325 5.709432 0
M  V30 42 H 4.092100 3.242876 4.298277 0
M  V30 43 H 2.661001 3.700310 5.244859 0
M  V30 44 H 2.111993 1.319580 3.588313 0
M  V30 45 H 1.093764 4.844692 0.714077 0
M  V30 46 H -0.247618 4.227977 -1.265183 0
M  V30 47 H 1.004408 0.718839 1.988550 0
M  V30 48 H -1.058689 -2.672440 0.306814 0
M  V30 49 H -1.895056 -4.168024 -1.455378 0
M  V30 50 H -2.379099 -3.154622 -5.019931 0
M  V30 51 H -4.595451 -4.778762 -4.438732 0
M  V30 52 H -5.037851 -7.221089 -4.108123 0
M  V30 53 H -0.963267 -7.774283 -2.963670 0
M  V30 54 H -1.533802 -1.038428 -4.326524 0
M  V30 55 H -1.036378 0.957417 -3.876281 0
M  V30 56 H 0.453627 0.954148 -2.885847 0
M  V30 57 H -1.206536 2.847857 -2.610667 0
M  V30 58 H -2.199494 1.696806 -1.689251 0
M  V30 END ATOM
M  V30 BEGIN BOND
M  V30 1 1 1 2
M  V30 2 1 2 3
M  V30 3 2 3 4
M  V30 4 1 3 5
M  V30 5 1 5 6
M  V30 6 1 5 7
M  V30 7 1 7 8
M  V30 8 1 8 9
M  V30 9 2 9 10
M  V30 10 1 9 11
M  V30 11 2 11 12
M  V30 12 1 12 13
M  V30 13 2 13 14
M  V30 14 1 14 15
M  V30 15 2 15 16
M  V30 16 1 15 17
M  V30 17 2 17 18
M  V30 18 1 17 19
M  V30 19 2 19 20
M  V30 20 1 20 21
M  V30 21 2 21 22
M  V30 22 1 22 23
M  V30 23 1 23 24
M  V30 24 2 24 25
M  V30 25 1 25 26
M  V30 26 2 26 27
M  V30 27 1 27 28
M  V30 28 1 27 29
M  V30 29 2 29 30
M  V30 30 1 30 31
M  V30 31 1 22 32
M  V30 32 2 32 33
M  V30 33 1 33 34
M  V30 34 1 34 35
M  V30 35 1 16 11
M  V30 36 1 33 19
M  V30 37 1 35 14
M  V30 38 1 30 24
M  V30 39 1 1 36
M  V30 40 1 1 37
M  V30 41 1 1 38
M  V30 42 1 5 39 CFG=1
M  V30 43 1 6 40
M  V30 44 1 6 41
M  V30 45 1 7 42
M  V30 46 1 7 43
M  V30 47 1 8 44
M  V30 48 1 12 45
M  V30 49 1 13 46
M  V30 50 1 16 47
M  V30 51 1 20 48
M  V30 52 1 21 49
M  V30 53 1 23 50
M  V30 54 1 25 51
M  V30 55 1 26 52
M  V30 56 1 29 53
M  V30 57 1 32 54
M  V30 58 1 34 55
M  V30 59 1 34 56
M  V30 60 1 35 57
M  V30 61 1 35 58
M  V30 END BOND
M  V30 END CTAB
M  END
>  <Dataset>  (467) 
ChEMBL_Kinases

>  <Ligand_Instance>  (467) 
nan

>  <PDB_ID>  (467) 
nan

>  <Standardized_SMILES>  (467) 
COC(=O)[C@@H](N)CNC(=O)c1ccc2c(c1)C(=O)c1ccc(Nc3ccc(F)cc3F)cc1CC2

>  <Name>  (467) 
nan

>  <Pocket>  (467) 
nan

>  <ATP_Site>  (467) 
nan

>  <Peripheral>  (467) 
nan

>  <Num_H_Atoms_ProtBoundConf>  (467) 
nan

>  <Num_Resolved_Atoms>  (467) 
nan

>  <Num_Not_Resolved_Atoms>  (467) 
nan

$$$$
CHEMBL5073036
     RDKit          3D

  0  0  0  0  0  0  0  0  0  0999 V3000
M  V30 BEGIN CTAB
M  V30 COUNTS 68 72 0 0 0
M  V30 BEGIN ATOM
M  V30 1 C 4.354937 -2.116494 6.149257 0
M  V30 2 C 3.274356 -2.550695 5.196189 0
M  V30 3 N 2.780069 -1.493507 4.351884 0
M  V30 4 C 1.744232 -2.081073 3.494895 0
M  V30 5 C 1.113697 -0.925119 2.747581 0
M  V30 6 N 2.161106 -0.349811 1.926811 0
M  V30 7 C 2.088836 -0.350016 0.513807 0
M  V30 8 C 3.062703 0.165715 -0.314370 0
M  V30 9 C 2.937200 0.137032 -1.683336 0
M  V30 10 N 3.918273 0.658907 -2.571953 0
M  V30 11 C 3.717195 2.038756 -2.908567 0
M  V30 12 C 2.698338 2.862528 -2.462372 0
M  V30 13 C 2.851470 4.137515 -3.017941 0
M  V30 14 C 1.921549 5.283575 -2.748442 0
M  V30 15 N 3.964728 4.045065 -3.787456 0
M  V30 16 N 4.454486 2.825098 -3.714212 0
M  V30 17 N 1.827602 -0.413798 -2.176235 0
M  V30 18 C 0.836141 -0.937060 -1.399525 0
M  V30 19 N -0.318313 -1.509410 -2.000189 0
M  V30 20 C -1.378617 -2.062822 -1.200380 0 CFG=1
M  V30 21 C -1.959616 -0.980871 -0.312018 0
M  V30 22 C -3.130312 -1.784782 0.233661 0
M  V30 23 N -3.663899 -2.348740 -1.016287 0
M  V30 24 C -4.971435 -2.793489 -1.415444 0
M  V30 25 O -5.324736 -3.266815 -2.526883 0
M  V30 26 C -6.190769 -2.794211 -0.611631 0
M  V30 27 C -6.685024 -3.783017 0.213913 0
M  V30 28 C -7.870272 -3.558840 0.881820 0
M  V30 29 C -8.575261 -2.390682 0.756039 0
M  V30 30 Cl -10.075511 -2.158520 1.627216 0
M  V30 31 C -8.081632 -1.392149 -0.073956 0
M  V30 32 F -8.819528 -0.250968 -0.164419 0
M  V30 33 C -6.889039 -1.599980 -0.754989 0
M  V30 34 F -6.529532 -0.542663 -1.526483 0
M  V30 35 C -2.593531 -2.442489 -1.990378 0
M  V30 36 N 1.015445 -0.880126 -0.068509 0
M  V30 37 C 3.246693 0.203209 2.713001 0
M  V30 38 C 3.844681 -0.923468 3.549827 0
M  V30 39 H 3.981868 -1.193140 6.655392 0
M  V30 40 H 5.283982 -1.929505 5.575581 0
M  V30 41 H 4.509032 -2.917675 6.884943 0
M  V30 42 H 3.659391 -3.359522 4.515079 0
M  V30 43 H 2.404976 -2.995851 5.733246 0
M  V30 44 H 1.027319 -2.571629 4.154639 0
M  V30 45 H 2.214858 -2.738324 2.739896 0
M  V30 46 H 0.211080 -1.208082 2.205172 0
M  V30 47 H 0.850640 -0.155158 3.515883 0
M  V30 48 H 3.941104 0.600666 0.112830 0
M  V30 49 H 4.751117 0.192116 -3.008847 0
M  V30 50 H 1.882161 2.603983 -1.784437 0
M  V30 51 H 2.386175 6.221856 -3.087292 0
M  V30 52 H 0.916705 5.105311 -3.230333 0
M  V30 53 H 1.692544 5.381481 -1.667456 0
M  V30 54 H 4.282007 4.878331 -4.307222 0
M  V30 55 H -0.387636 -1.523091 -3.039678 0
M  V30 56 H -1.079239 -2.944844 -0.607711 0
M  V30 57 H -1.289014 -0.588049 0.442946 0
M  V30 58 H -2.370642 -0.186962 -0.985119 0
M  V30 59 H -2.703792 -2.615601 0.804759 0
M  V30 60 H -3.879798 -1.176249 0.753477 0
M  V30 61 H -6.058992 -4.664948 0.247044 0
M  V30 62 H -8.215491 -4.365187 1.516821 0
M  V30 63 H -2.772743 -1.683308 -2.807500 0
M  V30 64 H -2.506930 -3.465904 -2.428047 0
M  V30 65 H 2.764414 0.881338 3.471463 0
M  V30 66 H 4.013772 0.722026 2.141968 0
M  V30 67 H 4.601233 -0.534695 4.252424 0
M  V30 68 H 4.315968 -1.626031 2.854926 0
M  V30 END ATOM
M  V30 BEGIN BOND
M  V30 1 1 1 2
M  V30 2 1 2 3
M  V30 3 1 3 4
M  V30 4 1 4 5
M  V30 5 1 5 6
M  V30 6 1 6 7
M  V30 7 2 7 8
M  V30 8 1 8 9
M  V30 9 1 9 10
M  V30 10 1 10 11
M  V30 11 1 11 12
M  V30 12 2 12 13
M  V30 13 1 13 14
M  V30 14 1 13 15
M  V30 15 1 15 16
M  V30 16 2 9 17
M  V30 17 1 17 18
M  V30 18 1 18 19
M  V30 19 1 19 20
M  V30 20 1 20 21
M  V30 21 1 21 22
M  V30 22 1 22 23
M  V30 23 1 23 24
M  V30 24 2 24 25
M  V30 25 1 24 26
M  V30 26 2 26 27
M  V30 27 1 27 28
M  V30 28 2 28 29
M  V30 29 1 29 30
M  V30 30 1 29 31
M  V30 31 1 31 32
M  V30 32 2 31 33
M  V30 33 1 33 34
M  V30 34 1 23 35
M  V30 35 2 18 36
M  V30 36 1 6 37
M  V30 37 1 37 38
M  V30 38 1 38 3
M  V30 39 1 36 7
M  V30 40 2 16 11
M  V30 41 1 35 20
M  V30 42 1 33 26
M  V30 43 1 1 39
M  V30 44 1 1 40
M  V30 45 1 1 41
M  V30 46 1 2 42
M  V30 47 1 2 43
M  V30 48 1 4 44
M  V30 49 1 4 45
M  V30 50 1 5 46
M  V30 51 1 5 47
M  V30 52 1 8 48
M  V30 53 1 10 49
M  V30 54 1 12 50
M  V30 55 1 14 51
M  V30 56 1 14 52
M  V30 57 1 14 53
M  V30 58 1 15 54
M  V30 59 1 19 55
M  V30 60 1 20 56 CFG=1
M  V30 61 1 21 57
M  V30 62 1 21 58
M  V30 63 1 22 59
M  V30 64 1 22 60
M  V30 65 1 27 61
M  V30 66 1 28 62
M  V30 67 1 35 63
M  V30 68 1 35 64
M  V30 69 1 37 65
M  V30 70 1 37 66
M  V30 71 1 38 67
M  V30 72 1 38 68
M  V30 END BOND
M  V30 END CTAB
M  END
>  <Dataset>  (468) 
ChEMBL_Kinases

>  <Ligand_Instance>  (468) 
nan

>  <PDB_ID>  (468) 
nan

>  <Standardized_SMILES>  (468) 
CCN1CCN(c2cc(Nc3cc(C)[nH]n3)nc(N[C@H]3CCN(C(=O)c4ccc(Cl)c(F)c4F)C3)n2)CC1

>  <Name>  (468) 
nan

>  <Pocket>  (468) 
nan

>  <ATP_Site>  (468) 
nan

>  <Peripheral>  (468) 
nan

>  <Num_H_Atoms_ProtBoundConf>  (468) 
nan

>  <Num_Resolved_Atoms>  (468) 
nan

>  <Num_Not_Resolved_Atoms>  (468) 
nan

$$$$
CHEMBL3793870
     RDKit          3D

  0  0  0  0  0  0  0  0  0  0999 V3000
M  V30 BEGIN CTAB
M  V30 COUNTS 58 61 0 0 0
M  V30 BEGIN ATOM
M  V30 1 C 6.789660 -2.978015 3.492383 0
M  V30 2 C 6.197281 -1.628975 3.261721 0
M  V30 3 C 6.739457 -0.550620 3.944560 0
M  V30 4 C 6.206762 0.703565 3.743240 0
M  V30 5 C 6.833287 1.835299 4.510413 0
M  V30 6 C 5.134767 0.955461 2.877499 0
M  V30 7 C 4.649991 -0.169321 2.234883 0
M  V30 8 C 3.531823 0.090739 1.335606 0
M  V30 9 O 3.083794 1.259139 1.186172 0
M  V30 10 O 2.791484 -0.766774 0.536263 0
M  V30 11 C 1.736243 -0.273488 -0.260876 0
M  V30 12 C 0.570587 -0.041106 0.429899 0
M  V30 13 C -0.564843 0.440708 -0.184576 0
M  V30 14 C -0.582376 0.717466 -1.551924 0
M  V30 15 C -1.744296 1.232825 -2.307152 0
M  V30 16 C -2.354007 2.470914 -1.700125 0
M  V30 17 N -3.471310 2.884288 -2.513259 0
M  V30 18 C -2.791301 0.248719 -2.602048 0
M  V30 19 O -3.155827 -0.033316 -3.813014 0
M  V30 20 N -3.568979 -0.537901 -1.793803 0
M  V30 21 C -4.487020 -1.444619 -1.217699 0
M  V30 22 C -5.776246 -0.997174 -0.908097 0
M  V30 23 C -6.699334 -1.908418 -0.377516 0
M  V30 24 C -6.209282 -3.164662 -0.221870 0
M  V30 25 C -7.134895 -4.070466 0.307634 0
M  V30 26 N -6.832346 -5.369780 0.535067 0
M  V30 27 C -5.605180 -5.820473 0.247286 0
M  V30 28 C -4.612479 -4.996251 -0.283696 0
M  V30 29 C -4.971382 -3.690902 -0.494082 0
M  V30 30 C -4.094732 -2.761893 -1.014349 0
M  V30 31 C 0.628125 0.463048 -2.202623 0
M  V30 32 C 1.783037 -0.018346 -1.619704 0
M  V30 33 C 5.138121 -1.444541 2.393721 0
M  V30 34 H 6.950256 -3.155216 4.586607 0
M  V30 35 H 6.026546 -3.726025 3.195648 0
M  V30 36 H 7.723320 -3.117817 2.908821 0
M  V30 37 H 7.573071 -0.710149 4.626327 0
M  V30 38 H 6.718468 2.748114 3.890312 0
M  V30 39 H 7.880447 1.638466 4.764862 0
M  V30 40 H 6.188850 2.037869 5.419886 0
M  V30 41 H 4.746702 1.954412 2.746689 0
M  V30 42 H 0.488521 -0.231213 1.513085 0
M  V30 43 H -1.445149 0.614648 0.393645 0
M  V30 44 H -1.357869 1.560029 -3.319588 0
M  V30 45 H -1.627022 3.319022 -1.674701 0
M  V30 46 H -2.707480 2.326983 -0.659524 0
M  V30 47 H -4.291651 3.211029 -1.977035 0
M  V30 48 H -3.177774 3.631698 -3.158618 0
M  V30 49 H -3.239908 -0.268425 -0.812263 0
M  V30 50 H -6.070279 0.029218 -1.069530 0
M  V30 51 H -7.706542 -1.616973 -0.119920 0
M  V30 52 H -8.174306 -3.845707 0.591125 0
M  V30 53 H -5.317737 -6.865580 0.414753 0
M  V30 54 H -3.612554 -5.329321 -0.526636 0
M  V30 55 H -3.076264 -3.038190 -1.278169 0
M  V30 56 H 0.687431 0.657597 -3.279237 0
M  V30 57 H 2.708440 -0.215770 -2.106162 0
M  V30 58 H 4.698504 -2.281682 1.846953 0
M  V30 END ATOM
M  V30 BEGIN BOND
M  V30 1 1 1 2
M  V30 2 2 2 3
M  V30 3 1 3 4
M  V30 4 1 4 5
M  V30 5 2 4 6
M  V30 6 1 6 7
M  V30 7 1 7 8
M  V30 8 2 8 9
M  V30 9 1 8 10
M  V30 10 1 10 11
M  V30 11 2 11 12
M  V30 12 1 12 13
M  V30 13 2 13 14
M  V30 14 1 14 15
M  V30 15 1 15 16
M  V30 16 1 16 17
M  V30 17 1 15 18
M  V30 18 2 18 19
M  V30 19 1 18 20
M  V30 20 1 20 21
M  V30 21 2 21 22
M  V30 22 1 22 23
M  V30 23 2 23 24
M  V30 24 1 24 25
M  V30 25 2 25 26
M  V30 26 1 26 27
M  V30 27 2 27 28
M  V30 28 1 28 29
M  V30 29 2 29 30
M  V30 30 1 14 31
M  V30 31 2 31 32
M  V30 32 2 7 33
M  V30 33 1 33 2
M  V30 34 1 32 11
M  V30 35 1 30 21
M  V30 36 1 29 24
M  V30 37 1 1 34
M  V30 38 1 1 35
M  V30 39 1 1 36
M  V30 40 1 3 37
M  V30 41 1 5 38
M  V30 42 1 5 39
M  V30 43 1 5 40
M  V30 44 1 6 41
M  V30 45 1 12 42
M  V30 46 1 13 43
M  V30 47 1 15 44
M  V30 48 1 16 45
M  V30 49 1 16 46
M  V30 50 1 17 47
M  V30 51 1 17 48
M  V30 52 1 20 49
M  V30 53 1 22 50
M  V30 54 1 23 51
M  V30 55 1 25 52
M  V30 56 1 27 53
M  V30 57 1 28 54
M  V30 58 1 30 55
M  V30 59 1 31 56
M  V30 60 1 32 57
M  V30 61 1 33 58
M  V30 END BOND
M  V30 END CTAB
M  END
>  <Dataset>  (469) 
ChEMBL_Kinases

>  <Ligand_Instance>  (469) 
nan

>  <PDB_ID>  (469) 
nan

>  <Standardized_SMILES>  (469) 
Cc1cc(C)cc(C(=O)Oc2ccc(C(CN)C(=O)Nc3ccc4cnccc4c3)cc2)c1

>  <Name>  (469) 
nan

>  <Pocket>  (469) 
nan

>  <ATP_Site>  (469) 
nan

>  <Peripheral>  (469) 
nan

>  <Num_H_Atoms_ProtBoundConf>  (469) 
nan

>  <Num_Resolved_Atoms>  (469) 
nan

>  <Num_Not_Resolved_Atoms>  (469) 
nan

$$$$
CHEMBL379386
     RDKit          3D

  0  0  0  0  0  0  0  0  0  0999 V3000
M  V30 BEGIN CTAB
M  V30 COUNTS 40 43 0 0 0
M  V30 BEGIN ATOM
M  V30 1 Br 1.417202 -7.637457 5.166182 0
M  V30 2 C 1.608486 -6.089460 4.085664 0
M  V30 3 C 2.830251 -5.794510 3.530659 0
M  V30 4 C 2.964115 -4.685543 2.757522 0
M  V30 5 C 1.930344 -3.789526 2.469194 0
M  V30 6 N 2.135769 -2.648861 1.654004 0
M  V30 7 C 1.159373 -1.685514 1.304262 0
M  V30 8 N 1.546955 -0.687208 0.529591 0
M  V30 9 C 0.807742 0.321778 0.079787 0
M  V30 10 N 1.226509 1.393800 -0.752597 0
M  V30 11 C 1.685706 2.445342 -1.583355 0
M  V30 12 C 0.586188 3.445368 -1.910069 0
M  V30 13 C -0.274371 3.378866 -2.994696 0
M  V30 14 C -1.093928 4.476991 -2.893915 0
M  V30 15 C -0.707670 5.159717 -1.769795 0
M  V30 16 O 0.288742 4.518636 -1.214881 0
M  V30 17 C -0.513174 0.321391 0.469146 0
M  V30 18 C -1.486713 1.240172 0.147861 0
M  V30 19 C -2.794129 1.184787 0.569501 0
M  V30 20 C -3.194228 0.143938 1.376044 0
M  V30 21 C -2.290836 -0.831416 1.755404 0
M  V30 22 C -1.005027 -0.679692 1.276376 0
M  V30 23 N -0.117380 -1.613617 1.632801 0
M  V30 24 C 0.742019 -4.156192 3.061797 0
M  V30 25 C 0.540573 -5.256446 3.849076 0
M  V30 26 H 3.676119 -6.441194 3.709373 0
M  V30 27 H 3.959034 -4.490590 2.335494 0
M  V30 28 H 3.119828 -2.549098 1.298116 0
M  V30 29 H 2.245900 1.075795 -0.840075 0
M  V30 30 H 2.500895 3.098355 -1.145943 0
M  V30 31 H 2.091366 2.132400 -2.592375 0
M  V30 32 H -0.299584 2.615888 -3.769338 0
M  V30 33 H -1.882008 4.757282 -3.554149 0
M  V30 34 H -1.173212 6.079202 -1.423900 0
M  V30 35 H -1.212454 2.048670 -0.468063 0
M  V30 36 H -3.494194 1.951596 0.268259 0
M  V30 37 H -4.219524 0.106784 1.702547 0
M  V30 38 H -2.555555 -1.660586 2.382005 0
M  V30 39 H -0.128130 -3.551693 2.918149 0
M  V30 40 H -0.417520 -5.496601 4.290164 0
M  V30 END ATOM
M  V30 BEGIN BOND
M  V30 1 1 1 2
M  V30 2 2 2 3
M  V30 3 1 3 4
M  V30 4 2 4 5
M  V30 5 1 5 6
M  V30 6 1 6 7
M  V30 7 2 7 8
M  V30 8 1 8 9
M  V30 9 1 9 10
M  V30 10 1 10 11
M  V30 11 1 11 12
M  V30 12 2 12 13
M  V30 13 1 13 14
M  V30 14 2 14 15
M  V30 15 1 15 16
M  V30 16 2 9 17
M  V30 17 1 17 18
M  V30 18 2 18 19
M  V30 19 1 19 20
M  V30 20 2 20 21
M  V30 21 1 21 22
M  V30 22 2 22 23
M  V30 23 1 5 24
M  V30 24 2 24 25
M  V30 25 1 25 2
M  V30 26 1 23 7
M  V30 27 1 16 12
M  V30 28 1 22 17
M  V30 29 1 3 26
M  V30 30 1 4 27
M  V30 31 1 6 28
M  V30 32 1 10 29
M  V30 33 1 11 30
M  V30 34 1 11 31
M  V30 35 1 13 32
M  V30 36 1 14 33
M  V30 37 1 15 34
M  V30 38 1 18 35
M  V30 39 1 19 36
M  V30 40 1 20 37
M  V30 41 1 21 38
M  V30 42 1 24 39
M  V30 43 1 25 40
M  V30 END BOND
M  V30 END CTAB
M  END
>  <Dataset>  (470) 
ChEMBL_Kinases

>  <Ligand_Instance>  (470) 
nan

>  <PDB_ID>  (470) 
nan

>  <Standardized_SMILES>  (470) 
Brc1ccc(Nc2nc(NCc3ccco3)c3ccccc3n2)cc1

>  <Name>  (470) 
nan

>  <Pocket>  (470) 
nan

>  <ATP_Site>  (470) 
nan

>  <Peripheral>  (470) 
nan

>  <Num_H_Atoms_ProtBoundConf>  (470) 
nan

>  <Num_Resolved_Atoms>  (470) 
nan

>  <Num_Not_Resolved_Atoms>  (470) 
nan

$$$$
CHEMBL3702262
     RDKit          3D

  0  0  0  0  0  0  0  0  0  0999 V3000
M  V30 BEGIN CTAB
M  V30 COUNTS 56 58 0 0 0
M  V30 BEGIN ATOM
M  V30 1 C -0.196374 -1.819093 0.588347 0
M  V30 2 C -0.730623 -0.512216 1.056073 0
M  V30 3 C 0.098307 0.618283 1.110039 0
M  V30 4 C 1.491400 0.695615 0.748677 0
M  V30 5 O 2.343896 -0.120424 0.316240 0
M  V30 6 N 2.152218 1.950151 0.874704 0
M  V30 7 C 3.567546 1.894710 0.474623 0
M  V30 8 C 4.166023 3.239900 0.638601 0
M  V30 9 C 3.605411 4.361734 -0.147450 0
M  V30 10 N 3.678172 4.274657 -1.568359 0
M  V30 11 C 2.856203 3.304848 -2.209856 0
M  V30 12 C 3.418215 5.578106 -2.133348 0
M  V30 13 S -0.891343 1.932677 1.703605 0
M  V30 14 C -2.418554 0.949261 1.875970 0
M  V30 15 N -3.650291 1.302043 2.299954 0
M  V30 16 C -4.622600 0.385568 2.339887 0
M  V30 17 N -4.287545 -0.844286 1.945021 0
M  V30 18 C -3.072227 -1.210462 1.522186 0
M  V30 19 N -3.001845 -2.580357 1.165140 0
M  V30 20 C -2.668921 -3.792244 1.835857 0
M  V30 21 C -2.317716 -3.709814 3.164826 0
M  V30 22 C -2.000085 -4.939132 3.755937 0
M  V30 23 C -2.050290 -6.090016 3.031403 0
M  V30 24 N -2.406051 -6.067499 1.734683 0
M  V30 25 C -2.730199 -4.934512 1.074874 0
M  V30 26 O -3.100756 -4.873879 -0.260739 0
M  V30 27 C -3.186726 -5.980153 -1.098478 0
M  V30 28 C -1.861798 -6.714990 -1.236793 0
M  V30 29 O -2.051364 -7.786219 -2.081600 0
M  V30 30 C -2.026139 -0.318421 1.456112 0
M  V30 31 H 0.618927 -1.601914 -0.130912 0
M  V30 32 H 0.112602 -2.459372 1.440465 0
M  V30 33 H -0.928770 -2.414964 0.004322 0
M  V30 34 H 1.699942 2.851281 1.218590 0
M  V30 35 H 3.694100 1.409272 -0.495056 0
M  V30 36 H 4.068369 1.210440 1.207336 0
M  V30 37 H 4.093325 3.489985 1.742305 0
M  V30 38 H 5.273439 3.232300 0.463893 0
M  V30 39 H 2.527118 4.567919 0.085966 0
M  V30 40 H 4.119493 5.322790 0.138309 0
M  V30 41 H 2.443650 3.793437 -3.157788 0
M  V30 42 H 1.946281 3.028643 -1.631365 0
M  V30 43 H 3.417153 2.412060 -2.595098 0
M  V30 44 H 4.137055 6.325083 -1.726590 0
M  V30 45 H 2.391615 5.947207 -1.913285 0
M  V30 46 H 3.441946 5.532512 -3.261439 0
M  V30 47 H -5.570834 0.748008 2.688620 0
M  V30 48 H -3.293721 -2.529857 0.150484 0
M  V30 49 H -2.270340 -2.821163 3.758361 0
M  V30 50 H -1.704429 -5.053527 4.789849 0
M  V30 51 H -1.839857 -7.097712 3.332741 0
M  V30 52 H -3.392557 -5.578979 -2.133721 0
M  V30 53 H -3.951861 -6.722788 -0.824069 0
M  V30 54 H -1.523381 -7.046320 -0.253363 0
M  V30 55 H -1.118482 -6.028329 -1.734554 0
M  V30 56 H -1.873219 -7.515714 -3.017294 0
M  V30 END ATOM
M  V30 BEGIN BOND
M  V30 1 1 1 2
M  V30 2 2 2 3
M  V30 3 1 3 4
M  V30 4 2 4 5
M  V30 5 1 4 6
M  V30 6 1 6 7
M  V30 7 1 7 8
M  V30 8 1 8 9
M  V30 9 1 9 10
M  V30 10 1 10 11
M  V30 11 1 10 12
M  V30 12 1 3 13
M  V30 13 1 13 14
M  V30 14 2 14 15
M  V30 15 1 15 16
M  V30 16 2 16 17
M  V30 17 1 17 18
M  V30 18 1 18 19
M  V30 19 1 19 20
M  V30 20 2 20 21
M  V30 21 1 21 22
M  V30 22 2 22 23
M  V30 23 1 23 24
M  V30 24 2 24 25
M  V30 25 1 25 26
M  V30 26 1 26 27
M  V30 27 1 27 28
M  V30 28 1 28 29
M  V30 29 2 18 30
M  V30 30 1 30 2
M  V30 31 1 30 14
M  V30 32 1 25 20
M  V30 33 1 1 31
M  V30 34 1 1 32
M  V30 35 1 1 33
M  V30 36 1 6 34
M  V30 37 1 7 35
M  V30 38 1 7 36
M  V30 39 1 8 37
M  V30 40 1 8 38
M  V30 41 1 9 39
M  V30 42 1 9 40
M  V30 43 1 11 41
M  V30 44 1 11 42
M  V30 45 1 11 43
M  V30 46 1 12 44
M  V30 47 1 12 45
M  V30 48 1 12 46
M  V30 49 1 16 47
M  V30 50 1 19 48
M  V30 51 1 21 49
M  V30 52 1 22 50
M  V30 53 1 23 51
M  V30 54 1 27 52
M  V30 55 1 27 53
M  V30 56 1 28 54
M  V30 57 1 28 55
M  V30 58 1 29 56
M  V30 END BOND
M  V30 END CTAB
M  END
>  <Dataset>  (471) 
ChEMBL_Kinases

>  <Ligand_Instance>  (471) 
nan

>  <PDB_ID>  (471) 
nan

>  <Standardized_SMILES>  (471) 
Cc1c(C(=O)NCCCN(C)C)sc2ncnc(Nc3cccnc3OCCO)c12

>  <Name>  (471) 
nan

>  <Pocket>  (471) 
nan

>  <ATP_Site>  (471) 
nan

>  <Peripheral>  (471) 
nan

>  <Num_H_Atoms_ProtBoundConf>  (471) 
nan

>  <Num_Resolved_Atoms>  (471) 
nan

>  <Num_Not_Resolved_Atoms>  (471) 
nan

$$$$
CHEMBL3793788
     RDKit          3D

  0  0  0  0  0  0  0  0  0  0999 V3000
M  V30 BEGIN CTAB
M  V30 COUNTS 54 57 0 0 0
M  V30 BEGIN ATOM
M  V30 1 N -0.305517 0.706085 5.929735 0
M  V30 2 C -0.967334 -0.209045 5.042077 0
M  V30 3 C -1.068878 0.292180 3.631134 0
M  V30 4 C 0.226400 0.553956 3.001453 0
M  V30 5 O 0.009628 -0.258760 2.035805 0
M  V30 6 N 1.400813 1.331430 3.182457 0
M  V30 7 C 2.419940 1.186858 2.200953 0
M  V30 8 C 3.483124 0.291767 2.184930 0
M  V30 9 C 4.368668 0.317206 1.128177 0
M  V30 10 C 4.207956 1.220339 0.091455 0
M  V30 11 C 5.118705 1.206727 -0.941522 0
M  V30 12 N 4.997740 2.065703 -1.964226 0
M  V30 13 C 3.984062 2.953528 -1.995426 0
M  V30 14 C 3.055395 2.982650 -0.962801 0
M  V30 15 C 3.150990 2.115589 0.100114 0
M  V30 16 C 2.251913 2.092177 1.169750 0
M  V30 17 C -1.777576 -0.691174 2.762658 0
M  V30 18 C -1.322931 -2.000196 2.606328 0
M  V30 19 C -1.988304 -2.892134 1.802600 0
M  V30 20 C -3.124375 -2.557611 1.112901 0
M  V30 21 C -3.941272 -3.385369 0.208970 0
M  V30 22 O -3.575849 -3.239057 -1.141055 0
M  V30 23 C -2.351501 -3.520869 -1.659528 0
M  V30 24 O -1.380977 -3.951904 -0.998017 0
M  V30 25 C -2.069924 -3.334776 -3.074984 0
M  V30 26 C -0.821101 -3.621990 -3.603553 0
M  V30 27 C -0.526666 -3.452712 -4.953130 0
M  V30 28 C -1.504860 -2.982157 -5.808571 0
M  V30 29 N -2.701651 -2.709236 -5.290006 0
M  V30 30 C -2.999925 -2.866254 -3.997597 0
M  V30 31 C -3.559563 -1.247797 1.283626 0
M  V30 32 C -2.922696 -0.337145 2.074085 0
M  V30 33 H -0.519002 1.671169 5.674027 0
M  V30 34 H 0.711280 0.488431 5.937539 0
M  V30 35 H -2.008238 -0.428048 5.401849 0
M  V30 36 H -0.381696 -1.170843 5.063394 0
M  V30 37 H -1.639831 1.239813 3.608059 0
M  V30 38 H 1.221617 1.860820 4.052534 0
M  V30 39 H 3.498291 -0.359297 3.048562 0
M  V30 40 H 5.173909 -0.414622 1.188837 0
M  V30 41 H 5.936356 0.508874 -0.941111 0
M  V30 42 H 3.851992 3.652749 -2.789180 0
M  V30 43 H 2.229278 3.676345 -0.947788 0
M  V30 44 H 1.466459 2.832710 1.074471 0
M  V30 45 H -0.433265 -2.293965 3.134466 0
M  V30 46 H -1.643715 -3.889903 1.692127 0
M  V30 47 H -4.995225 -3.120678 0.351023 0
M  V30 48 H -3.800370 -4.465508 0.448254 0
M  V30 49 H -0.007397 -3.997700 -2.973322 0
M  V30 50 H 0.443982 -3.679422 -5.345903 0
M  V30 51 H -1.272901 -2.851753 -6.857034 0
M  V30 52 H -3.982357 -2.645870 -3.553047 0
M  V30 53 H -4.448330 -0.873086 0.785997 0
M  V30 54 H -3.274317 0.678324 2.196154 0
M  V30 END ATOM
M  V30 BEGIN BOND
M  V30 1 1 1 2
M  V30 2 1 2 3
M  V30 3 1 3 4
M  V30 4 2 4 5
M  V30 5 1 4 6
M  V30 6 1 6 7
M  V30 7 2 7 8
M  V30 8 1 8 9
M  V30 9 2 9 10
M  V30 10 1 10 11
M  V30 11 2 11 12
M  V30 12 1 12 13
M  V30 13 2 13 14
M  V30 14 1 14 15
M  V30 15 2 15 16
M  V30 16 1 3 17
M  V30 17 2 17 18
M  V30 18 1 18 19
M  V30 19 2 19 20
M  V30 20 1 20 21
M  V30 21 1 21 22
M  V30 22 1 22 23
M  V30 23 2 23 24
M  V30 24 1 23 25
M  V30 25 2 25 26
M  V30 26 1 26 27
M  V30 27 2 27 28
M  V30 28 1 28 29
M  V30 29 2 29 30
M  V30 30 1 20 31
M  V30 31 2 31 32
M  V30 32 1 16 7
M  V30 33 1 32 17
M  V30 34 1 15 10
M  V30 35 1 30 25
M  V30 36 1 1 33
M  V30 37 1 1 34
M  V30 38 1 2 35
M  V30 39 1 2 36
M  V30 40 1 3 37
M  V30 41 1 6 38
M  V30 42 1 8 39
M  V30 43 1 9 40
M  V30 44 1 11 41
M  V30 45 1 13 42
M  V30 46 1 14 43
M  V30 47 1 16 44
M  V30 48 1 18 45
M  V30 49 1 19 46
M  V30 50 1 21 47
M  V30 51 1 21 48
M  V30 52 1 26 49
M  V30 53 1 27 50
M  V30 54 1 28 51
M  V30 55 1 30 52
M  V30 56 1 31 53
M  V30 57 1 32 54
M  V30 END BOND
M  V30 END CTAB
M  END
>  <Dataset>  (472) 
ChEMBL_Kinases

>  <Ligand_Instance>  (472) 
nan

>  <PDB_ID>  (472) 
nan

>  <Standardized_SMILES>  (472) 
NCC(C(=O)Nc1ccc2cnccc2c1)c1ccc(COC(=O)c2cccnc2)cc1

>  <Name>  (472) 
nan

>  <Pocket>  (472) 
nan

>  <ATP_Site>  (472) 
nan

>  <Peripheral>  (472) 
nan

>  <Num_H_Atoms_ProtBoundConf>  (472) 
nan

>  <Num_Resolved_Atoms>  (472) 
nan

>  <Num_Not_Resolved_Atoms>  (472) 
nan

$$$$
CHEMBL5073083
     RDKit          3D

  0  0  0  0  0  0  0  0  0  0999 V3000
M  V30 BEGIN CTAB
M  V30 COUNTS 52 55 0 0 0
M  V30 BEGIN ATOM
M  V30 1 C 2.702913 1.368902 4.441983 0
M  V30 2 C 3.855367 0.416120 4.405844 0 CFG=1
M  V30 3 C 3.381526 -0.986078 4.092120 0
M  V30 4 O 2.378040 -1.333096 4.971683 0
M  V30 5 N 4.920890 0.830992 3.499232 0
M  V30 6 C 4.683259 1.009943 2.105775 0
M  V30 7 N 5.615778 1.390887 1.207633 0
M  V30 8 C 5.299931 1.534914 -0.093091 0
M  V30 9 C 4.022868 1.302398 -0.562808 0
M  V30 10 Cl 3.503149 1.457606 -2.222340 0
M  V30 11 C 3.070175 0.912350 0.359833 0
M  V30 12 C 1.657926 0.617534 0.061976 0
M  V30 13 C 0.704426 1.267178 -0.706593 0
M  V30 14 C -0.477197 0.528437 -0.626812 0
M  V30 15 N -0.263652 -0.540386 0.162674 0
M  V30 16 C 1.014093 -0.501384 0.584444 0
M  V30 17 C -1.501427 -1.236444 0.194204 0
M  V30 18 O -1.623237 -2.298980 0.861945 0
M  V30 19 N -2.487531 -0.571875 -0.595794 0
M  V30 20 C -3.848057 -0.995181 -0.789590 0 CFG=2
M  V30 21 C -4.640369 -0.968666 0.498134 0
M  V30 22 O -4.132262 -1.784262 1.480956 0
M  V30 23 C -3.950877 -2.317065 -1.458637 0
M  V30 24 C -4.741243 -3.401856 -1.164683 0
M  V30 25 C -4.657512 -4.536121 -1.944252 0
M  V30 26 C -3.800079 -4.621073 -3.019123 0
M  V30 27 C -3.001184 -3.538960 -3.324863 0
M  V30 28 Cl -1.929925 -3.699429 -4.700369 0
M  V30 29 C -3.080461 -2.391558 -2.542746 0
M  V30 30 C -1.859236 0.613890 -1.168353 0
M  V30 31 N 3.443484 0.786050 1.639000 0
M  V30 32 H 1.973987 1.213873 3.622238 0
M  V30 33 H 2.152566 1.195429 5.391984 0
M  V30 34 H 3.080898 2.412485 4.495495 0
M  V30 35 H 4.297859 0.373156 5.422769 0
M  V30 36 H 3.010708 -1.108230 3.073974 0
M  V30 37 H 4.244505 -1.694594 4.205164 0
M  V30 38 H 1.794760 -2.016417 4.528084 0
M  V30 39 H 5.899673 1.015819 3.820072 0
M  V30 40 H 6.033710 1.839358 -0.827367 0
M  V30 41 H 0.996554 2.185827 -1.218442 0
M  V30 42 H 1.464197 -1.251489 1.243746 0
M  V30 43 H -4.372098 -0.259074 -1.465627 0
M  V30 44 H -4.745523 0.094778 0.830317 0
M  V30 45 H -5.672456 -1.295655 0.264963 0
M  V30 46 H -3.938589 -1.327739 2.329907 0
M  V30 47 H -5.372296 -3.229257 -0.307526 0
M  V30 48 H -5.339201 -5.329592 -1.605554 0
M  V30 49 H -3.838629 -5.568468 -3.540692 0
M  V30 50 H -2.403802 -1.623515 -2.890678 0
M  V30 51 H -2.325931 1.541118 -0.778101 0
M  V30 52 H -1.836125 0.620858 -2.258419 0
M  V30 END ATOM
M  V30 BEGIN BOND
M  V30 1 1 1 2
M  V30 2 1 2 3
M  V30 3 1 3 4
M  V30 4 1 2 5
M  V30 5 1 5 6
M  V30 6 2 6 7
M  V30 7 1 7 8
M  V30 8 2 8 9
M  V30 9 1 9 10
M  V30 10 1 9 11
M  V30 11 1 11 12
M  V30 12 1 12 13
M  V30 13 2 13 14
M  V30 14 1 14 15
M  V30 15 1 15 16
M  V30 16 1 15 17
M  V30 17 2 17 18
M  V30 18 1 17 19
M  V30 19 1 19 20
M  V30 20 1 20 21
M  V30 21 1 21 22
M  V30 22 1 20 23
M  V30 23 2 23 24
M  V30 24 1 24 25
M  V30 25 2 25 26
M  V30 26 1 26 27
M  V30 27 1 27 28
M  V30 28 2 27 29
M  V30 29 1 19 30
M  V30 30 2 11 31
M  V30 31 1 31 6
M  V30 32 2 16 12
M  V30 33 1 29 23
M  V30 34 1 30 14
M  V30 35 1 1 32
M  V30 36 1 1 33
M  V30 37 1 1 34
M  V30 38 1 2 35 CFG=1
M  V30 39 1 3 36
M  V30 40 1 3 37
M  V30 41 1 4 38
M  V30 42 1 5 39
M  V30 43 1 8 40
M  V30 44 1 13 41
M  V30 45 1 16 42
M  V30 46 1 20 43 CFG=3
M  V30 47 1 21 44
M  V30 48 1 21 45
M  V30 49 1 22 46
M  V30 50 1 24 47
M  V30 51 1 25 48
M  V30 52 1 26 49
M  V30 53 1 29 50
M  V30 54 1 30 51
M  V30 55 1 30 52
M  V30 END BOND
M  V30 END CTAB
M  END
>  <Dataset>  (473) 
ChEMBL_Kinases

>  <Ligand_Instance>  (473) 
nan

>  <PDB_ID>  (473) 
nan

>  <Standardized_SMILES>  (473) 
C[C@@H](CO)Nc1ncc(Cl)c(-c2cc3n(c2)C(=O)N([C@H](CO)c2cccc(Cl)c2)C3)n1

>  <Name>  (473) 
nan

>  <Pocket>  (473) 
nan

>  <ATP_Site>  (473) 
nan

>  <Peripheral>  (473) 
nan

>  <Num_H_Atoms_ProtBoundConf>  (473) 
nan

>  <Num_Resolved_Atoms>  (473) 
nan

>  <Num_Not_Resolved_Atoms>  (473) 
nan

$$$$
CHEMBL379374
     RDKit          3D

  0  0  0  0  0  0  0  0  0  0999 V3000
M  V30 BEGIN CTAB
M  V30 COUNTS 40 44 0 0 0
M  V30 BEGIN ATOM
M  V30 1 F -1.550757 -4.555362 -1.402923 0
M  V30 2 C -0.451588 -3.797641 -1.109693 0
M  V30 3 C 0.249355 -4.099098 0.030522 0
M  V30 4 C 1.378455 -3.349748 0.366057 0
M  V30 5 C 1.750254 -2.308087 -0.489303 0
M  V30 6 C 2.932867 -1.526203 -0.134116 0
M  V30 7 N 4.261899 -1.738830 0.070948 0
M  V30 8 C 4.791919 -0.545545 0.381034 0
M  V30 9 O 3.862907 0.377586 0.376266 0
M  V30 10 C 2.692767 -0.176327 0.063232 0
M  V30 11 C 1.608244 0.801661 0.039988 0
M  V30 12 C 1.638025 1.859171 -0.858733 0
M  V30 13 C 0.620563 2.818572 -0.910344 0
M  V30 14 C -0.406822 2.630897 -0.003518 0
M  V30 15 N -1.497247 3.379603 0.176195 0
M  V30 16 N -2.210702 2.851724 1.137487 0
M  V30 17 C -1.608474 1.734478 1.621452 0
M  V30 18 C -2.097749 0.879123 2.697787 0
M  V30 19 C -2.499186 -0.511642 2.268033 0
M  V30 20 C -1.569393 -1.061613 3.320945 0
M  V30 21 C -1.279994 0.328209 3.734208 0
M  V30 22 N -0.485687 1.638178 0.877151 0
M  V30 23 C 0.513433 0.745261 0.886846 0
M  V30 24 C 1.025649 -2.018617 -1.640589 0
M  V30 25 F 1.435704 -0.997693 -2.429013 0
M  V30 26 C -0.090237 -2.767217 -1.962638 0
M  V30 27 H 0.018178 -4.886466 0.731185 0
M  V30 28 H 1.984597 -3.536497 1.262151 0
M  V30 29 H 5.861131 -0.516055 0.581700 0
M  V30 30 H 2.479821 1.962095 -1.559701 0
M  V30 31 H 0.616103 3.645069 -1.592527 0
M  V30 32 H -3.037816 1.367797 3.106502 0
M  V30 33 H -2.205499 -0.742153 1.223992 0
M  V30 34 H -3.566177 -0.805031 2.496334 0
M  V30 35 H -0.748355 -1.671938 2.908798 0
M  V30 36 H -2.099416 -1.728876 4.063551 0
M  V30 37 H -0.229817 0.628168 3.886962 0
M  V30 38 H -1.715041 0.465157 4.773968 0
M  V30 39 H 0.497396 -0.064348 1.570357 0
M  V30 40 H -0.665829 -2.556205 -2.854727 0
M  V30 END ATOM
M  V30 BEGIN BOND
M  V30 1 1 1 2
M  V30 2 2 2 3
M  V30 3 1 3 4
M  V30 4 2 4 5
M  V30 5 1 5 6
M  V30 6 1 6 7
M  V30 7 2 7 8
M  V30 8 1 8 9
M  V30 9 1 9 10
M  V30 10 1 10 11
M  V30 11 1 11 12
M  V30 12 2 12 13
M  V30 13 1 13 14
M  V30 14 2 14 15
M  V30 15 1 15 16
M  V30 16 2 16 17
M  V30 17 1 17 18
M  V30 18 1 18 19
M  V30 19 1 19 20
M  V30 20 1 20 21
M  V30 21 1 17 22
M  V30 22 1 22 23
M  V30 23 1 5 24
M  V30 24 1 24 25
M  V30 25 2 24 26
M  V30 26 1 26 2
M  V30 27 2 10 6
M  V30 28 2 23 11
M  V30 29 1 22 14
M  V30 30 1 21 18
M  V30 31 1 3 27
M  V30 32 1 4 28
M  V30 33 1 8 29
M  V30 34 1 12 30
M  V30 35 1 13 31
M  V30 36 1 18 32
M  V30 37 1 19 33
M  V30 38 1 19 34
M  V30 39 1 20 35
M  V30 40 1 20 36
M  V30 41 1 21 37
M  V30 42 1 21 38
M  V30 43 1 23 39
M  V30 44 1 26 40
M  V30 END BOND
M  V30 END CTAB
M  END
>  <Dataset>  (474) 
ChEMBL_Kinases

>  <Ligand_Instance>  (474) 
nan

>  <PDB_ID>  (474) 
nan

>  <Standardized_SMILES>  (474) 
Fc1ccc(-c2ncoc2-c2ccc3nnc(C4CCC4)n3c2)c(F)c1

>  <Name>  (474) 
nan

>  <Pocket>  (474) 
nan

>  <ATP_Site>  (474) 
nan

>  <Peripheral>  (474) 
nan

>  <Num_H_Atoms_ProtBoundConf>  (474) 
nan

>  <Num_Resolved_Atoms>  (474) 
nan

>  <Num_Not_Resolved_Atoms>  (474) 
nan

$$$$
CHEMBL378371
     RDKit          3D

  0  0  0  0  0  0  0  0  0  0999 V3000
M  V30 BEGIN CTAB
M  V30 COUNTS 51 54 0 0 0
M  V30 BEGIN ATOM
M  V30 1 C 0.136635 -0.884604 4.599315 0
M  V30 2 C 1.199709 -1.195502 3.531156 0 CFG=2
M  V30 3 O 2.173287 -1.932530 4.202563 0
M  V30 4 C 1.712141 0.125969 3.040433 0
M  V30 5 N 2.797723 0.099784 2.138310 0
M  V30 6 C 4.044580 -0.348913 2.702246 0
M  V30 7 C 4.329199 -1.695680 2.056943 0
M  V30 8 C 3.156194 -1.978951 1.118833 0
M  V30 9 C 2.615591 -0.611547 0.905164 0
M  V30 10 C 1.292094 -0.518765 0.299530 0
M  V30 11 C 0.675681 0.732108 0.183948 0
M  V30 12 C -0.558048 0.473947 -0.427604 0
M  V30 13 C -1.602515 1.428067 -0.784650 0
M  V30 14 C -2.039108 1.673048 -2.092457 0
M  V30 15 C -3.036088 2.606734 -2.288526 0
M  V30 16 N -3.626074 3.306883 -1.302674 0
M  V30 17 C -3.199630 3.063845 -0.051815 0
M  V30 18 C -2.195704 2.136401 0.240379 0
M  V30 19 C -0.639628 -0.876358 -0.651287 0
M  V30 20 C -1.653195 -1.709389 -1.239453 0
M  V30 21 C -2.921445 -1.884700 -0.770865 0
M  V30 22 C -3.849702 -2.704321 -1.382888 0
M  V30 23 C -3.478493 -3.372347 -2.513706 0
M  V30 24 F -4.341812 -4.193631 -3.164229 0
M  V30 25 C -2.204845 -3.233624 -3.035992 0
M  V30 26 C -1.309172 -2.407847 -2.397235 0
M  V30 27 N 0.493566 -1.464373 -0.203199 0
M  V30 28 H 0.183165 -1.629437 5.431850 0
M  V30 29 H 0.299110 0.105128 5.041476 0
M  V30 30 H -0.880256 -0.938920 4.207662 0
M  V30 31 H 0.698158 -1.817859 2.796291 0
M  V30 32 H 1.990467 -2.084664 5.147227 0
M  V30 33 H 2.044702 0.697078 3.949439 0
M  V30 34 H 0.883628 0.709407 2.626491 0
M  V30 35 H 4.817762 0.400537 2.425418 0
M  V30 36 H 4.054980 -0.413866 3.807463 0
M  V30 37 H 4.467999 -2.500554 2.779981 0
M  V30 38 H 5.229965 -1.560812 1.398965 0
M  V30 39 H 3.550550 -2.364521 0.135039 0
M  V30 40 H 2.470698 -2.736393 1.485997 0
M  V30 41 H 3.323179 -0.110786 0.172811 0
M  V30 42 H 0.977749 1.730616 0.462224 0
M  V30 43 H -1.553327 1.103213 -2.852710 0
M  V30 44 H -3.369830 2.793341 -3.297738 0
M  V30 45 H -3.619354 3.584374 0.811099 0
M  V30 46 H -1.870136 1.960431 1.270360 0
M  V30 47 H -3.182791 -1.330599 0.141509 0
M  V30 48 H -4.845337 -2.817177 -0.981299 0
M  V30 49 H -1.909288 -3.756716 -3.923256 0
M  V30 50 H -0.307211 -2.319952 -2.836604 0
M  V30 51 H 0.822179 -2.462280 -0.187276 0
M  V30 END ATOM
M  V30 BEGIN BOND
M  V30 1 1 1 2
M  V30 2 1 2 3
M  V30 3 1 2 4
M  V30 4 1 4 5
M  V30 5 1 5 6
M  V30 6 1 6 7
M  V30 7 1 7 8
M  V30 8 1 8 9
M  V30 9 1 9 10
M  V30 10 2 10 11
M  V30 11 1 11 12
M  V30 12 1 12 13
M  V30 13 2 13 14
M  V30 14 1 14 15
M  V30 15 2 15 16
M  V30 16 1 16 17
M  V30 17 2 17 18
M  V30 18 2 12 19
M  V30 19 1 19 20
M  V30 20 2 20 21
M  V30 21 1 21 22
M  V30 22 2 22 23
M  V30 23 1 23 24
M  V30 24 1 23 25
M  V30 25 2 25 26
M  V30 26 1 19 27
M  V30 27 1 9 5
M  V30 28 1 27 10
M  V30 29 1 18 13
M  V30 30 1 26 20
M  V30 31 1 1 28
M  V30 32 1 1 29
M  V30 33 1 1 30
M  V30 34 1 2 31 CFG=3
M  V30 35 1 3 32
M  V30 36 1 4 33
M  V30 37 1 4 34
M  V30 38 1 6 35
M  V30 39 1 6 36
M  V30 40 1 7 37
M  V30 41 1 7 38
M  V30 42 1 8 39
M  V30 43 1 8 40
M  V30 44 1 9 41
M  V30 45 1 11 42
M  V30 46 1 14 43
M  V30 47 1 15 44
M  V30 48 1 17 45
M  V30 49 1 18 46
M  V30 50 1 21 47
M  V30 51 1 22 48
M  V30 52 1 25 49
M  V30 53 1 26 50
M  V30 54 1 27 51
M  V30 END BOND
M  V30 END CTAB
M  END
>  <Dataset>  (475) 
ChEMBL_Kinases

>  <Ligand_Instance>  (475) 
nan

>  <PDB_ID>  (475) 
nan

>  <Standardized_SMILES>  (475) 
C[C@H](O)CN1CCCC1c1cc(-c2ccncc2)c(-c2ccc(F)cc2)[nH]1

>  <Name>  (475) 
nan

>  <Pocket>  (475) 
nan

>  <ATP_Site>  (475) 
nan

>  <Peripheral>  (475) 
nan

>  <Num_H_Atoms_ProtBoundConf>  (475) 
nan

>  <Num_Resolved_Atoms>  (475) 
nan

>  <Num_Not_Resolved_Atoms>  (475) 
nan

$$$$
CHEMBL3793659
     RDKit          3D

  0  0  0  0  0  0  0  0  0  0999 V3000
M  V30 BEGIN CTAB
M  V30 COUNTS 54 56 0 0 0
M  V30 BEGIN ATOM
M  V30 1 C 1.421475 -3.007719 3.663605 0
M  V30 2 C 2.812033 -2.458617 3.911716 0
M  V30 3 C 2.903462 -2.154887 5.392100 0
M  V30 4 C 3.803668 -3.559001 3.613805 0
M  V30 5 C 3.085422 -1.225049 3.168786 0
M  V30 6 O 3.077688 -0.196659 2.441891 0
M  V30 7 O 3.390287 -0.038680 2.473419 0
M  V30 8 C 2.486075 0.587330 1.620444 0
M  V30 9 C 1.591607 1.558219 2.075021 0
M  V30 10 C 0.686514 2.191600 1.246146 0
M  V30 11 C 0.703801 1.815331 -0.082756 0
M  V30 12 C -0.257035 2.480063 -0.990982 0
M  V30 13 C 0.442017 3.218275 -2.112467 0
M  V30 14 N -0.592029 3.825712 -2.932428 0
M  V30 15 C -1.137363 1.474732 -1.623408 0
M  V30 16 O -1.461057 1.034167 -2.762545 0
M  V30 17 N -1.889644 0.734577 -0.643105 0
M  V30 18 C -2.813645 -0.296565 -0.999064 0
M  V30 19 C -4.154903 -0.210079 -1.272404 0
M  V30 20 C -4.845722 -1.350393 -1.595288 0
M  V30 21 C -4.252882 -2.592411 -1.659481 0
M  V30 22 C -4.982990 -3.716122 -1.988205 0
M  V30 23 N -4.358585 -4.920465 -2.039857 0
M  V30 24 C -3.048396 -5.059008 -1.781159 0
M  V30 25 C -2.327954 -3.928841 -1.453508 0
M  V30 26 C -2.912164 -2.668844 -1.384713 0
M  V30 27 C -2.186203 -1.538575 -1.055863 0
M  V30 28 C 1.548701 0.867565 -0.625429 0
M  V30 29 C 2.429255 0.271831 0.256589 0
M  V30 30 H 1.095404 -3.547000 4.570906 0
M  V30 31 H 0.778496 -2.115922 3.453488 0
M  V30 32 H 1.450684 -3.612597 2.756009 0
M  V30 33 H 1.932511 -1.714041 5.750271 0
M  V30 34 H 3.082027 -3.054816 5.998787 0
M  V30 35 H 3.696908 -1.401005 5.605657 0
M  V30 36 H 4.840144 -3.210216 3.646382 0
M  V30 37 H 3.705271 -4.282286 4.468021 0
M  V30 38 H 3.548130 -4.148003 2.709978 0
M  V30 39 H 1.643884 1.794161 3.129165 0
M  V30 40 H 0.009812 2.936751 1.629326 0
M  V30 41 H -0.891269 3.218468 -0.484194 0
M  V30 42 H 1.042443 4.035104 -1.659553 0
M  V30 43 H 1.062652 2.538439 -2.734072 0
M  V30 44 H -0.224995 4.653329 -3.451979 0
M  V30 45 H -1.422954 4.047660 -2.329207 0
M  V30 46 H -1.853459 0.855994 0.406905 0
M  V30 47 H -4.538183 0.792507 -1.200226 0
M  V30 48 H -5.894564 -1.214571 -1.798561 0
M  V30 49 H -6.037583 -3.589989 -2.194194 0
M  V30 50 H -2.530030 -6.018308 -1.817806 0
M  V30 51 H -1.264401 -4.010818 -1.238829 0
M  V30 52 H -1.143324 -1.734860 -0.863154 0
M  V30 53 H 1.533725 0.598872 -1.670038 0
M  V30 54 H 3.108201 -0.477788 -0.135241 0
M  V30 END ATOM
M  V30 BEGIN BOND
M  V30 1 1 1 2
M  V30 2 1 2 3
M  V30 3 1 2 4
M  V30 4 1 2 5
M  V30 5 2 5 6
M  V30 6 1 5 7
M  V30 7 1 7 8
M  V30 8 2 8 9
M  V30 9 1 9 10
M  V30 10 2 10 11
M  V30 11 1 11 12
M  V30 12 1 12 13
M  V30 13 1 13 14
M  V30 14 1 12 15
M  V30 15 2 15 16
M  V30 16 1 15 17
M  V30 17 1 17 18
M  V30 18 2 18 19
M  V30 19 1 19 20
M  V30 20 2 20 21
M  V30 21 1 21 22
M  V30 22 2 22 23
M  V30 23 1 23 24
M  V30 24 2 24 25
M  V30 25 1 25 26
M  V30 26 2 26 27
M  V30 27 1 11 28
M  V30 28 2 28 29
M  V30 29 1 29 8
M  V30 30 1 27 18
M  V30 31 1 26 21
M  V30 32 1 1 30
M  V30 33 1 1 31
M  V30 34 1 1 32
M  V30 35 1 3 33
M  V30 36 1 3 34
M  V30 37 1 3 35
M  V30 38 1 4 36
M  V30 39 1 4 37
M  V30 40 1 4 38
M  V30 41 1 9 39
M  V30 42 1 10 40
M  V30 43 1 12 41
M  V30 44 1 13 42
M  V30 45 1 13 43
M  V30 46 1 14 44
M  V30 47 1 14 45
M  V30 48 1 17 46
M  V30 49 1 19 47
M  V30 50 1 20 48
M  V30 51 1 22 49
M  V30 52 1 24 50
M  V30 53 1 25 51
M  V30 54 1 27 52
M  V30 55 1 28 53
M  V30 56 1 29 54
M  V30 END BOND
M  V30 END CTAB
M  END
>  <Dataset>  (476) 
ChEMBL_Kinases

>  <Ligand_Instance>  (476) 
nan

>  <PDB_ID>  (476) 
nan

>  <Standardized_SMILES>  (476) 
CC(C)(C)C(=O)Oc1ccc(C(CN)C(=O)Nc2ccc3cnccc3c2)cc1

>  <Name>  (476) 
nan

>  <Pocket>  (476) 
nan

>  <ATP_Site>  (476) 
nan

>  <Peripheral>  (476) 
nan

>  <Num_H_Atoms_ProtBoundConf>  (476) 
nan

>  <Num_Resolved_Atoms>  (476) 
nan

>  <Num_Not_Resolved_Atoms>  (476) 
nan

$$$$
CHEMBL5073098
     RDKit          3D

  0  0  0  0  0  0  0  0  0  0999 V3000
M  V30 BEGIN CTAB
M  V30 COUNTS 59 63 0 0 0
M  V30 BEGIN ATOM
M  V30 1 C 1.819908 -3.061911 6.488129 0
M  V30 2 C 2.247603 -2.016503 5.496619 0
M  V30 3 C 3.126747 -2.244475 4.460594 0
M  V30 4 C 3.447954 -1.219588 3.601471 0
M  V30 5 C 2.916365 0.069801 3.729530 0
M  V30 6 S 3.324296 1.378252 2.635329 0
M  V30 7 O 4.709074 1.111596 2.126414 0
M  V30 8 O 3.334095 2.658547 3.396021 0
M  V30 9 N 2.180669 1.405838 1.314441 0
M  V30 10 C 0.858079 1.645621 1.872036 0
M  V30 11 C -0.178974 1.671160 0.742625 0
M  V30 12 C 0.067713 2.742662 -0.259124 0
M  V30 13 N -0.875865 2.783630 -1.362507 0
M  V30 14 C -0.756659 1.653547 -2.216829 0
M  V30 15 N -0.586148 1.926796 -3.545576 0
M  V30 16 C -0.451747 0.892882 -4.389480 0
M  V30 17 C -0.472857 -0.457267 -4.012095 0
M  V30 18 C -0.648838 -0.664738 -2.650756 0
M  V30 19 C -0.631897 -2.078592 -2.300800 0
M  V30 20 C -1.722167 -2.709464 -1.768037 0
M  V30 21 C -3.067107 -2.322298 -1.382221 0
M  V30 22 C -3.172453 -1.403287 -0.328806 0
M  V30 23 C -4.470966 -1.065192 0.013605 0
M  V30 24 C -5.625709 -1.537181 -0.572288 0
M  V30 25 C -5.493289 -2.432965 -1.598612 0
M  V30 26 C -4.209199 -2.823446 -2.001355 0
M  V30 27 N -1.444789 -4.028341 -1.543928 0
M  V30 28 C -0.099759 -4.180592 -1.973110 0
M  V30 29 S 1.243134 -5.337192 -2.149201 0
M  V30 30 C 2.430886 -4.008374 -2.878151 0
M  V30 31 C 1.554885 -2.912790 -2.848686 0
M  V30 32 N 0.348210 -2.968519 -2.423038 0
M  V30 33 N -0.781499 0.367700 -1.825924 0
M  V30 34 C 2.028695 0.264910 4.792409 0
M  V30 35 C 1.687608 -0.744759 5.669702 0
M  V30 36 H 1.868977 -4.048778 5.969934 0
M  V30 37 H 2.485111 -3.044775 7.375748 0
M  V30 38 H 0.757529 -2.882174 6.793934 0
M  V30 39 H 3.541753 -3.242661 4.356466 0
M  V30 40 H 4.131049 -1.423377 2.807869 0
M  V30 41 H 2.180604 0.407408 0.960450 0
M  V30 42 H 0.604552 0.874313 2.625551 0
M  V30 43 H 0.826860 2.628232 2.375134 0
M  V30 44 H -1.159107 1.829910 1.281482 0
M  V30 45 H -0.212022 0.643956 0.372004 0
M  V30 46 H 1.098700 2.720372 -0.661593 0
M  V30 47 H -0.035125 3.727605 0.280832 0
M  V30 48 H -1.623764 3.438546 -1.684313 0
M  V30 49 H -0.312924 1.108495 -5.461196 0
M  V30 50 H -0.354152 -1.205652 -4.781324 0
M  V30 51 H -2.316285 -0.989920 0.177448 0
M  V30 52 H -4.530840 -0.345080 0.838618 0
M  V30 53 H -6.580518 -1.171666 -0.188831 0
M  V30 54 H -6.378585 -2.826080 -2.082666 0
M  V30 55 H -4.080715 -3.531300 -2.812330 0
M  V30 56 H 3.362642 -4.573662 -3.041398 0
M  V30 57 H 2.199633 -2.150871 -3.254883 0
M  V30 58 H 1.571537 1.238699 4.961139 0
M  V30 59 H 0.987959 -0.551940 6.493073 0
M  V30 END ATOM
M  V30 BEGIN BOND
M  V30 1 1 1 2
M  V30 2 2 2 3
M  V30 3 1 3 4
M  V30 4 2 4 5
M  V30 5 1 5 6
M  V30 6 2 6 7
M  V30 7 2 6 8
M  V30 8 1 6 9
M  V30 9 1 9 10
M  V30 10 1 10 11
M  V30 11 1 11 12
M  V30 12 1 12 13
M  V30 13 1 13 14
M  V30 14 2 14 15
M  V30 15 1 15 16
M  V30 16 2 16 17
M  V30 17 1 17 18
M  V30 18 1 18 19
M  V30 19 2 19 20
M  V30 20 1 20 21
M  V30 21 2 21 22
M  V30 22 1 22 23
M  V30 23 2 23 24
M  V30 24 1 24 25
M  V30 25 2 25 26
M  V30 26 1 20 27
M  V30 27 2 27 28
M  V30 28 1 28 29
M  V30 29 1 29 30
M  V30 30 2 30 31
M  V30 31 1 31 32
M  V30 32 2 18 33
M  V30 33 1 5 34
M  V30 34 2 34 35
M  V30 35 1 35 2
M  V30 36 1 33 14
M  V30 37 1 32 19
M  V30 38 1 26 21
M  V30 39 1 32 28
M  V30 40 1 1 36
M  V30 41 1 1 37
M  V30 42 1 1 38
M  V30 43 1 3 39
M  V30 44 1 4 40
M  V30 45 1 9 41
M  V30 46 1 10 42
M  V30 47 1 10 43
M  V30 48 1 11 44
M  V30 49 1 11 45
M  V30 50 1 12 46
M  V30 51 1 12 47
M  V30 52 1 13 48
M  V30 53 1 16 49
M  V30 54 1 17 50
M  V30 55 1 22 51
M  V30 56 1 23 52
M  V30 57 1 24 53
M  V30 58 1 25 54
M  V30 59 1 26 55
M  V30 60 1 30 56
M  V30 61 1 31 57
M  V30 62 1 34 58
M  V30 63 1 35 59
M  V30 END BOND
M  V30 END CTAB
M  END
>  <Dataset>  (477) 
ChEMBL_Kinases

>  <Ligand_Instance>  (477) 
nan

>  <PDB_ID>  (477) 
nan

>  <Standardized_SMILES>  (477) 
Cc1ccc(S(=O)(=O)NCCCNc2nccc(-c3c(-c4ccccc4)nc4sccn34)n2)cc1

>  <Name>  (477) 
nan

>  <Pocket>  (477) 
nan

>  <ATP_Site>  (477) 
nan

>  <Peripheral>  (477) 
nan

>  <Num_H_Atoms_ProtBoundConf>  (477) 
nan

>  <Num_Resolved_Atoms>  (477) 
nan

>  <Num_Not_Resolved_Atoms>  (477) 
nan

$$$$
CHEMBL3702263
     RDKit          3D

  0  0  0  0  0  0  0  0  0  0999 V3000
M  V30 BEGIN CTAB
M  V30 COUNTS 37 39 0 0 0
M  V30 BEGIN ATOM
M  V30 1 C -1.452680 -1.843033 1.822873 0
M  V30 2 C -0.509308 -2.724417 1.073126 0
M  V30 3 C -0.061408 -3.890890 1.561037 0
M  V30 4 C -0.338120 -4.464661 2.843221 0
M  V30 5 O -1.018055 -4.082298 3.818905 0
M  V30 6 O -0.320161 -5.321503 3.848640 0
M  V30 7 S 1.029271 -4.680690 0.362107 0
M  V30 8 C 0.823024 -3.291120 -0.847276 0
M  V30 9 N 1.356437 -3.087178 -2.076231 0
M  V30 10 C 1.078607 -1.978715 -2.769742 0
M  V30 11 N 0.263418 -1.163585 -2.127125 0
M  V30 12 C -0.254650 -1.380682 -0.915405 0
M  V30 13 N -1.023806 -0.171354 -0.708005 0
M  V30 14 C -0.830004 0.962787 0.170202 0
M  V30 15 C -1.824980 1.407690 1.060636 0
M  V30 16 C -1.602886 2.448704 1.922349 0
M  V30 17 C -0.390610 3.086176 1.935399 0
M  V30 18 N 0.516091 2.647633 1.093318 0
M  V30 19 C 0.391932 1.652868 0.226733 0
M  V30 20 O 1.310435 1.179588 -0.657529 0
M  V30 21 C 2.611754 1.567121 -0.894776 0
M  V30 22 C 3.460511 1.338320 0.331407 0
M  V30 23 F 2.968382 2.066599 1.376847 0
M  V30 24 F 4.783323 1.691464 0.114126 0
M  V30 25 C -0.017071 -2.491759 -0.146585 0
M  V30 26 H -2.203335 -1.398489 1.125488 0
M  V30 27 H -1.926733 -2.435179 2.605520 0
M  V30 28 H -0.911266 -1.001457 2.293911 0
M  V30 29 H 0.367817 -6.028462 4.057809 0
M  V30 30 H 1.598376 -2.021620 -3.707688 0
M  V30 31 H -1.892173 0.031724 -1.218225 0
M  V30 32 H -2.783546 0.901741 1.038270 0
M  V30 33 H -2.454925 2.702895 2.569161 0
M  V30 34 H -0.244712 3.916303 2.639238 0
M  V30 35 H 3.008975 1.008491 -1.779633 0
M  V30 36 H 2.609168 2.656531 -1.185328 0
M  V30 37 H 3.480554 0.234033 0.586193 0
M  V30 END ATOM
M  V30 BEGIN BOND
M  V30 1 1 1 2
M  V30 2 2 2 3
M  V30 3 1 3 4
M  V30 4 2 4 5
M  V30 5 1 4 6
M  V30 6 1 3 7
M  V30 7 1 7 8
M  V30 8 2 8 9
M  V30 9 1 9 10
M  V30 10 2 10 11
M  V30 11 1 11 12
M  V30 12 1 12 13
M  V30 13 1 13 14
M  V30 14 2 14 15
M  V30 15 1 15 16
M  V30 16 2 16 17
M  V30 17 1 17 18
M  V30 18 2 18 19
M  V30 19 1 19 20
M  V30 20 1 20 21
M  V30 21 1 21 22
M  V30 22 1 22 23
M  V30 23 1 22 24
M  V30 24 2 12 25
M  V30 25 1 25 2
M  V30 26 1 25 8
M  V30 27 1 19 14
M  V30 28 1 1 26
M  V30 29 1 1 27
M  V30 30 1 1 28
M  V30 31 1 6 29
M  V30 32 1 10 30
M  V30 33 1 13 31
M  V30 34 1 15 32
M  V30 35 1 16 33
M  V30 36 1 17 34
M  V30 37 1 21 35
M  V30 38 1 21 36
M  V30 39 1 22 37
M  V30 END BOND
M  V30 END CTAB
M  END
>  <Dataset>  (478) 
ChEMBL_Kinases

>  <Ligand_Instance>  (478) 
nan

>  <PDB_ID>  (478) 
nan

>  <Standardized_SMILES>  (478) 
Cc1c(C(=O)O)sc2ncnc(Nc3cccnc3OCC(F)F)c12

>  <Name>  (478) 
nan

>  <Pocket>  (478) 
nan

>  <ATP_Site>  (478) 
nan

>  <Peripheral>  (478) 
nan

>  <Num_H_Atoms_ProtBoundConf>  (478) 
nan

>  <Num_Resolved_Atoms>  (478) 
nan

>  <Num_Not_Resolved_Atoms>  (478) 
nan

$$$$
CHEMBL3793598
     RDKit          3D

  0  0  0  0  0  0  0  0  0  0999 V3000
M  V30 BEGIN CTAB
M  V30 COUNTS 21 22 0 0 0
M  V30 BEGIN ATOM
M  V30 1 C -0.608139 -3.560014 1.049424 0
M  V30 2 S 0.485232 -2.568816 2.068177 0
M  V30 3 O -0.076848 -2.435604 3.433704 0
M  V30 4 O 1.825406 -3.243973 2.093763 0
M  V30 5 C 0.677704 -0.979819 1.362444 0
M  V30 6 N 1.171335 -0.669009 0.141392 0
M  V30 7 C 1.148304 0.685467 -0.015881 0
M  V30 8 C 1.553567 1.433063 -1.095390 0
M  V30 9 Br 2.274351 0.739376 -2.698743 0
M  V30 10 C 1.417308 2.818555 -0.988574 0
M  V30 11 Br 1.916196 4.044323 -2.365219 0
M  V30 12 C 0.891963 3.396919 0.168643 0
M  V30 13 Br 0.692770 5.293948 0.344892 0
M  V30 14 C 0.496173 2.610442 1.231737 0
M  V30 15 Br -0.231743 3.360495 2.843090 0
M  V30 16 C 0.627151 1.240804 1.134980 0
M  V30 17 N 0.354441 0.202356 1.945211 0
M  V30 18 H -1.208815 -2.894844 0.400332 0
M  V30 19 H -1.269327 -4.159912 1.729118 0
M  V30 20 H -0.034220 -4.290786 0.477132 0
M  V30 21 H -0.054970 0.262195 2.908326 0
M  V30 END ATOM
M  V30 BEGIN BOND
M  V30 1 1 1 2
M  V30 2 2 2 3
M  V30 3 2 2 4
M  V30 4 1 2 5
M  V30 5 2 5 6
M  V30 6 1 6 7
M  V30 7 2 7 8
M  V30 8 1 8 9
M  V30 9 1 8 10
M  V30 10 1 10 11
M  V30 11 2 10 12
M  V30 12 1 12 13
M  V30 13 1 12 14
M  V30 14 1 14 15
M  V30 15 2 14 16
M  V30 16 1 16 17
M  V30 17 1 17 5
M  V30 18 1 16 7
M  V30 19 1 1 18
M  V30 20 1 1 19
M  V30 21 1 1 20
M  V30 22 1 17 21
M  V30 END BOND
M  V30 END CTAB
M  END
>  <Dataset>  (479) 
ChEMBL_Kinases

>  <Ligand_Instance>  (479) 
nan

>  <PDB_ID>  (479) 
nan

>  <Standardized_SMILES>  (479) 
CS(=O)(=O)c1nc2c(Br)c(Br)c(Br)c(Br)c2[nH]1

>  <Name>  (479) 
nan

>  <Pocket>  (479) 
nan

>  <ATP_Site>  (479) 
nan

>  <Peripheral>  (479) 
nan

>  <Num_H_Atoms_ProtBoundConf>  (479) 
nan

>  <Num_Resolved_Atoms>  (479) 
nan

>  <Num_Not_Resolved_Atoms>  (479) 
nan

$$$$
CHEMBL3793590
     RDKit          3D

  0  0  0  0  0  0  0  0  0  0999 V3000
M  V30 BEGIN CTAB
M  V30 COUNTS 32 34 0 0 0
M  V30 BEGIN ATOM
M  V30 1 C -3.614731 -3.925187 1.219520 0
M  V30 2 C -2.145141 -3.848681 1.009811 0
M  V30 3 C -1.258203 -4.772189 1.524737 0
M  V30 4 C 0.103432 -4.687708 1.321435 0
M  V30 5 C 0.640739 -3.643338 0.572363 0
M  V30 6 C -0.261623 -2.722170 0.060655 0
M  V30 7 N 0.245282 -1.621381 -0.722448 0
M  V30 8 C 0.534577 -0.523730 0.115435 0
M  V30 9 O 0.283511 -0.760819 1.346638 0
M  V30 10 C 1.063051 0.750460 -0.354608 0
M  V30 11 N 1.376313 1.149894 -1.607080 0
M  V30 12 N 1.828598 2.395161 -1.585915 0
M  V30 13 C 1.815996 2.829068 -0.304218 0
M  V30 14 C 2.164757 4.011464 0.319978 0
M  V30 15 C 2.055508 4.211460 1.685182 0
M  V30 16 C 1.571927 3.183471 2.492906 0
M  V30 17 C 1.224299 2.000931 1.859841 0
M  V30 18 C 1.333910 1.802251 0.495516 0
M  V30 19 C -1.626417 -2.803249 0.262047 0
M  V30 20 H -3.909989 -3.071947 1.857180 0
M  V30 21 H -4.179227 -3.778932 0.263721 0
M  V30 22 H -3.826099 -4.895314 1.698718 0
M  V30 23 H -1.690618 -5.579277 2.105482 0
M  V30 24 H 0.774022 -5.424714 1.736402 0
M  V30 25 H 1.699787 -3.528852 0.381968 0
M  V30 26 H 0.421231 -1.518718 -1.759058 0
M  V30 27 H 2.156763 3.000433 -2.386693 0
M  V30 28 H 2.549985 4.844859 -0.283844 0
M  V30 29 H 2.326656 5.134961 2.182018 0
M  V30 30 H 1.466044 3.284204 3.561300 0
M  V30 31 H 0.853258 1.219545 2.499782 0
M  V30 32 H -2.279712 -2.056256 -0.161399 0
M  V30 END ATOM
M  V30 BEGIN BOND
M  V30 1 1 1 2
M  V30 2 2 2 3
M  V30 3 1 3 4
M  V30 4 2 4 5
M  V30 5 1 5 6
M  V30 6 1 6 7
M  V30 7 1 7 8
M  V30 8 2 8 9
M  V30 9 1 8 10
M  V30 10 2 10 11
M  V30 11 1 11 12
M  V30 12 1 12 13
M  V30 13 2 13 14
M  V30 14 1 14 15
M  V30 15 2 15 16
M  V30 16 1 16 17
M  V30 17 2 17 18
M  V30 18 2 6 19
M  V30 19 1 19 2
M  V30 20 1 18 10
M  V30 21 1 18 13
M  V30 22 1 1 20
M  V30 23 1 1 21
M  V30 24 1 1 22
M  V30 25 1 3 23
M  V30 26 1 4 24
M  V30 27 1 5 25
M  V30 28 1 7 26
M  V30 29 1 12 27
M  V30 30 1 14 28
M  V30 31 1 15 29
M  V30 32 1 16 30
M  V30 33 1 17 31
M  V30 34 1 19 32
M  V30 END BOND
M  V30 END CTAB
M  END
>  <Dataset>  (480) 
ChEMBL_Kinases

>  <Ligand_Instance>  (480) 
nan

>  <PDB_ID>  (480) 
nan

>  <Standardized_SMILES>  (480) 
Cc1cccc(NC(=O)c2n[nH]c3ccccc23)c1

>  <Name>  (480) 
nan

>  <Pocket>  (480) 
nan

>  <ATP_Site>  (480) 
nan

>  <Peripheral>  (480) 
nan

>  <Num_H_Atoms_ProtBoundConf>  (480) 
nan

>  <Num_Resolved_Atoms>  (480) 
nan

>  <Num_Not_Resolved_Atoms>  (480) 
nan

$$$$
CHEMBL3793538
     RDKit          3D

  0  0  0  0  0  0  0  0  0  0999 V3000
M  V30 BEGIN CTAB
M  V30 COUNTS 42 44 0 0 0
M  V30 BEGIN ATOM
M  V30 1 N -0.136210 -4.652652 2.552017 0
M  V30 2 C -0.073590 -4.996984 1.151028 0
M  V30 3 C 0.603557 -3.915988 0.338655 0
M  V30 4 C -0.182806 -2.644568 0.493154 0
M  V30 5 C 0.442540 -1.523865 -0.295342 0
M  V30 6 O 1.519288 -1.638899 -0.948575 0
M  V30 7 N -0.291498 -0.332398 -0.233490 0
M  V30 8 C 0.139426 0.847027 -0.917119 0
M  V30 9 C -0.165143 1.252339 -2.201365 0
M  V30 10 C 0.361001 2.438650 -2.674014 0
M  V30 11 C 1.182763 3.207435 -1.865739 0
M  V30 12 C 1.712967 4.393506 -2.328601 0
M  V30 13 N 2.528656 5.205362 -1.595819 0
M  V30 14 C 2.818572 4.788285 -0.328763 0
M  V30 15 C 2.326811 3.613249 0.207475 0
M  V30 16 C 1.504196 2.825862 -0.576265 0
M  V30 17 C 0.971762 1.637008 -0.114573 0
M  V30 18 C -0.288894 -2.267792 1.925587 0
M  V30 19 C -1.525148 -2.206770 2.541688 0
M  V30 20 C -1.639644 -1.859663 3.866446 0
M  V30 21 C -0.493927 -1.564935 4.599637 0
M  V30 22 C 0.775862 -1.611631 4.026159 0
M  V30 23 C 0.812542 -1.967115 2.694822 0
M  V30 24 H -0.948559 -5.119880 3.020759 0
M  V30 25 H 0.762701 -4.844823 3.049814 0
M  V30 26 H -1.121271 -5.109826 0.798974 0
M  V30 27 H 0.503960 -5.951897 1.058250 0
M  V30 28 H 0.612982 -4.250760 -0.702410 0
M  V30 29 H 1.658938 -3.804490 0.646400 0
M  V30 30 H -1.198675 -2.834400 0.105965 0
M  V30 31 H -1.184258 -0.182939 0.289491 0
M  V30 32 H -0.804191 0.583213 -2.728258 0
M  V30 33 H 0.111180 2.733202 -3.673326 0
M  V30 34 H 1.489945 4.743239 -3.344525 0
M  V30 35 H 3.471567 5.451664 0.238669 0
M  V30 36 H 2.575146 3.308700 1.217609 0
M  V30 37 H 1.262906 1.389661 0.913188 0
M  V30 38 H -2.451728 -2.424852 2.024004 0
M  V30 39 H -2.609971 -1.806422 4.369862 0
M  V30 40 H -0.622345 -1.294276 5.644977 0
M  V30 41 H 1.666841 -1.382903 4.594598 0
M  V30 42 H 1.786644 -2.020218 2.190670 0
M  V30 END ATOM
M  V30 BEGIN BOND
M  V30 1 1 1 2
M  V30 2 1 2 3
M  V30 3 1 3 4
M  V30 4 1 4 5
M  V30 5 2 5 6
M  V30 6 1 5 7
M  V30 7 1 7 8
M  V30 8 2 8 9
M  V30 9 1 9 10
M  V30 10 2 10 11
M  V30 11 1 11 12
M  V30 12 2 12 13
M  V30 13 1 13 14
M  V30 14 2 14 15
M  V30 15 1 15 16
M  V30 16 2 16 17
M  V30 17 1 4 18
M  V30 18 2 18 19
M  V30 19 1 19 20
M  V30 20 2 20 21
M  V30 21 1 21 22
M  V30 22 2 22 23
M  V30 23 1 17 8
M  V30 24 1 23 18
M  V30 25 1 16 11
M  V30 26 1 1 24
M  V30 27 1 1 25
M  V30 28 1 2 26
M  V30 29 1 2 27
M  V30 30 1 3 28
M  V30 31 1 3 29
M  V30 32 1 4 30
M  V30 33 1 7 31
M  V30 34 1 9 32
M  V30 35 1 10 33
M  V30 36 1 12 34
M  V30 37 1 14 35
M  V30 38 1 15 36
M  V30 39 1 17 37
M  V30 40 1 19 38
M  V30 41 1 20 39
M  V30 42 1 21 40
M  V30 43 1 22 41
M  V30 44 1 23 42
M  V30 END BOND
M  V30 END CTAB
M  END
>  <Dataset>  (481) 
ChEMBL_Kinases

>  <Ligand_Instance>  (481) 
nan

>  <PDB_ID>  (481) 
nan

>  <Standardized_SMILES>  (481) 
NCCC(C(=O)Nc1ccc2cnccc2c1)c1ccccc1

>  <Name>  (481) 
nan

>  <Pocket>  (481) 
nan

>  <ATP_Site>  (481) 
nan

>  <Peripheral>  (481) 
nan

>  <Num_H_Atoms_ProtBoundConf>  (481) 
nan

>  <Num_Resolved_Atoms>  (481) 
nan

>  <Num_Not_Resolved_Atoms>  (481) 
nan

$$$$
CHEMBL3793516
     RDKit          3D

  0  0  0  0  0  0  0  0  0  0999 V3000
M  V30 BEGIN CTAB
M  V30 COUNTS 43 45 0 0 0
M  V30 BEGIN ATOM
M  V30 1 C 0.581934 -6.695887 0.176659 0
M  V30 2 O 1.818810 -6.007448 0.366759 0
M  V30 3 C 1.872880 -4.654287 0.061493 0
M  V30 4 C 3.081532 -4.019509 0.256237 0
M  V30 5 C 3.165390 -2.653938 -0.043297 0
M  V30 6 C 2.102692 -1.889651 -0.527767 0
M  V30 7 C 2.345656 -0.454946 -0.808887 0
M  V30 8 C 1.807195 -0.135416 -2.160175 0
M  V30 9 N 1.991136 1.248770 -2.541176 0
M  V30 10 C 1.868910 0.449916 0.266580 0
M  V30 11 O 2.706627 1.194854 0.886812 0
M  V30 12 N 0.536374 0.583375 0.696572 0
M  V30 13 C -0.067544 1.386364 1.691220 0
M  V30 14 C 0.559879 2.283149 2.522222 0
M  V30 15 C -0.055208 3.053105 3.483744 0
M  V30 16 C -1.416746 2.914995 3.627705 0
M  V30 17 C -2.075723 3.663061 4.575104 0
M  V30 18 N -3.417077 3.534862 4.725414 0
M  V30 19 C -4.090351 2.664489 3.932711 0
M  V30 20 C -3.455768 1.898318 2.971058 0
M  V30 21 C -2.091517 2.033500 2.823347 0
M  V30 22 C -1.423640 1.292741 1.881922 0
M  V30 23 C 0.930243 -2.592258 -0.696428 0
M  V30 24 C 0.798130 -3.934478 -0.416055 0
M  V30 25 H 0.580522 -7.674907 0.699581 0
M  V30 26 H -0.210092 -6.076576 0.639519 0
M  V30 27 H 0.331045 -6.822321 -0.902534 0
M  V30 28 H 3.944389 -4.552811 0.628951 0
M  V30 29 H 4.155751 -2.216888 0.136054 0
M  V30 30 H 3.473805 -0.356100 -0.810958 0
M  V30 31 H 0.759310 -0.490566 -2.250344 0
M  V30 32 H 2.386502 -0.733876 -2.893587 0
M  V30 33 H 2.215179 1.325174 -3.576164 0
M  V30 34 H 1.035918 1.706421 -2.455785 0
M  V30 35 H -0.084195 -0.048591 0.144603 0
M  V30 36 H 1.619598 2.422883 2.444896 0
M  V30 37 H 0.486458 3.736263 4.103093 0
M  V30 38 H -1.529074 4.354383 5.202185 0
M  V30 39 H -5.172094 2.547965 4.039788 0
M  V30 40 H -4.011015 1.206250 2.345030 0
M  V30 41 H -2.021733 0.616799 1.282466 0
M  V30 42 H 0.086709 -2.056892 -1.071477 0
M  V30 43 H -0.145833 -4.429670 -0.568299 0
M  V30 END ATOM
M  V30 BEGIN BOND
M  V30 1 1 1 2
M  V30 2 1 2 3
M  V30 3 2 3 4
M  V30 4 1 4 5
M  V30 5 2 5 6
M  V30 6 1 6 7
M  V30 7 1 7 8
M  V30 8 1 8 9
M  V30 9 1 7 10
M  V30 10 2 10 11
M  V30 11 1 10 12
M  V30 12 1 12 13
M  V30 13 2 13 14
M  V30 14 1 14 15
M  V30 15 2 15 16
M  V30 16 1 16 17
M  V30 17 2 17 18
M  V30 18 1 18 19
M  V30 19 2 19 20
M  V30 20 1 20 21
M  V30 21 2 21 22
M  V30 22 1 6 23
M  V30 23 2 23 24
M  V30 24 1 24 3
M  V30 25 1 22 13
M  V30 26 1 21 16
M  V30 27 1 1 25
M  V30 28 1 1 26
M  V30 29 1 1 27
M  V30 30 1 4 28
M  V30 31 1 5 29
M  V30 32 1 7 30
M  V30 33 1 8 31
M  V30 34 1 8 32
M  V30 35 1 9 33
M  V30 36 1 9 34
M  V30 37 1 12 35
M  V30 38 1 14 36
M  V30 39 1 15 37
M  V30 40 1 17 38
M  V30 41 1 19 39
M  V30 42 1 20 40
M  V30 43 1 22 41
M  V30 44 1 23 42
M  V30 45 1 24 43
M  V30 END BOND
M  V30 END CTAB
M  END
>  <Dataset>  (482) 
ChEMBL_Kinases

>  <Ligand_Instance>  (482) 
nan

>  <PDB_ID>  (482) 
nan

>  <Standardized_SMILES>  (482) 
COc1ccc(C(CN)C(=O)Nc2ccc3cnccc3c2)cc1

>  <Name>  (482) 
nan

>  <Pocket>  (482) 
nan

>  <ATP_Site>  (482) 
nan

>  <Peripheral>  (482) 
nan

>  <Num_H_Atoms_ProtBoundConf>  (482) 
nan

>  <Num_Resolved_Atoms>  (482) 
nan

>  <Num_Not_Resolved_Atoms>  (482) 
nan

$$$$
CHEMBL3793505
     RDKit          3D

  0  0  0  0  0  0  0  0  0  0999 V3000
M  V30 BEGIN CTAB
M  V30 COUNTS 39 41 0 0 0
M  V30 BEGIN ATOM
M  V30 1 N 0.483068 -4.456514 3.136443 0
M  V30 2 C 0.948516 -3.812500 1.896979 0
M  V30 3 C 0.923749 -2.346714 2.106277 0
M  V30 4 C 1.374928 -1.543329 0.921465 0
M  V30 5 O 0.229491 -0.951151 1.058582 0
M  V30 6 N 2.447481 -1.327828 -0.047042 0
M  V30 7 C 1.780661 -0.256111 -0.760666 0
M  V30 8 C 0.961742 -0.580813 -1.821172 0
M  V30 9 C 0.370118 0.475793 -2.476760 0
M  V30 10 C 0.654204 1.721565 -2.011673 0
M  V30 11 C 0.075159 2.809570 -2.649909 0
M  V30 12 N 0.245618 4.085406 -2.326444 0
M  V30 13 C 1.051054 4.385416 -1.284472 0
M  V30 14 C 1.692186 3.373480 -0.561362 0
M  V30 15 C 1.467264 2.073502 -0.955784 0
M  V30 16 C 2.071926 1.010059 -0.284120 0
M  V30 17 C -0.441666 -1.851090 2.409538 0
M  V30 18 C -1.600245 -2.085715 1.656257 0
M  V30 19 C -2.820880 -1.579264 2.025845 0
M  V30 20 C -2.930890 -0.822572 3.156519 0
M  V30 21 C -1.845414 -0.540483 3.958340 0
M  V30 22 Cl -1.997944 0.422918 5.395223 0
M  V30 23 C -0.652277 -1.066116 3.549960 0
M  V30 24 H -0.285441 -5.139029 2.913965 0
M  V30 25 H 0.042432 -3.753406 3.785979 0
M  V30 26 H 0.373461 -4.180694 1.051602 0
M  V30 27 H 1.999709 -4.159112 1.791417 0
M  V30 28 H 1.599676 -2.082672 2.948588 0
M  V30 29 H 2.920659 -2.088373 0.459403 0
M  V30 30 H 0.808624 -1.612448 -2.102794 0
M  V30 31 H -0.285186 0.307528 -3.317847 0
M  V30 32 H -0.580651 2.643871 -3.491445 0
M  V30 33 H 1.249849 5.402453 -0.947371 0
M  V30 34 H 2.349155 3.506368 0.278815 0
M  V30 35 H 2.717262 1.175874 0.544671 0
M  V30 36 H -1.461061 -2.682961 0.781936 0
M  V30 37 H -3.660965 -1.825392 1.362311 0
M  V30 38 H -3.898134 -0.451948 3.402148 0
M  V30 39 H 0.209725 -0.838369 4.192711 0
M  V30 END ATOM
M  V30 BEGIN BOND
M  V30 1 1 1 2
M  V30 2 1 2 3
M  V30 3 1 3 4
M  V30 4 2 4 5
M  V30 5 1 4 6
M  V30 6 1 6 7
M  V30 7 2 7 8
M  V30 8 1 8 9
M  V30 9 2 9 10
M  V30 10 1 10 11
M  V30 11 2 11 12
M  V30 12 1 12 13
M  V30 13 2 13 14
M  V30 14 1 14 15
M  V30 15 2 15 16
M  V30 16 1 3 17
M  V30 17 2 17 18
M  V30 18 1 18 19
M  V30 19 2 19 20
M  V30 20 1 20 21
M  V30 21 1 21 22
M  V30 22 2 21 23
M  V30 23 1 16 7
M  V30 24 1 23 17
M  V30 25 1 15 10
M  V30 26 1 1 24
M  V30 27 1 1 25
M  V30 28 1 2 26
M  V30 29 1 2 27
M  V30 30 1 3 28
M  V30 31 1 6 29
M  V30 32 1 8 30
M  V30 33 1 9 31
M  V30 34 1 11 32
M  V30 35 1 13 33
M  V30 36 1 14 34
M  V30 37 1 16 35
M  V30 38 1 18 36
M  V30 39 1 19 37
M  V30 40 1 20 38
M  V30 41 1 23 39
M  V30 END BOND
M  V30 END CTAB
M  END
>  <Dataset>  (483) 
ChEMBL_Kinases

>  <Ligand_Instance>  (483) 
nan

>  <PDB_ID>  (483) 
nan

>  <Standardized_SMILES>  (483) 
NCC(C(=O)Nc1ccc2cnccc2c1)c1cccc(Cl)c1

>  <Name>  (483) 
nan

>  <Pocket>  (483) 
nan

>  <ATP_Site>  (483) 
nan

>  <Peripheral>  (483) 
nan

>  <Num_H_Atoms_ProtBoundConf>  (483) 
nan

>  <Num_Resolved_Atoms>  (483) 
nan

>  <Num_Not_Resolved_Atoms>  (483) 
nan

$$$$
CHEMBL3793497
     RDKit          3D

  0  0  0  0  0  0  0  0  0  0999 V3000
M  V30 BEGIN CTAB
M  V30 COUNTS 45 48 0 0 0
M  V30 BEGIN ATOM
M  V30 1 N 1.287948 -3.495041 2.870266 0
M  V30 2 C 0.313049 -3.445913 1.769378 0
M  V30 3 C -0.315006 -2.091995 1.833056 0
M  V30 4 C 0.710229 -1.000674 1.670316 0
M  V30 5 O 1.023707 -0.221130 2.639181 0
M  V30 6 N 1.436549 -0.687061 0.506543 0
M  V30 7 C 2.367399 0.389921 0.553053 0
M  V30 8 C 1.936220 1.676944 0.236433 0
M  V30 9 C 2.807263 2.751852 0.268872 0
M  V30 10 C 4.130187 2.588325 0.614896 0
M  V30 11 C 5.063270 3.601296 0.672530 0
M  V30 12 N 6.346780 3.412502 1.013225 0
M  V30 13 C 6.773304 2.173603 1.320771 0
M  V30 14 C 5.891200 1.096441 1.286036 0
M  V30 15 C 4.552429 1.295394 0.930336 0
M  V30 16 C 3.705429 0.202589 0.906652 0
M  V30 17 C -1.474946 -1.911991 0.925905 0
M  V30 18 C -1.497561 -2.200157 -0.423149 0
M  V30 19 C -2.592263 -2.014826 -1.240811 0
M  V30 20 C -3.757632 -1.508899 -0.701998 0
M  V30 21 C -4.868228 -1.313569 -1.497884 0
M  V30 22 C -6.016430 -0.797193 -0.884961 0
M  V30 23 C -6.086501 -0.476758 0.471716 0
M  V30 24 C -4.962276 -0.681187 1.246760 0
M  V30 25 C -3.832449 -1.190199 0.639533 0
M  V30 26 C -2.696449 -1.403552 1.391451 0
M  V30 27 H 2.155156 -3.971659 2.566103 0
M  V30 28 H 0.867141 -3.900994 3.730564 0
M  V30 29 H -0.415109 -4.245114 2.012584 0
M  V30 30 H 0.752144 -3.696749 0.804714 0
M  V30 31 H -0.719186 -1.951333 2.872228 0
M  V30 32 H 1.266291 -1.252975 -0.337032 0
M  V30 33 H 0.899205 1.873122 -0.046043 0
M  V30 34 H 2.504961 3.772461 0.027346 0
M  V30 35 H 4.734072 4.608645 0.426710 0
M  V30 36 H 7.828939 2.051001 1.595581 0
M  V30 37 H 6.287871 0.119633 1.543078 0
M  V30 38 H 4.062161 -0.785003 1.155847 0
M  V30 39 H -0.604028 -2.601556 -0.871960 0
M  V30 40 H -2.530492 -2.268147 -2.303614 0
M  V30 41 H -4.876873 -1.542186 -2.554934 0
M  V30 42 H -6.882767 -0.654436 -1.549695 0
M  V30 43 H -7.014686 -0.080145 0.872155 0
M  V30 44 H -4.979489 -0.443102 2.307737 0
M  V30 45 H -2.751700 -1.153193 2.450671 0
M  V30 END ATOM
M  V30 BEGIN BOND
M  V30 1 1 1 2
M  V30 2 1 2 3
M  V30 3 1 3 4
M  V30 4 2 4 5
M  V30 5 1 4 6
M  V30 6 1 6 7
M  V30 7 2 7 8
M  V30 8 1 8 9
M  V30 9 2 9 10
M  V30 10 1 10 11
M  V30 11 2 11 12
M  V30 12 1 12 13
M  V30 13 2 13 14
M  V30 14 1 14 15
M  V30 15 2 15 16
M  V30 16 1 3 17
M  V30 17 2 17 18
M  V30 18 1 18 19
M  V30 19 2 19 20
M  V30 20 1 20 21
M  V30 21 2 21 22
M  V30 22 1 22 23
M  V30 23 2 23 24
M  V30 24 1 24 25
M  V30 25 2 25 26
M  V30 26 1 16 7
M  V30 27 1 26 17
M  V30 28 1 15 10
M  V30 29 1 25 20
M  V30 30 1 1 27
M  V30 31 1 1 28
M  V30 32 1 2 29
M  V30 33 1 2 30
M  V30 34 1 3 31
M  V30 35 1 6 32
M  V30 36 1 8 33
M  V30 37 1 9 34
M  V30 38 1 11 35
M  V30 39 1 13 36
M  V30 40 1 14 37
M  V30 41 1 16 38
M  V30 42 1 18 39
M  V30 43 1 19 40
M  V30 44 1 21 41
M  V30 45 1 22 42
M  V30 46 1 23 43
M  V30 47 1 24 44
M  V30 48 1 26 45
M  V30 END BOND
M  V30 END CTAB
M  END
>  <Dataset>  (484) 
ChEMBL_Kinases

>  <Ligand_Instance>  (484) 
nan

>  <PDB_ID>  (484) 
nan

>  <Standardized_SMILES>  (484) 
NCC(C(=O)Nc1ccc2cnccc2c1)c1ccc2ccccc2c1

>  <Name>  (484) 
nan

>  <Pocket>  (484) 
nan

>  <ATP_Site>  (484) 
nan

>  <Peripheral>  (484) 
nan

>  <Num_H_Atoms_ProtBoundConf>  (484) 
nan

>  <Num_Resolved_Atoms>  (484) 
nan

>  <Num_Not_Resolved_Atoms>  (484) 
nan

$$$$
CHEMBL3793489
     RDKit          3D

  0  0  0  0  0  0  0  0  0  0999 V3000
M  V30 BEGIN CTAB
M  V30 COUNTS 42 44 0 0 0
M  V30 BEGIN ATOM
M  V30 1 C 1.084711 -3.607885 -2.740816 0
M  V30 2 C 2.011288 -3.366242 -1.590001 0
M  V30 3 C 2.946834 -4.345620 -1.293189 0
M  V30 4 C 3.821502 -4.193325 -0.242042 0
M  V30 5 C 3.742799 -3.041819 0.507477 0
M  V30 6 C 2.794978 -2.109717 0.162875 0
M  V30 7 C 1.881476 -2.165594 -0.860480 0
M  V30 8 C 0.870021 -1.196549 -1.262995 0
M  V30 9 C 1.448823 -0.092723 -2.132351 0
M  V30 10 N 2.472779 0.647939 -1.471796 0
M  V30 11 C 0.035445 -0.658648 -0.169223 0
M  V30 12 O -1.179808 -1.037357 -0.093661 0
M  V30 13 N 0.392093 0.250278 0.845049 0
M  V30 14 C -0.308502 0.820170 1.927461 0
M  V30 15 C 0.323040 1.704485 2.777424 0
M  V30 16 C -0.302433 2.294307 3.849759 0
M  V30 17 C -1.622281 2.007647 4.112699 0
M  V30 18 C -2.216864 2.612300 5.189494 0
M  V30 19 N -3.522864 2.323990 5.443603 0
M  V30 20 C -4.210773 1.471516 4.662447 0
M  V30 21 C -3.639594 0.845640 3.569236 0
M  V30 22 C -2.317154 1.133105 3.306079 0
M  V30 23 C -1.623322 0.582171 2.251528 0
M  V30 24 H 1.120448 -2.781768 -3.463075 0
M  V30 25 H 1.411034 -4.519273 -3.256738 0
M  V30 26 H 0.037143 -3.717216 -2.382648 0
M  V30 27 H 2.984578 -5.241499 -1.901554 0
M  V30 28 H 4.513059 -4.983218 -0.070401 0
M  V30 29 H 4.416602 -2.914358 1.324819 0
M  V30 30 H 2.796897 -1.239497 0.793911 0
M  V30 31 H 0.158013 -1.730632 -1.962442 0
M  V30 32 H 0.620885 0.539227 -2.520281 0
M  V30 33 H 1.880100 -0.581031 -3.026611 0
M  V30 34 H 2.138227 1.619450 -1.280583 0
M  V30 35 H 3.282992 0.755102 -2.119339 0
M  V30 36 H 1.396269 0.570477 0.741631 0
M  V30 37 H 1.375456 1.972495 2.619282 0
M  V30 38 H 0.241989 2.976717 4.478104 0
M  V30 39 H -1.734095 3.305465 5.861646 0
M  V30 40 H -5.261906 1.237252 4.864060 0
M  V30 41 H -4.180293 0.148604 2.919992 0
M  V30 42 H -2.214698 -0.086910 1.663362 0
M  V30 END ATOM
M  V30 BEGIN BOND
M  V30 1 1 1 2
M  V30 2 2 2 3
M  V30 3 1 3 4
M  V30 4 2 4 5
M  V30 5 1 5 6
M  V30 6 2 6 7
M  V30 7 1 7 8
M  V30 8 1 8 9
M  V30 9 1 9 10
M  V30 10 1 8 11
M  V30 11 2 11 12
M  V30 12 1 11 13
M  V30 13 1 13 14
M  V30 14 2 14 15
M  V30 15 1 15 16
M  V30 16 2 16 17
M  V30 17 1 17 18
M  V30 18 2 18 19
M  V30 19 1 19 20
M  V30 20 2 20 21
M  V30 21 1 21 22
M  V30 22 2 22 23
M  V30 23 1 7 2
M  V30 24 1 23 14
M  V30 25 1 22 17
M  V30 26 1 1 24
M  V30 27 1 1 25
M  V30 28 1 1 26
M  V30 29 1 3 27
M  V30 30 1 4 28
M  V30 31 1 5 29
M  V30 32 1 6 30
M  V30 33 1 8 31
M  V30 34 1 9 32
M  V30 35 1 9 33
M  V30 36 1 10 34
M  V30 37 1 10 35
M  V30 38 1 13 36
M  V30 39 1 15 37
M  V30 40 1 16 38
M  V30 41 1 18 39
M  V30 42 1 20 40
M  V30 43 1 21 41
M  V30 44 1 23 42
M  V30 END BOND
M  V30 END CTAB
M  END
>  <Dataset>  (485) 
ChEMBL_Kinases

>  <Ligand_Instance>  (485) 
nan

>  <PDB_ID>  (485) 
nan

>  <Standardized_SMILES>  (485) 
Cc1ccccc1C(CN)C(=O)Nc1ccc2cnccc2c1

>  <Name>  (485) 
nan

>  <Pocket>  (485) 
nan

>  <ATP_Site>  (485) 
nan

>  <Peripheral>  (485) 
nan

>  <Num_H_Atoms_ProtBoundConf>  (485) 
nan

>  <Num_Resolved_Atoms>  (485) 
nan

>  <Num_Not_Resolved_Atoms>  (485) 
nan

$$$$
CHEMBL5073101
     RDKit          3D

  0  0  0  0  0  0  0  0  0  0999 V3000
M  V30 BEGIN CTAB
M  V30 COUNTS 98 104 0 0 0
M  V30 BEGIN ATOM
M  V30 1 C 3.807666 -1.737125 0.364431 0
M  V30 2 C 4.511234 -2.440482 1.515421 0
M  V30 3 C 5.251237 -1.473311 2.385183 0
M  V30 4 C 6.628257 -1.373657 2.246115 0
M  V30 5 C 7.371474 -0.482606 3.019324 0
M  V30 6 C 6.735028 0.314616 3.937904 0
M  V30 7 C 5.358533 0.185205 4.046782 0
M  V30 8 C 4.655635 1.054426 5.055791 0
M  V30 9 C 3.939462 2.196941 4.355886 0
M  V30 10 C 4.604401 -0.679543 3.302098 0
M  V30 11 N 3.202133 -0.801837 3.411842 0
M  V30 12 C 2.246738 -1.557005 4.090391 0
M  V30 13 O 2.832565 -2.394404 4.834523 0
M  V30 14 C 0.833045 -1.235688 3.813207 0
M  V30 15 C 0.358177 -0.177001 3.036291 0
M  V30 16 C -0.993019 -0.376953 3.133146 0
M  V30 17 N -1.367642 -1.440214 3.883021 0
M  V30 18 C -2.783519 -1.670387 3.995350 0
M  V30 19 N -3.511416 -1.585860 2.883482 0
M  V30 20 C -4.817289 -1.731801 2.730570 0
M  V30 21 N -5.309303 -1.599570 1.410079 0
M  V30 22 C -4.603424 -1.645936 0.179849 0
M  V30 23 C -3.302904 -2.110603 0.108336 0
M  V30 24 C -2.555908 -2.237406 -1.015997 0
M  V30 25 C -3.156536 -1.859448 -2.231866 0
M  V30 26 N -2.516369 -1.954395 -3.475675 0
M  V30 27 C -1.362644 -2.766724 -3.760097 0
M  V30 28 C -0.292429 -1.887458 -4.367617 0
M  V30 29 C -0.717242 -1.371853 -5.733246 0
M  V30 30 C -0.253180 -0.003163 -6.011442 0
M  V30 31 O 0.446975 0.135914 -7.067508 0
M  V30 32 N -0.280593 1.308923 -5.544194 0
M  V30 33 C 0.405849 2.306059 -6.342150 0
M  V30 34 C 1.583809 2.731191 -5.495994 0
M  V30 35 N 1.201256 3.338656 -4.269485 0
M  V30 36 C 2.290873 3.168139 -3.321848 0
M  V30 37 C -0.002271 2.914421 -3.663514 0
M  V30 38 C -0.857614 1.941944 -4.380201 0
M  V30 39 C -2.201434 -1.528583 -5.884855 0
M  V30 40 C -2.953529 -1.208695 -4.637270 0
M  V30 41 C -4.440114 -1.404363 -2.124113 0
M  V30 42 C -5.227411 -1.261412 -1.030681 0
M  V30 43 O -6.502730 -0.827506 -0.809259 0
M  V30 44 C -7.359678 -0.379928 -1.838772 0
M  V30 45 N -5.522473 -1.999500 3.829518 0
M  V30 46 C -4.910601 -2.114571 5.035551 0
M  V30 47 N -5.296442 -2.369987 6.301973 0
M  V30 48 C -4.224413 -2.365649 7.137980 0
M  V30 49 C -3.054872 -2.095887 6.416733 0
M  V30 50 C -3.529780 -1.951494 5.134198 0
M  V30 51 C -0.214404 -1.970876 4.304503 0
M  V30 52 H 2.743188 -1.590921 0.648559 0
M  V30 53 H 4.326292 -0.793976 0.108146 0
M  V30 54 H 3.824953 -2.407415 -0.526708 0
M  V30 55 H 3.773207 -2.938393 2.168455 0
M  V30 56 H 5.219801 -3.211426 1.117107 0
M  V30 57 H 7.108864 -2.022156 1.494763 0
M  V30 58 H 8.424160 -0.524199 2.792261 0
M  V30 59 H 7.341725 1.015360 4.533112 0
M  V30 60 H 5.384724 1.506981 5.742299 0
M  V30 61 H 3.956786 0.432061 5.639478 0
M  V30 62 H 2.874751 2.174419 4.664819 0
M  V30 63 H 4.034888 2.159647 3.250939 0
M  V30 64 H 4.361718 3.175176 4.649933 0
M  V30 65 H 2.941143 -0.048355 2.746191 0
M  V30 66 H 0.987213 0.534770 2.544949 0
M  V30 67 H -1.599632 0.363872 2.571982 0
M  V30 68 H -6.328300 -1.453787 1.442582 0
M  V30 69 H -2.709851 -2.449606 0.960603 0
M  V30 70 H -1.543309 -2.591348 -1.133413 0
M  V30 71 H -0.981622 -3.352488 -2.931909 0
M  V30 72 H -1.698727 -3.516297 -4.539005 0
M  V30 73 H 0.636045 -2.450580 -4.497619 0
M  V30 74 H -0.045000 -1.046750 -3.666718 0
M  V30 75 H -0.268164 -2.105267 -6.463053 0
M  V30 76 H 0.803587 1.954604 -7.291034 0
M  V30 77 H -0.267754 3.192028 -6.468428 0
M  V30 78 H 2.117323 3.516503 -6.099790 0
M  V30 79 H 2.279335 1.901767 -5.373611 0
M  V30 80 H 3.300887 3.209890 -3.789778 0
M  V30 81 H 2.216889 2.111052 -2.918099 0
M  V30 82 H 2.204936 3.844507 -2.448960 0
M  V30 83 H 0.196923 2.596849 -2.596636 0
M  V30 84 H -0.632793 3.845827 -3.517863 0
M  V30 85 H -1.836798 2.368345 -4.672281 0
M  V30 86 H -1.097126 1.121116 -3.664324 0
M  V30 87 H -2.419177 -2.586424 -6.168930 0
M  V30 88 H -2.577449 -0.908427 -6.738026 0
M  V30 89 H -4.041762 -1.456019 -4.786391 0
M  V30 90 H -2.966114 -0.113829 -4.426360 0
M  V30 91 H -4.991411 -1.084662 -3.020671 0
M  V30 92 H -6.942631 0.618495 -2.158817 0
M  V30 93 H -8.418179 -0.324713 -1.539826 0
M  V30 94 H -7.264408 -1.086324 -2.694663 0
M  V30 95 H -6.304430 -2.526214 6.517544 0
M  V30 96 H -4.268864 -2.549135 8.199437 0
M  V30 97 H -2.036353 -2.018833 6.744726 0
M  V30 98 H -0.222242 -2.832994 4.926968 0
M  V30 END ATOM
M  V30 BEGIN BOND
M  V30 1 1 1 2
M  V30 2 1 2 3
M  V30 3 2 3 4
M  V30 4 1 4 5
M  V30 5 2 5 6
M  V30 6 1 6 7
M  V30 7 1 7 8
M  V30 8 1 8 9
M  V30 9 2 7 10
M  V30 10 1 10 11
M  V30 11 1 11 12
M  V30 12 2 12 13
M  V30 13 1 12 14
M  V30 14 1 14 15
M  V30 15 2 15 16
M  V30 16 1 16 17
M  V30 17 1 17 18
M  V30 18 2 18 19
M  V30 19 1 19 20
M  V30 20 1 20 21
M  V30 21 1 21 22
M  V30 22 2 22 23
M  V30 23 1 23 24
M  V30 24 2 24 25
M  V30 25 1 25 26
M  V30 26 1 26 27
M  V30 27 1 27 28
M  V30 28 1 28 29
M  V30 29 1 29 30
M  V30 30 2 30 31
M  V30 31 1 30 32
M  V30 32 1 32 33
M  V30 33 1 33 34
M  V30 34 1 34 35
M  V30 35 1 35 36
M  V30 36 1 35 37
M  V30 37 1 37 38
M  V30 38 1 29 39
M  V30 39 1 39 40
M  V30 40 1 25 41
M  V30 41 2 41 42
M  V30 42 1 42 43
M  V30 43 1 43 44
M  V30 44 2 20 45
M  V30 45 1 45 46
M  V30 46 1 46 47
M  V30 47 1 47 48
M  V30 48 2 48 49
M  V30 49 1 49 50
M  V30 50 1 17 51
M  V30 51 1 10 3
M  V30 52 2 51 14
M  V30 53 1 50 18
M  V30 54 1 42 22
M  V30 55 2 50 46
M  V30 56 1 40 26
M  V30 57 1 38 32
M  V30 58 1 1 52
M  V30 59 1 1 53
M  V30 60 1 1 54
M  V30 61 1 2 55
M  V30 62 1 2 56
M  V30 63 1 4 57
M  V30 64 1 5 58
M  V30 65 1 6 59
M  V30 66 1 8 60
M  V30 67 1 8 61
M  V30 68 1 9 62
M  V30 69 1 9 63
M  V30 70 1 9 64
M  V30 71 1 11 65
M  V30 72 1 15 66
M  V30 73 1 16 67
M  V30 74 1 21 68
M  V30 75 1 23 69
M  V30 76 1 24 70
M  V30 77 1 27 71
M  V30 78 1 27 72
M  V30 79 1 28 73
M  V30 80 1 28 74
M  V30 81 1 29 75
M  V30 82 1 33 76
M  V30 83 1 33 77
M  V30 84 1 34 78
M  V30 85 1 34 79
M  V30 86 1 36 80
M  V30 87 1 36 81
M  V30 88 1 36 82
M  V30 89 1 37 83
M  V30 90 1 37 84
M  V30 91 1 38 85
M  V30 92 1 38 86
M  V30 93 1 39 87
M  V30 94 1 39 88
M  V30 95 1 40 89
M  V30 96 1 40 90
M  V30 97 1 41 91
M  V30 98 1 44 92
M  V30 99 1 44 93
M  V30 100 1 44 94
M  V30 101 1 47 95
M  V30 102 1 48 96
M  V30 103 1 49 97
M  V30 104 1 51 98
M  V30 END BOND
M  V30 END CTAB
M  END
>  <Dataset>  (486) 
ChEMBL_Kinases

>  <Ligand_Instance>  (486) 
nan

>  <PDB_ID>  (486) 
nan

>  <Standardized_SMILES>  (486) 
CCc1cccc(CC)c1NC(=O)c1ccn(-c2nc(Nc3ccc(N4CCC(C(=O)N5CCN(C)CC5)CC4)cc3OC)nc3[nH]ccc23)c1

>  <Name>  (486) 
nan

>  <Pocket>  (486) 
nan

>  <ATP_Site>  (486) 
nan

>  <Peripheral>  (486) 
nan

>  <Num_H_Atoms_ProtBoundConf>  (486) 
nan

>  <Num_Resolved_Atoms>  (486) 
nan

>  <Num_Not_Resolved_Atoms>  (486) 
nan

$$$$
CHEMBL3793688
     RDKit          3D

  0  0  0  0  0  0  0  0  0  0999 V3000
M  V30 BEGIN CTAB
M  V30 COUNTS 57 59 0 0 0
M  V30 BEGIN ATOM
M  V30 1 C 2.191087 -0.703085 5.065520 0
M  V30 2 C 3.380954 0.206679 4.797444 0
M  V30 3 C 3.304532 0.662106 3.358851 0
M  V30 4 C 4.468425 1.582413 3.010910 0
M  V30 5 C 4.404784 2.038714 1.598277 0
M  V30 6 O 5.228923 2.806123 1.037403 0
M  V30 7 O 3.328823 1.571500 0.820617 0
M  V30 8 C 3.212619 1.971854 -0.535696 0
M  V30 9 C 2.025191 1.391332 -1.211004 0
M  V30 10 C 0.771785 1.967215 -1.255975 0
M  V30 11 C -0.268619 1.315993 -1.928841 0
M  V30 12 C -0.031166 0.087539 -2.550342 0
M  V30 13 C -1.233500 -0.441051 -3.201773 0
M  V30 14 C -1.799447 0.419871 -4.276141 0
M  V30 15 N -2.970477 -0.187181 -4.847088 0
M  V30 16 C -2.236532 -0.723435 -2.115272 0
M  V30 17 O -3.384743 -0.447523 -1.680546 0
M  V30 18 N -1.668077 -1.677122 -1.227136 0
M  V30 19 C -2.251376 -2.238144 -0.059325 0
M  V30 20 C -2.171157 -1.763357 1.212599 0
M  V30 21 C -2.798636 -2.424235 2.270227 0
M  V30 22 C -3.513417 -3.589617 1.987997 0
M  V30 23 C -4.136194 -4.241008 3.058397 0
M  V30 24 N -4.844745 -5.383011 2.829559 0
M  V30 25 C -4.949058 -5.890709 1.570771 0
M  V30 26 C -4.331017 -5.240002 0.524229 0
M  V30 27 C -3.599535 -4.081318 0.687012 0
M  V30 28 C -2.967274 -3.403309 -0.335351 0
M  V30 29 C 1.224078 -0.487587 -2.504339 0
M  V30 30 C 2.248573 0.166899 -1.834314 0
M  V30 31 H 2.345489 -1.726982 4.675419 0
M  V30 32 H 1.306041 -0.281304 4.553622 0
M  V30 33 H 2.005212 -0.817066 6.163362 0
M  V30 34 H 4.302953 -0.330576 5.050035 0
M  V30 35 H 3.299836 1.064110 5.501694 0
M  V30 36 H 2.340123 1.140656 3.194799 0
M  V30 37 H 3.467558 -0.264644 2.747440 0
M  V30 38 H 5.433645 1.065585 3.138553 0
M  V30 39 H 4.442809 2.429368 3.721255 0
M  V30 40 H 4.148976 1.777448 -1.098489 0
M  V30 41 H 3.077193 3.072812 -0.533555 0
M  V30 42 H 0.682765 2.913580 -0.749402 0
M  V30 43 H -1.189039 1.865718 -1.890282 0
M  V30 44 H -0.970982 -1.406256 -3.683046 0
M  V30 45 H -1.032693 0.518229 -5.067472 0
M  V30 46 H -2.056200 1.445191 -3.970196 0
M  V30 47 H -3.778508 -0.214264 -4.195932 0
M  V30 48 H -2.817179 -1.091711 -5.307932 0
M  V30 49 H -0.726463 -2.169279 -1.224454 0
M  V30 50 H -1.595967 -0.856159 1.329905 0
M  V30 51 H -2.708633 -2.009573 3.271414 0
M  V30 52 H -4.063730 -3.849911 4.071682 0
M  V30 53 H -5.517047 -6.807435 1.383442 0
M  V30 54 H -4.400542 -5.629657 -0.500588 0
M  V30 55 H -3.086360 -3.856134 -1.315101 0
M  V30 56 H 1.302176 -1.434501 -3.014153 0
M  V30 57 H 3.215776 -0.327542 -1.827602 0
M  V30 END ATOM
M  V30 BEGIN BOND
M  V30 1 1 1 2
M  V30 2 1 2 3
M  V30 3 1 3 4
M  V30 4 1 4 5
M  V30 5 2 5 6
M  V30 6 1 5 7
M  V30 7 1 7 8
M  V30 8 1 8 9
M  V30 9 2 9 10
M  V30 10 1 10 11
M  V30 11 2 11 12
M  V30 12 1 12 13
M  V30 13 1 13 14
M  V30 14 1 14 15
M  V30 15 1 13 16
M  V30 16 2 16 17
M  V30 17 1 16 18
M  V30 18 1 18 19
M  V30 19 2 19 20
M  V30 20 1 20 21
M  V30 21 2 21 22
M  V30 22 1 22 23
M  V30 23 2 23 24
M  V30 24 1 24 25
M  V30 25 2 25 26
M  V30 26 1 26 27
M  V30 27 2 27 28
M  V30 28 1 12 29
M  V30 29 2 29 30
M  V30 30 1 30 9
M  V30 31 1 28 19
M  V30 32 1 27 22
M  V30 33 1 1 31
M  V30 34 1 1 32
M  V30 35 1 1 33
M  V30 36 1 2 34
M  V30 37 1 2 35
M  V30 38 1 3 36
M  V30 39 1 3 37
M  V30 40 1 4 38
M  V30 41 1 4 39
M  V30 42 1 8 40
M  V30 43 1 8 41
M  V30 44 1 10 42
M  V30 45 1 11 43
M  V30 46 1 13 44
M  V30 47 1 14 45
M  V30 48 1 14 46
M  V30 49 1 15 47
M  V30 50 1 15 48
M  V30 51 1 18 49
M  V30 52 1 20 50
M  V30 53 1 21 51
M  V30 54 1 23 52
M  V30 55 1 25 53
M  V30 56 1 26 54
M  V30 57 1 28 55
M  V30 58 1 29 56
M  V30 59 1 30 57
M  V30 END BOND
M  V30 END CTAB
M  END
>  <Dataset>  (487) 
ChEMBL_Kinases

>  <Ligand_Instance>  (487) 
nan

>  <PDB_ID>  (487) 
nan

>  <Standardized_SMILES>  (487) 
CCCCC(=O)OCc1ccc(C(CN)C(=O)Nc2ccc3cnccc3c2)cc1

>  <Name>  (487) 
nan

>  <Pocket>  (487) 
nan

>  <ATP_Site>  (487) 
nan

>  <Peripheral>  (487) 
nan

>  <Num_H_Atoms_ProtBoundConf>  (487) 
nan

>  <Num_Resolved_Atoms>  (487) 
nan

>  <Num_Not_Resolved_Atoms>  (487) 
nan

$$$$
CHEMBL3702258
     RDKit          3D

  0  0  0  0  0  0  0  0  0  0999 V3000
M  V30 BEGIN CTAB
M  V30 COUNTS 45 47 0 0 0
M  V30 BEGIN ATOM
M  V30 1 C 4.546788 -2.421702 4.982603 0
M  V30 2 O 3.951259 -1.511982 4.091133 0
M  V30 3 C 2.626677 -1.299535 4.440746 0
M  V30 4 C 1.930749 -0.353048 3.469585 0
M  V30 5 C 0.387598 -0.382078 3.923981 0
M  V30 6 O 1.910567 -0.685397 2.223671 0
M  V30 7 C 1.885769 -1.012976 0.961961 0
M  V30 8 N 2.546093 -2.164526 0.629805 0
M  V30 9 C 2.588376 -2.609223 -0.650869 0
M  V30 10 C 1.929883 -1.842246 -1.610323 0
M  V30 11 C 1.229642 -0.666970 -1.399978 0
M  V30 12 C 1.263402 -0.325620 -0.060192 0
M  V30 13 N 0.541517 0.881867 0.249619 0
M  V30 14 C -0.119691 1.638776 -0.772533 0
M  V30 15 N 0.582591 2.699478 -1.182914 0
M  V30 16 C 0.191355 3.539131 -2.120460 0
M  V30 17 N -1.006502 3.287276 -2.691461 0
M  V30 18 C -1.716155 2.184339 -2.252795 0
M  V30 19 S -3.333935 1.565022 -2.811169 0
M  V30 20 C -3.383948 0.204084 -1.728072 0
M  V30 21 C -4.508014 -0.703908 -1.719739 0
M  V30 22 N -4.806259 -1.826534 -0.923059 0
M  V30 23 O -5.424287 -0.504749 -2.558691 0
M  V30 24 C -2.220458 0.287475 -1.033660 0
M  V30 25 C -1.974266 -0.762770 0.009917 0
M  V30 26 C -1.347721 1.280705 -1.275564 0
M  V30 27 H 5.603142 -2.618825 4.704293 0
M  V30 28 H 4.444428 -2.151628 6.038251 0
M  V30 29 H 3.987109 -3.402147 4.842852 0
M  V30 30 H 2.091095 -2.279291 4.450659 0
M  V30 31 H 2.602072 -0.826611 5.445768 0
M  V30 32 H 2.163601 0.703875 3.694986 0
M  V30 33 H 0.330610 -0.710334 4.949277 0
M  V30 34 H -0.022279 -1.130303 3.223136 0
M  V30 35 H -0.073742 0.580267 3.655559 0
M  V30 36 H 3.095572 -3.505534 -0.940566 0
M  V30 37 H 1.970939 -2.226464 -2.648132 0
M  V30 38 H 0.722341 -0.098997 -2.153840 0
M  V30 39 H 0.476619 1.274957 1.219251 0
M  V30 40 H 0.585471 4.420990 -2.589281 0
M  V30 41 H -4.278980 -2.689342 -1.211043 0
M  V30 42 H -5.391416 -2.118201 -0.108994 0
M  V30 43 H -1.373254 -1.593374 -0.344631 0
M  V30 44 H -1.468786 -0.319457 0.894914 0
M  V30 45 H -2.906738 -1.177474 0.406142 0
M  V30 END ATOM
M  V30 BEGIN BOND
M  V30 1 1 1 2
M  V30 2 1 2 3
M  V30 3 1 3 4
M  V30 4 1 4 5
M  V30 5 1 4 6
M  V30 6 1 6 7
M  V30 7 2 7 8
M  V30 8 1 8 9
M  V30 9 2 9 10
M  V30 10 1 10 11
M  V30 11 2 11 12
M  V30 12 1 12 13
M  V30 13 1 13 14
M  V30 14 2 14 15
M  V30 15 1 15 16
M  V30 16 2 16 17
M  V30 17 1 17 18
M  V30 18 1 18 19
M  V30 19 1 19 20
M  V30 20 1 20 21
M  V30 21 1 21 22
M  V30 22 2 21 23
M  V30 23 2 20 24
M  V30 24 1 24 25
M  V30 25 1 24 26
M  V30 26 1 12 7
M  V30 27 1 26 14
M  V30 28 2 26 18
M  V30 29 1 1 27
M  V30 30 1 1 28
M  V30 31 1 1 29
M  V30 32 1 3 30
M  V30 33 1 3 31
M  V30 34 1 4 32
M  V30 35 1 5 33
M  V30 36 1 5 34
M  V30 37 1 5 35
M  V30 38 1 9 36
M  V30 39 1 10 37
M  V30 40 1 11 38
M  V30 41 1 13 39
M  V30 42 1 16 40
M  V30 43 1 22 41
M  V30 44 1 22 42
M  V30 45 1 25 43
M  V30 46 1 25 44
M  V30 47 1 25 45
M  V30 END BOND
M  V30 END CTAB
M  END
>  <Dataset>  (488) 
ChEMBL_Kinases

>  <Ligand_Instance>  (488) 
nan

>  <PDB_ID>  (488) 
nan

>  <Standardized_SMILES>  (488) 
COCC(C)Oc1ncccc1Nc1ncnc2sc(C(N)=O)c(C)c12

>  <Name>  (488) 
nan

>  <Pocket>  (488) 
nan

>  <ATP_Site>  (488) 
nan

>  <Peripheral>  (488) 
nan

>  <Num_H_Atoms_ProtBoundConf>  (488) 
nan

>  <Num_Resolved_Atoms>  (488) 
nan

>  <Num_Not_Resolved_Atoms>  (488) 
nan

$$$$
CHEMBL379576
     RDKit          3D

  0  0  0  0  0  0  0  0  0  0999 V3000
M  V30 BEGIN CTAB
M  V30 COUNTS 79 85 0 0 0
M  V30 BEGIN ATOM
M  V30 1 C 1.138874 -5.132550 0.522110 0
M  V30 2 C 2.065750 -5.299150 -0.650317 0
M  V30 3 C 3.377631 -4.607831 -0.472333 0
M  V30 4 C 4.057929 -5.162460 0.721394 0
M  V30 5 O 4.371221 -6.367760 0.895520 0
M  V30 6 N 4.319177 -4.136610 1.669949 0
M  V30 7 C 3.811137 -2.935555 1.099058 0
M  V30 8 C 3.822426 -1.664700 1.633516 0
M  V30 9 C 3.258800 -0.675493 0.867333 0
M  V30 10 C 2.694021 -0.850025 -0.371101 0
M  V30 11 N 2.137395 0.193931 -1.157328 0
M  V30 12 C 2.044029 1.613617 -1.006896 0 CFG=2
M  V30 13 C 0.994997 2.226073 -1.917883 0
M  V30 14 O -0.287958 1.787624 -1.756777 0
M  V30 15 C -1.164183 1.817552 -0.729467 0
M  V30 16 C -1.144074 2.296163 0.557341 0
M  V30 17 N -2.192591 2.185631 1.390605 0
M  V30 18 C -3.343416 1.595133 1.022110 0
M  V30 19 C -3.458255 1.084712 -0.248935 0
M  V30 20 C -4.716828 0.446345 -0.624435 0
M  V30 21 C -5.090899 0.535137 -1.953212 0
M  V30 22 C -6.280612 -0.055960 -2.377672 0
M  V30 23 C -7.058471 -0.724139 -1.429033 0
M  V30 24 C -6.661968 -0.797687 -0.107395 0
M  V30 25 C -5.482465 -0.214987 0.326956 0
M  V30 26 C -7.685902 -1.561781 0.685375 0
M  V30 27 C -7.111488 -2.689724 1.464553 0
M  V30 28 C -8.092846 -3.487113 2.273707 0
M  V30 29 C -8.663455 -1.919306 -0.345008 0
M  V30 30 O -9.708494 -2.591355 -0.173426 0
M  V30 31 N -8.309292 -1.412894 -1.627174 0
M  V30 32 C -2.364118 1.200252 -1.118319 0
M  V30 33 C 3.340655 2.296016 -1.492233 0
M  V30 34 C 4.532085 1.898108 -0.775432 0
M  V30 35 C 5.450838 0.964344 -1.271396 0
M  V30 36 N 6.476648 0.764913 -0.404268 0
M  V30 37 C 6.260364 1.560455 0.682516 0
M  V30 38 C 7.009774 1.717316 1.825174 0
M  V30 39 C 6.493022 2.626843 2.751043 0
M  V30 40 C 5.330406 3.313370 2.544120 0
M  V30 41 C 4.604329 3.126775 1.378680 0
M  V30 42 C 5.097591 2.221696 0.432966 0
M  V30 43 C 2.701242 -2.132293 -0.870832 0
M  V30 44 C 3.254211 -3.159408 -0.141176 0
M  V30 45 H 0.468327 -6.019976 0.554791 0
M  V30 46 H 1.696292 -5.132022 1.480177 0
M  V30 47 H 0.467788 -4.261557 0.420170 0
M  V30 48 H 2.306257 -6.401780 -0.695749 0
M  V30 49 H 1.550042 -5.073616 -1.597062 0
M  V30 50 H 3.955503 -4.750141 -1.408795 0
M  V30 51 H 4.784450 -4.257327 2.582818 0
M  V30 52 H 4.252728 -1.454233 2.605956 0
M  V30 53 H 3.259253 0.300819 1.305024 0
M  V30 54 H 1.683958 -0.106548 -2.064598 0
M  V30 55 H 1.824790 1.865765 0.024824 0
M  V30 56 H 1.328122 2.052059 -2.965784 0
M  V30 57 H 1.040973 3.329600 -1.703030 0
M  V30 58 H -0.210172 2.760145 0.798380 0
M  V30 59 H -4.124125 1.550492 1.745306 0
M  V30 60 H -4.516461 1.043021 -2.713397 0
M  V30 61 H -6.593887 0.000402 -3.411114 0
M  V30 62 H -5.175818 -0.270976 1.342956 0
M  V30 63 H -8.172961 -0.794719 1.337994 0
M  V30 64 H -6.493177 -3.370766 0.887537 0
M  V30 65 H -6.416888 -2.224501 2.225049 0
M  V30 66 H -8.618936 -4.269657 1.707571 0
M  V30 67 H -7.483106 -4.039888 3.048625 0
M  V30 68 H -8.731317 -2.814687 2.853529 0
M  V30 69 H -8.810738 -1.493036 -2.548716 0
M  V30 70 H -2.597056 0.752102 -2.091724 0
M  V30 71 H 3.202944 3.403836 -1.465353 0
M  V30 72 H 3.402844 2.027292 -2.566342 0
M  V30 73 H 5.385365 0.444308 -2.224368 0
M  V30 74 H 7.273057 0.113581 -0.567757 0
M  V30 75 H 7.919511 1.150500 1.937112 0
M  V30 76 H 7.067874 2.765337 3.658267 0
M  V30 77 H 5.009780 3.999140 3.323091 0
M  V30 78 H 3.682460 3.666380 1.206332 0
M  V30 79 H 2.275536 -2.358859 -1.839896 0
M  V30 END ATOM
M  V30 BEGIN BOND
M  V30 1 1 1 2
M  V30 2 1 2 3
M  V30 3 1 3 4
M  V30 4 2 4 5
M  V30 5 1 4 6
M  V30 6 1 6 7
M  V30 7 2 7 8
M  V30 8 1 8 9
M  V30 9 2 9 10
M  V30 10 1 10 11
M  V30 11 1 11 12
M  V30 12 1 12 13
M  V30 13 1 13 14
M  V30 14 1 14 15
M  V30 15 2 15 16
M  V30 16 1 16 17
M  V30 17 2 17 18
M  V30 18 1 18 19
M  V30 19 1 19 20
M  V30 20 2 20 21
M  V30 21 1 21 22
M  V30 22 2 22 23
M  V30 23 1 23 24
M  V30 24 2 24 25
M  V30 25 1 24 26
M  V30 26 1 26 27
M  V30 27 1 27 28
M  V30 28 1 26 29
M  V30 29 2 29 30
M  V30 30 1 29 31
M  V30 31 2 19 32
M  V30 32 1 12 33
M  V30 33 1 33 34
M  V30 34 2 34 35
M  V30 35 1 35 36
M  V30 36 1 36 37
M  V30 37 2 37 38
M  V30 38 1 38 39
M  V30 39 2 39 40
M  V30 40 1 40 41
M  V30 41 2 41 42
M  V30 42 1 10 43
M  V30 43 2 43 44
M  V30 44 1 44 3
M  V30 45 1 44 7
M  V30 46 1 32 15
M  V30 47 1 42 34
M  V30 48 1 25 20
M  V30 49 1 42 37
M  V30 50 1 31 23
M  V30 51 1 1 45
M  V30 52 1 1 46
M  V30 53 1 1 47
M  V30 54 1 2 48
M  V30 55 1 2 49
M  V30 56 1 3 50
M  V30 57 1 6 51
M  V30 58 1 8 52
M  V30 59 1 9 53
M  V30 60 1 11 54
M  V30 61 1 12 55 CFG=1
M  V30 62 1 13 56
M  V30 63 1 13 57
M  V30 64 1 16 58
M  V30 65 1 18 59
M  V30 66 1 21 60
M  V30 67 1 22 61
M  V30 68 1 25 62
M  V30 69 1 26 63
M  V30 70 1 27 64
M  V30 71 1 27 65
M  V30 72 1 28 66
M  V30 73 1 28 67
M  V30 74 1 28 68
M  V30 75 1 31 69
M  V30 76 1 32 70
M  V30 77 1 33 71
M  V30 78 1 33 72
M  V30 79 1 35 73
M  V30 80 1 36 74
M  V30 81 1 38 75
M  V30 82 1 39 76
M  V30 83 1 40 77
M  V30 84 1 41 78
M  V30 85 1 43 79
M  V30 END BOND
M  V30 END CTAB
M  END
>  <Dataset>  (489) 
ChEMBL_Kinases

>  <Ligand_Instance>  (489) 
nan

>  <PDB_ID>  (489) 
nan

>  <Standardized_SMILES>  (489) 
CCC1C(=O)Nc2ccc(N[C@H](COc3cncc(-c4ccc5c(c4)C(CC)C(=O)N5)c3)Cc3c[nH]c4ccccc34)cc21

>  <Name>  (489) 
nan

>  <Pocket>  (489) 
nan

>  <ATP_Site>  (489) 
nan

>  <Peripheral>  (489) 
nan

>  <Num_H_Atoms_ProtBoundConf>  (489) 
nan

>  <Num_Resolved_Atoms>  (489) 
nan

>  <Num_Not_Resolved_Atoms>  (489) 
nan

$$$$
CHEMBL379507
     RDKit          3D

  0  0  0  0  0  0  0  0  0  0999 V3000
M  V30 BEGIN CTAB
M  V30 COUNTS 47 49 0 0 0
M  V30 BEGIN ATOM
M  V30 1 C 2.016269 -5.894331 1.232586 0
M  V30 2 N 3.279751 -6.145896 0.586742 0
M  V30 3 C 4.026650 -5.115218 -0.049699 0
M  V30 4 N 5.221594 -5.351208 -0.660426 0
M  V30 5 C 5.918720 -4.380382 -1.256546 0
M  V30 6 C 5.458242 -3.081168 -1.282702 0
M  V30 7 C 4.241724 -2.845606 -0.659938 0
M  V30 8 C 3.579843 -1.475413 -0.592104 0
M  V30 9 C 3.945140 -0.268085 -1.063442 0
M  V30 10 C 3.110178 0.760393 -0.825275 0
M  V30 11 C 1.990444 0.571184 -0.158388 0
M  V30 12 C 0.963875 1.600553 0.186355 0
M  V30 13 O 1.044104 2.821460 -0.129270 0
M  V30 14 N -0.126355 1.052622 0.916615 0
M  V30 15 C -1.350418 1.675968 1.460426 0
M  V30 16 C -1.198054 1.600893 2.947775 0
M  V30 17 N -1.043472 0.256763 3.383807 0
M  V30 18 C -2.597229 1.128025 0.901693 0
M  V30 19 C -3.873053 1.682039 1.350416 0
M  V30 20 C -4.309648 2.727722 0.512768 0
M  V30 21 C -5.447901 3.474576 0.701715 0
M  V30 22 C -6.259530 3.218731 1.781329 0
M  V30 23 Cl -7.722004 4.070123 2.155939 0
M  V30 24 C -5.884601 2.206908 2.635538 0
M  V30 25 C -4.737027 1.491871 2.398260 0
M  V30 26 Cl -4.312933 0.174753 3.459489 0
M  V30 27 S 2.003833 -1.153755 0.216237 0
M  V30 28 N 3.585870 -3.843418 -0.080758 0
M  V30 29 H 2.081844 -5.497343 2.250740 0
M  V30 30 H 1.463195 -6.861792 1.312373 0
M  V30 31 H 1.363020 -5.232643 0.625786 0
M  V30 32 H 3.678877 -7.116416 0.575274 0
M  V30 33 H 6.871226 -4.516669 -1.754769 0
M  V30 34 H 5.888607 -2.188457 -1.714319 0
M  V30 35 H 4.899849 -0.276734 -1.594508 0
M  V30 36 H 3.393356 1.762142 -1.205182 0
M  V30 37 H -0.211657 0.050952 1.186845 0
M  V30 38 H -1.276574 2.783918 1.143762 0
M  V30 39 H -2.051508 2.072287 3.489879 0
M  V30 40 H -0.309919 2.186183 3.303829 0
M  V30 41 H -0.072510 -0.032268 3.609275 0
M  V30 42 H -1.459018 -0.415085 2.723370 0
M  V30 43 H -2.583986 1.098646 -0.229058 0
M  V30 44 H -2.584748 0.012568 1.143748 0
M  V30 45 H -3.782767 3.053826 -0.381090 0
M  V30 46 H -5.783180 4.272380 0.065412 0
M  V30 47 H -6.458033 1.940134 3.501088 0
M  V30 END ATOM
M  V30 BEGIN BOND
M  V30 1 1 1 2
M  V30 2 1 2 3
M  V30 3 2 3 4
M  V30 4 1 4 5
M  V30 5 2 5 6
M  V30 6 1 6 7
M  V30 7 1 7 8
M  V30 8 2 8 9
M  V30 9 1 9 10
M  V30 10 2 10 11
M  V30 11 1 11 12
M  V30 12 2 12 13
M  V30 13 1 12 14
M  V30 14 1 14 15
M  V30 15 1 15 16
M  V30 16 1 16 17
M  V30 17 1 15 18
M  V30 18 1 18 19
M  V30 19 2 19 20
M  V30 20 1 20 21
M  V30 21 2 21 22
M  V30 22 1 22 23
M  V30 23 1 22 24
M  V30 24 2 24 25
M  V30 25 1 25 26
M  V30 26 1 11 27
M  V30 27 2 7 28
M  V30 28 1 28 3
M  V30 29 1 27 8
M  V30 30 1 25 19
M  V30 31 1 1 29
M  V30 32 1 1 30
M  V30 33 1 1 31
M  V30 34 1 2 32
M  V30 35 1 5 33
M  V30 36 1 6 34
M  V30 37 1 9 35
M  V30 38 1 10 36
M  V30 39 1 14 37
M  V30 40 1 15 38
M  V30 41 1 16 39
M  V30 42 1 16 40
M  V30 43 1 17 41
M  V30 44 1 17 42
M  V30 45 1 18 43
M  V30 46 1 18 44
M  V30 47 1 20 45
M  V30 48 1 21 46
M  V30 49 1 24 47
M  V30 END BOND
M  V30 END CTAB
M  END
>  <Dataset>  (490) 
ChEMBL_Kinases

>  <Ligand_Instance>  (490) 
nan

>  <PDB_ID>  (490) 
nan

>  <Standardized_SMILES>  (490) 
CNc1nccc(-c2ccc(C(=O)NC(CN)Cc3ccc(Cl)cc3Cl)s2)n1

>  <Name>  (490) 
nan

>  <Pocket>  (490) 
nan

>  <ATP_Site>  (490) 
nan

>  <Peripheral>  (490) 
nan

>  <Num_H_Atoms_ProtBoundConf>  (490) 
nan

>  <Num_Resolved_Atoms>  (490) 
nan

>  <Num_Not_Resolved_Atoms>  (490) 
nan

$$$$
CHEMBL379495
     RDKit          3D

  0  0  0  0  0  0  0  0  0  0999 V3000
M  V30 BEGIN CTAB
M  V30 COUNTS 52 54 0 0 0
M  V30 BEGIN ATOM
M  V30 1 C 2.968061 -8.353738 2.914951 0
M  V30 2 O 2.137857 -7.702319 1.999758 0
M  V30 3 C 2.218723 -6.375865 1.618965 0
M  V30 4 C 3.152255 -5.469157 2.094682 0
M  V30 5 C 3.129729 -4.159007 1.632609 0
M  V30 6 C 2.205570 -3.720658 0.709573 0
M  V30 7 C 2.167362 -2.351014 0.213357 0
M  V30 8 O 1.308495 -1.966847 -0.637363 0
M  V30 9 N 3.086944 -1.394692 0.660608 0
M  V30 10 C 3.051576 0.004341 0.155878 0
M  V30 11 N 3.442132 0.695678 -0.640468 0
M  V30 12 C 3.214054 1.974149 -0.844016 0
M  V30 13 C 2.378838 2.573464 0.033202 0
M  V30 14 S 1.835764 4.327115 0.063469 0
M  V30 15 C 0.699255 4.543698 1.475682 0
M  V30 16 C -0.538273 3.759507 1.224509 0
M  V30 17 N -0.767509 2.468378 1.577257 0
M  V30 18 C -2.006651 2.182507 1.151294 0
M  V30 19 C -2.470838 3.353508 0.546303 0
M  V30 20 C -3.810573 3.498223 -0.072474 0
M  V30 21 C -4.036174 4.867714 -0.635721 0
M  V30 22 C -4.885511 3.204626 0.948427 0
M  V30 23 C -3.952825 2.481062 -1.202235 0
M  V30 24 O -1.572752 4.301986 0.596714 0
M  V30 25 S 1.943650 1.205943 1.157960 0
M  V30 26 C 1.273925 -4.652319 0.243926 0
M  V30 27 C 1.269692 -5.978822 0.689182 0
M  V30 28 O 0.306426 -6.874137 0.184752 0
M  V30 29 C -0.602251 -6.332508 -0.760061 0
M  V30 30 H 3.558031 -7.691768 3.556624 0
M  V30 31 H 2.405476 -9.035523 3.601779 0
M  V30 32 H 3.655430 -9.017554 2.318780 0
M  V30 33 H 3.874050 -5.817679 2.817683 0
M  V30 34 H 3.865001 -3.494743 2.024264 0
M  V30 35 H 3.825706 -1.576383 1.341940 0
M  V30 36 H 3.648436 2.572022 -1.661523 0
M  V30 37 H 1.199825 4.058884 2.349541 0
M  V30 38 H 0.537692 5.589368 1.716617 0
M  V30 39 H -2.581629 1.271217 1.224993 0
M  V30 40 H -5.115061 5.105180 -0.535322 0
M  V30 41 H -3.778677 4.988808 -1.697968 0
M  V30 42 H -3.498860 5.635695 -0.038179 0
M  V30 43 H -4.444600 2.831037 1.890758 0
M  V30 44 H -5.491253 4.098826 1.217181 0
M  V30 45 H -5.597131 2.435523 0.574788 0
M  V30 46 H -3.905639 1.450145 -0.816675 0
M  V30 47 H -4.883072 2.703095 -1.733313 0
M  V30 48 H -3.096359 2.597134 -1.921535 0
M  V30 49 H 0.557968 -4.288151 -0.479456 0
M  V30 50 H -0.059120 -5.882289 -1.596756 0
M  V30 51 H -1.085669 -5.469551 -0.218377 0
M  V30 52 H -1.373150 -7.070651 -1.052875 0
M  V30 END ATOM
M  V30 BEGIN BOND
M  V30 1 1 1 2
M  V30 2 1 2 3
M  V30 3 2 3 4
M  V30 4 1 4 5
M  V30 5 2 5 6
M  V30 6 1 6 7
M  V30 7 2 7 8
M  V30 8 1 7 9
M  V30 9 1 9 10
M  V30 10 2 10 11
M  V30 11 1 11 12
M  V30 12 2 12 13
M  V30 13 1 13 14
M  V30 14 1 14 15
M  V30 15 1 15 16
M  V30 16 2 16 17
M  V30 17 1 17 18
M  V30 18 2 18 19
M  V30 19 1 19 20
M  V30 20 1 20 21
M  V30 21 1 20 22
M  V30 22 1 20 23
M  V30 23 1 19 24
M  V30 24 1 13 25
M  V30 25 1 6 26
M  V30 26 2 26 27
M  V30 27 1 27 28
M  V30 28 1 28 29
M  V30 29 1 27 3
M  V30 30 1 25 10
M  V30 31 1 24 16
M  V30 32 1 1 30
M  V30 33 1 1 31
M  V30 34 1 1 32
M  V30 35 1 4 33
M  V30 36 1 5 34
M  V30 37 1 9 35
M  V30 38 1 12 36
M  V30 39 1 15 37
M  V30 40 1 15 38
M  V30 41 1 18 39
M  V30 42 1 21 40
M  V30 43 1 21 41
M  V30 44 1 21 42
M  V30 45 1 22 43
M  V30 46 1 22 44
M  V30 47 1 22 45
M  V30 48 1 23 46
M  V30 49 1 23 47
M  V30 50 1 23 48
M  V30 51 1 26 49
M  V30 52 1 29 50
M  V30 53 1 29 51
M  V30 54 1 29 52
M  V30 END BOND
M  V30 END CTAB
M  END
>  <Dataset>  (491) 
ChEMBL_Kinases

>  <Ligand_Instance>  (491) 
nan

>  <PDB_ID>  (491) 
nan

>  <Standardized_SMILES>  (491) 
COc1ccc(C(=O)Nc2ncc(SCc3ncc(C(C)(C)C)o3)s2)cc1OC

>  <Name>  (491) 
nan

>  <Pocket>  (491) 
nan

>  <ATP_Site>  (491) 
nan

>  <Peripheral>  (491) 
nan

>  <Num_H_Atoms_ProtBoundConf>  (491) 
nan

>  <Num_Resolved_Atoms>  (491) 
nan

>  <Num_Not_Resolved_Atoms>  (491) 
nan

$$$$
CHEMBL379463
     RDKit          3D

  0  0  0  0  0  0  0  0  0  0999 V3000
M  V30 BEGIN CTAB
M  V30 COUNTS 48 51 0 0 0
M  V30 BEGIN ATOM
M  V30 1 C 2.646925 -6.393318 -0.466940 0
M  V30 2 O 1.804798 -5.263419 -0.601038 0
M  V30 3 C 2.093206 -4.061380 0.044905 0
M  V30 4 N 3.172300 -3.882473 0.831237 0
M  V30 5 C 3.409592 -2.700504 1.435641 0
M  V30 6 C 2.537850 -1.624006 1.261534 0
M  V30 7 C 1.437162 -1.825039 0.452460 0
M  V30 8 C 0.542258 -0.680997 0.289031 0
M  V30 9 C 0.939252 0.510606 -0.284327 0
M  V30 10 C 2.243588 0.883567 -0.821028 0
M  V30 11 C 2.925100 1.945276 -0.261449 0
M  V30 12 C 4.159525 2.414647 -0.656469 0
M  V30 13 C 4.783516 1.756725 -1.723454 0
M  V30 14 F 5.997494 2.189483 -2.140009 0
M  V30 15 C 4.118902 0.688112 -2.301166 0
M  V30 16 C 2.882180 0.239774 -1.884308 0
M  V30 17 N -0.134086 1.352843 -0.278619 0
M  V30 18 C -1.187132 0.696342 0.290557 0
M  V30 19 C -2.486514 1.110920 0.527257 0
M  V30 20 C -3.345089 0.205374 1.131574 0
M  V30 21 C -4.757093 0.579953 1.418502 0
M  V30 22 N -4.943815 1.166934 2.711639 0
M  V30 23 C -4.195330 2.370250 2.925898 0
M  V30 24 C -4.897874 0.227595 3.801510 0
M  V30 25 C -2.934198 -1.069571 1.491142 0
M  V30 26 C -1.609084 -1.394756 1.212815 0
M  V30 27 N -0.754375 -0.534961 0.627102 0
M  V30 28 N 1.256465 -3.047463 -0.129557 0
M  V30 29 H 3.158339 -6.598877 -1.410296 0
M  V30 30 H 3.416917 -6.144685 0.319796 0
M  V30 31 H 2.103263 -7.271806 -0.057895 0
M  V30 32 H 4.285979 -2.616258 2.051036 0
M  V30 33 H 2.749991 -0.671481 1.762299 0
M  V30 34 H 2.487121 2.489880 0.567368 0
M  V30 35 H 4.639936 3.252130 -0.175746 0
M  V30 36 H 4.578512 0.160723 -3.128110 0
M  V30 37 H 2.358303 -0.585015 -2.322654 0
M  V30 38 H -2.802626 2.100207 0.247944 0
M  V30 39 H -5.390545 -0.336106 1.382501 0
M  V30 40 H -5.064999 1.308900 0.653214 0
M  V30 41 H -3.131919 2.294011 2.633119 0
M  V30 42 H -4.207513 2.589935 4.013610 0
M  V30 43 H -4.640074 3.241684 2.383627 0
M  V30 44 H -5.463038 -0.667090 3.456401 0
M  V30 45 H -5.346310 0.698517 4.693557 0
M  V30 46 H -3.859355 -0.071711 4.069169 0
M  V30 47 H -3.564045 -1.810487 1.963786 0
M  V30 48 H -1.269438 -2.390199 1.487558 0
M  V30 END ATOM
M  V30 BEGIN BOND
M  V30 1 1 1 2
M  V30 2 1 2 3
M  V30 3 2 3 4
M  V30 4 1 4 5
M  V30 5 2 5 6
M  V30 6 1 6 7
M  V30 7 1 7 8
M  V30 8 2 8 9
M  V30 9 1 9 10
M  V30 10 2 10 11
M  V30 11 1 11 12
M  V30 12 2 12 13
M  V30 13 1 13 14
M  V30 14 1 13 15
M  V30 15 2 15 16
M  V30 16 1 9 17
M  V30 17 2 17 18
M  V30 18 1 18 19
M  V30 19 2 19 20
M  V30 20 1 20 21
M  V30 21 1 21 22
M  V30 22 1 22 23
M  V30 23 1 22 24
M  V30 24 1 20 25
M  V30 25 2 25 26
M  V30 26 1 26 27
M  V30 27 2 7 28
M  V30 28 1 28 3
M  V30 29 1 27 8
M  V30 30 1 16 10
M  V30 31 1 27 18
M  V30 32 1 1 29
M  V30 33 1 1 30
M  V30 34 1 1 31
M  V30 35 1 5 32
M  V30 36 1 6 33
M  V30 37 1 11 34
M  V30 38 1 12 35
M  V30 39 1 15 36
M  V30 40 1 16 37
M  V30 41 1 19 38
M  V30 42 1 21 39
M  V30 43 1 21 40
M  V30 44 1 23 41
M  V30 45 1 23 42
M  V30 46 1 23 43
M  V30 47 1 24 44
M  V30 48 1 24 45
M  V30 49 1 24 46
M  V30 50 1 25 47
M  V30 51 1 26 48
M  V30 END BOND
M  V30 END CTAB
M  END
>  <Dataset>  (492) 
ChEMBL_Kinases

>  <Ligand_Instance>  (492) 
nan

>  <PDB_ID>  (492) 
nan

>  <Standardized_SMILES>  (492) 
COc1nccc(-c2c(-c3ccc(F)cc3)nc3cc(CN(C)C)ccn23)n1

>  <Name>  (492) 
nan

>  <Pocket>  (492) 
nan

>  <ATP_Site>  (492) 
nan

>  <Peripheral>  (492) 
nan

>  <Num_H_Atoms_ProtBoundConf>  (492) 
nan

>  <Num_Resolved_Atoms>  (492) 
nan

>  <Num_Not_Resolved_Atoms>  (492) 
nan

$$$$
CHEMBL3702259
     RDKit          3D

  0  0  0  0  0  0  0  0  0  0999 V3000
M  V30 BEGIN CTAB
M  V30 COUNTS 52 54 0 0 0
M  V30 BEGIN ATOM
M  V30 1 C -0.606646 -1.328436 4.274025 0
M  V30 2 O 0.573322 -0.786798 3.776141 0
M  V30 3 C 1.306520 -1.851750 3.221998 0
M  V30 4 C 2.599665 -1.282732 2.667349 0
M  V30 5 C 3.423676 -0.649858 3.798115 0
M  V30 6 O 2.375566 -0.324163 1.684473 0
M  V30 7 C 2.836423 -0.372074 0.397992 0
M  V30 8 N 3.572084 -1.506309 0.183414 0
M  V30 9 C 4.112262 -1.722770 -1.046331 0
M  V30 10 C 3.929600 -0.821915 -2.068134 0
M  V30 11 C 3.197410 0.326241 -1.887134 0
M  V30 12 C 2.635177 0.559724 -0.625584 0
M  V30 13 N 1.837434 1.594461 -0.075311 0
M  V30 14 C 0.656327 2.079167 0.508289 0
M  V30 15 N 0.880534 3.186336 1.215979 0
M  V30 16 C 0.064601 3.912278 1.931723 0
M  V30 17 N -1.148380 3.417270 1.906502 0
M  V30 18 C -1.493545 2.302003 1.222211 0
M  V30 19 S -3.064452 1.444155 1.042632 0
M  V30 20 C -2.389326 0.123604 -0.055504 0
M  V30 21 C -3.402004 -0.814887 -0.426309 0
M  V30 22 O -4.589349 -0.628771 0.016130 0
M  V30 23 N -3.487718 -1.977701 -1.194280 0
M  V30 24 C -4.807247 -2.555378 -1.247323 0
M  V30 25 C -4.822707 -3.808656 -2.095955 0
M  V30 26 O -3.963850 -4.773788 -1.590584 0
M  V30 27 C -1.035540 0.447344 -0.192038 0
M  V30 28 C -0.263217 -0.405128 -1.117317 0
M  V30 29 C -0.595900 1.541647 0.458466 0
M  V30 30 H -1.257762 -0.533833 4.739323 0
M  V30 31 H -1.138956 -1.788325 3.408339 0
M  V30 32 H -0.314540 -2.090081 5.026400 0
M  V30 33 H 1.502277 -2.662331 3.929445 0
M  V30 34 H 0.733873 -2.235652 2.371964 0
M  V30 35 H 3.194568 -2.106380 2.248511 0
M  V30 36 H 4.255582 -0.088606 3.324835 0
M  V30 37 H 2.771234 -0.003227 4.418411 0
M  V30 38 H 3.832308 -1.476079 4.385884 0
M  V30 39 H 4.706141 -2.570201 -1.339012 0
M  V30 40 H 4.303182 -0.878592 -3.079859 0
M  V30 41 H 2.931395 1.146344 -2.521772 0
M  V30 42 H 2.645557 2.262417 -0.269350 0
M  V30 43 H 0.196425 4.789231 2.503807 0
M  V30 44 H -2.619042 -2.298247 -1.622629 0
M  V30 45 H -5.592976 -1.873584 -1.567769 0
M  V30 46 H -5.036106 -2.883104 -0.190389 0
M  V30 47 H -5.870160 -4.164483 -2.100966 0
M  V30 48 H -4.529585 -3.482063 -3.122178 0
M  V30 49 H -3.387428 -4.375636 -0.887112 0
M  V30 50 H 0.335781 -1.192388 -0.654444 0
M  V30 51 H -0.934457 -0.956582 -1.842705 0
M  V30 52 H 0.306307 0.241745 -1.858680 0
M  V30 END ATOM
M  V30 BEGIN BOND
M  V30 1 1 1 2
M  V30 2 1 2 3
M  V30 3 1 3 4
M  V30 4 1 4 5
M  V30 5 1 4 6
M  V30 6 1 6 7
M  V30 7 2 7 8
M  V30 8 1 8 9
M  V30 9 2 9 10
M  V30 10 1 10 11
M  V30 11 2 11 12
M  V30 12 1 12 13
M  V30 13 1 13 14
M  V30 14 2 14 15
M  V30 15 1 15 16
M  V30 16 2 16 17
M  V30 17 1 17 18
M  V30 18 1 18 19
M  V30 19 1 19 20
M  V30 20 1 20 21
M  V30 21 2 21 22
M  V30 22 1 21 23
M  V30 23 1 23 24
M  V30 24 1 24 25
M  V30 25 1 25 26
M  V30 26 2 20 27
M  V30 27 1 27 28
M  V30 28 1 27 29
M  V30 29 1 12 7
M  V30 30 1 29 14
M  V30 31 2 29 18
M  V30 32 1 1 30
M  V30 33 1 1 31
M  V30 34 1 1 32
M  V30 35 1 3 33
M  V30 36 1 3 34
M  V30 37 1 4 35
M  V30 38 1 5 36
M  V30 39 1 5 37
M  V30 40 1 5 38
M  V30 41 1 9 39
M  V30 42 1 10 40
M  V30 43 1 11 41
M  V30 44 1 13 42
M  V30 45 1 16 43
M  V30 46 1 23 44
M  V30 47 1 24 45
M  V30 48 1 24 46
M  V30 49 1 25 47
M  V30 50 1 25 48
M  V30 51 1 26 49
M  V30 52 1 28 50
M  V30 53 1 28 51
M  V30 54 1 28 52
M  V30 END BOND
M  V30 END CTAB
M  END
>  <Dataset>  (493) 
ChEMBL_Kinases

>  <Ligand_Instance>  (493) 
nan

>  <PDB_ID>  (493) 
nan

>  <Standardized_SMILES>  (493) 
COCC(C)Oc1ncccc1Nc1ncnc2sc(C(=O)NCCO)c(C)c12

>  <Name>  (493) 
nan

>  <Pocket>  (493) 
nan

>  <ATP_Site>  (493) 
nan

>  <Peripheral>  (493) 
nan

>  <Num_H_Atoms_ProtBoundConf>  (493) 
nan

>  <Num_Resolved_Atoms>  (493) 
nan

>  <Num_Not_Resolved_Atoms>  (493) 
nan

$$$$
CHEMBL3702260
     RDKit          3D

  0  0  0  0  0  0  0  0  0  0999 V3000
M  V30 BEGIN CTAB
M  V30 COUNTS 62 64 0 0 0
M  V30 BEGIN ATOM
M  V30 1 C 1.968143 -1.095038 3.960383 0
M  V30 2 O 2.085729 0.242324 3.590159 0
M  V30 3 C 2.910063 0.359329 2.464711 0
M  V30 4 C 3.038999 1.816975 2.065649 0
M  V30 5 C 3.648581 2.524600 3.272425 0
M  V30 6 O 1.796436 2.384282 1.753046 0
M  V30 7 C 1.590679 3.023311 0.562205 0
M  V30 8 N 2.699931 3.037323 -0.237736 0
M  V30 9 C 2.625713 3.646213 -1.452700 0
M  V30 10 C 1.475428 4.246435 -1.902925 0
M  V30 11 C 0.356524 4.234795 -1.100259 0
M  V30 12 C 0.392807 3.623761 0.144566 0
M  V30 13 N -0.547620 3.445024 1.167002 0
M  V30 14 C -1.361596 2.657863 1.997471 0
M  V30 15 N -1.639296 3.249040 3.142914 0
M  V30 16 C -2.342495 2.824711 4.157034 0
M  V30 17 N -2.830177 1.601240 3.947202 0
M  V30 18 C -2.588205 0.947211 2.808487 0
M  V30 19 S -3.142651 -0.702985 2.279346 0
M  V30 20 C -2.361499 -0.649273 0.719156 0
M  V30 21 C -2.406865 -1.728055 -0.279126 0
M  V30 22 O -1.947379 -1.928960 -1.431330 0
M  V30 23 N -3.141937 -2.897172 0.054200 0
M  V30 24 C -3.312919 -4.059953 -0.761122 0
M  V30 25 C -2.052399 -4.796356 -1.117783 0
M  V30 26 C -2.337655 -6.015775 -1.972723 0
M  V30 27 N -1.180941 -6.750653 -2.342059 0
M  V30 28 C -0.290256 -6.103705 -3.246412 0
M  V30 29 C -0.575368 -7.551958 -1.336145 0
M  V30 30 C -1.734844 0.573897 0.664869 0
M  V30 31 C -1.019927 0.924955 -0.587744 0
M  V30 32 C -1.847528 1.400732 1.743341 0
M  V30 33 H 1.540575 -1.743054 3.194325 0
M  V30 34 H 2.964135 -1.490617 4.317365 0
M  V30 35 H 1.306053 -1.097629 4.864583 0
M  V30 36 H 2.453092 -0.225456 1.660161 0
M  V30 37 H 3.892975 -0.066850 2.687239 0
M  V30 38 H 3.776500 1.903865 1.249195 0
M  V30 39 H 2.897026 2.657031 4.068300 0
M  V30 40 H 4.100012 3.474079 2.919123 0
M  V30 41 H 4.477998 1.873221 3.643014 0
M  V30 42 H 3.455903 3.688427 -2.120422 0
M  V30 43 H 1.302086 4.751250 -2.834344 0
M  V30 44 H -0.633402 4.644251 -1.264357 0
M  V30 45 H -0.579441 4.510640 1.279604 0
M  V30 46 H -2.607653 3.241248 5.106072 0
M  V30 47 H -3.625801 -2.934731 1.010597 0
M  V30 48 H -4.002160 -4.775344 -0.231262 0
M  V30 49 H -3.902646 -3.811151 -1.698532 0
M  V30 50 H -1.367692 -4.102180 -1.631522 0
M  V30 51 H -1.548134 -5.071755 -0.164897 0
M  V30 52 H -2.838161 -5.645490 -2.889020 0
M  V30 53 H -3.039242 -6.676593 -1.420843 0
M  V30 54 H -0.756627 -5.863249 -4.228590 0
M  V30 55 H 0.241428 -5.225327 -2.867451 0
M  V30 56 H 0.505755 -6.862939 -3.502887 0
M  V30 57 H 0.338031 -8.008999 -1.781323 0
M  V30 58 H -1.269562 -8.411720 -1.115877 0
M  V30 59 H -0.273522 -7.024616 -0.431362 0
M  V30 60 H -1.241052 0.214082 -1.415049 0
M  V30 61 H -1.352794 1.899499 -0.998135 0
M  V30 62 H 0.057665 0.873731 -0.446105 0
M  V30 END ATOM
M  V30 BEGIN BOND
M  V30 1 1 1 2
M  V30 2 1 2 3
M  V30 3 1 3 4
M  V30 4 1 4 5
M  V30 5 1 4 6
M  V30 6 1 6 7
M  V30 7 2 7 8
M  V30 8 1 8 9
M  V30 9 2 9 10
M  V30 10 1 10 11
M  V30 11 2 11 12
M  V30 12 1 12 13
M  V30 13 1 13 14
M  V30 14 2 14 15
M  V30 15 1 15 16
M  V30 16 2 16 17
M  V30 17 1 17 18
M  V30 18 1 18 19
M  V30 19 1 19 20
M  V30 20 1 20 21
M  V30 21 2 21 22
M  V30 22 1 21 23
M  V30 23 1 23 24
M  V30 24 1 24 25
M  V30 25 1 25 26
M  V30 26 1 26 27
M  V30 27 1 27 28
M  V30 28 1 27 29
M  V30 29 2 20 30
M  V30 30 1 30 31
M  V30 31 1 30 32
M  V30 32 1 12 7
M  V30 33 1 32 14
M  V30 34 2 32 18
M  V30 35 1 1 33
M  V30 36 1 1 34
M  V30 37 1 1 35
M  V30 38 1 3 36
M  V30 39 1 3 37
M  V30 40 1 4 38
M  V30 41 1 5 39
M  V30 42 1 5 40
M  V30 43 1 5 41
M  V30 44 1 9 42
M  V30 45 1 10 43
M  V30 46 1 11 44
M  V30 47 1 13 45
M  V30 48 1 16 46
M  V30 49 1 23 47
M  V30 50 1 24 48
M  V30 51 1 24 49
M  V30 52 1 25 50
M  V30 53 1 25 51
M  V30 54 1 26 52
M  V30 55 1 26 53
M  V30 56 1 28 54
M  V30 57 1 28 55
M  V30 58 1 28 56
M  V30 59 1 29 57
M  V30 60 1 29 58
M  V30 61 1 29 59
M  V30 62 1 31 60
M  V30 63 1 31 61
M  V30 64 1 31 62
M  V30 END BOND
M  V30 END CTAB
M  END
>  <Dataset>  (494) 
ChEMBL_Kinases

>  <Ligand_Instance>  (494) 
nan

>  <PDB_ID>  (494) 
nan

>  <Standardized_SMILES>  (494) 
COCC(C)Oc1ncccc1Nc1ncnc2sc(C(=O)NCCCN(C)C)c(C)c12

>  <Name>  (494) 
nan

>  <Pocket>  (494) 
nan

>  <ATP_Site>  (494) 
nan

>  <Peripheral>  (494) 
nan

>  <Num_H_Atoms_ProtBoundConf>  (494) 
nan

>  <Num_Resolved_Atoms>  (494) 
nan

>  <Num_Not_Resolved_Atoms>  (494) 
nan

$$$$
CHEMBL379458
     RDKit          3D

  0  0  0  0  0  0  0  0  0  0999 V3000
M  V30 BEGIN CTAB
M  V30 COUNTS 44 46 0 0 0
M  V30 BEGIN ATOM
M  V30 1 C -3.168687 0.857283 0.774143 0
M  V30 2 O -2.348357 0.000901 1.533798 0
M  V30 3 C -0.975010 0.171635 1.595516 0
M  V30 4 C -0.323699 1.179548 0.925695 0
M  V30 5 C 1.050239 1.309704 1.018101 0
M  V30 6 N 1.798508 2.323669 0.357159 0
M  V30 7 C 2.241474 3.639119 0.632064 0
M  V30 8 O 1.908776 4.072267 1.749320 0
M  V30 9 C 3.015670 4.302696 -0.410867 0
M  V30 10 C 3.390131 3.832356 -1.652389 0
M  V30 11 C 4.131204 4.640984 -2.489146 0
M  V30 12 C 4.496958 5.909653 -2.092134 0
M  V30 13 N 4.134048 6.383906 -0.871749 0
M  V30 14 C 3.401793 5.594957 -0.035578 0
M  V30 15 C 1.729448 0.400258 1.798206 0
M  V30 16 Cl 3.482192 0.529602 1.943776 0
M  V30 17 C 1.132281 -0.646246 2.504642 0
M  V30 18 C -0.257418 -0.720578 2.367948 0
M  V30 19 N -0.851844 -1.809065 3.106422 0
M  V30 20 C -0.915620 -2.987713 2.313865 0
M  V30 21 O -0.453646 -2.884690 1.129999 0
M  V30 22 N -1.448484 -4.231034 2.756188 0
M  V30 23 C -1.492232 -5.387516 1.926843 0
M  V30 24 C -2.012528 -6.585071 2.372268 0
M  V30 25 N -2.016644 -7.632949 1.523260 0
M  V30 26 C -1.527308 -7.513978 0.277329 0
M  V30 27 C -1.507034 -8.595660 -0.666402 0
M  V30 28 N -1.505850 -9.485282 -1.431392 0
M  V30 29 C -0.998085 -6.318826 -0.194580 0
M  V30 30 N -1.002665 -5.280841 0.670183 0
M  V30 31 H -3.005830 1.927974 1.085548 0
M  V30 32 H -2.919213 0.783182 -0.295125 0
M  V30 33 H -4.227572 0.664994 0.980797 0
M  V30 34 H -0.871741 1.886311 0.316645 0
M  V30 35 H 1.958421 1.758587 -0.512286 0
M  V30 36 H 3.052614 2.843702 -1.849158 0
M  V30 37 H 4.379386 4.189421 -3.442249 0
M  V30 38 H 5.085433 6.489699 -2.814401 0
M  V30 39 H 3.170617 6.065988 0.899179 0
M  V30 40 H 1.707885 -1.328014 3.098664 0
M  V30 41 H -1.218483 -1.852947 4.077081 0
M  V30 42 H -1.814767 -4.279278 3.722286 0
M  V30 43 H -2.407895 -6.684961 3.375839 0
M  V30 44 H -0.598581 -6.204564 -1.197721 0
M  V30 END ATOM
M  V30 BEGIN BOND
M  V30 1 1 1 2
M  V30 2 1 2 3
M  V30 3 2 3 4
M  V30 4 1 4 5
M  V30 5 1 5 6
M  V30 6 1 6 7
M  V30 7 2 7 8
M  V30 8 1 7 9
M  V30 9 2 9 10
M  V30 10 1 10 11
M  V30 11 2 11 12
M  V30 12 1 12 13
M  V30 13 2 13 14
M  V30 14 2 5 15
M  V30 15 1 15 16
M  V30 16 1 15 17
M  V30 17 2 17 18
M  V30 18 1 18 19
M  V30 19 1 19 20
M  V30 20 2 20 21
M  V30 21 1 20 22
M  V30 22 1 22 23
M  V30 23 2 23 24
M  V30 24 1 24 25
M  V30 25 2 25 26
M  V30 26 1 26 27
M  V30 27 3 27 28
M  V30 28 1 26 29
M  V30 29 2 29 30
M  V30 30 1 18 3
M  V30 31 1 30 23
M  V30 32 1 14 9
M  V30 33 1 1 31
M  V30 34 1 1 32
M  V30 35 1 1 33
M  V30 36 1 4 34
M  V30 37 1 6 35
M  V30 38 1 10 36
M  V30 39 1 11 37
M  V30 40 1 12 38
M  V30 41 1 14 39
M  V30 42 1 17 40
M  V30 43 1 19 41
M  V30 44 1 22 42
M  V30 45 1 24 43
M  V30 46 1 29 44
M  V30 END BOND
M  V30 END CTAB
M  END
>  <Dataset>  (495) 
ChEMBL_Kinases

>  <Ligand_Instance>  (495) 
nan

>  <PDB_ID>  (495) 
nan

>  <Standardized_SMILES>  (495) 
COc1cc(NC(=O)c2cccnc2)c(Cl)cc1NC(=O)Nc1cnc(C#N)cn1

>  <Name>  (495) 
nan

>  <Pocket>  (495) 
nan

>  <ATP_Site>  (495) 
nan

>  <Peripheral>  (495) 
nan

>  <Num_H_Atoms_ProtBoundConf>  (495) 
nan

>  <Num_Resolved_Atoms>  (495) 
nan

>  <Num_Not_Resolved_Atoms>  (495) 
nan

$$$$
CHEMBL3702261
     RDKit          3D

  0  0  0  0  0  0  0  0  0  0999 V3000
M  V30 BEGIN CTAB
M  V30 COUNTS 39 41 0 0 0
M  V30 BEGIN ATOM
M  V30 1 C -0.152997 -2.873397 0.920146 0
M  V30 2 C 1.156810 -2.486231 0.284940 0
M  V30 3 C 2.263028 -3.182431 0.638176 0
M  V30 4 C 2.433734 -4.273474 1.553732 0
M  V30 5 N 3.710442 -4.849720 1.784359 0
M  V30 6 O 1.667796 -4.926330 2.286416 0
M  V30 7 S 3.578105 -2.495682 -0.273886 0
M  V30 8 C 2.516456 -1.237885 -1.132006 0
M  V30 9 N 2.817044 -0.263600 -2.066510 0
M  V30 10 C 1.859547 0.523693 -2.541531 0
M  V30 11 N 0.653066 0.300652 -2.061528 0
M  V30 12 C 0.305534 -0.620935 -1.162198 0
M  V30 13 N -1.051486 -0.642879 -0.822672 0
M  V30 14 C -1.439043 0.594424 -0.189181 0
M  V30 15 C -2.464490 1.150506 -0.960855 0
M  V30 16 C -3.054831 2.369972 -0.615701 0
M  V30 17 C -2.567925 2.985121 0.522573 0
M  V30 18 N -1.584805 2.422797 1.236960 0
M  V30 19 C -0.987948 1.257818 0.947619 0
M  V30 20 O 0.010559 0.553954 1.555136 0
M  V30 21 C 0.655170 0.969288 2.706964 0
M  V30 22 C -0.187661 1.154888 3.920224 0
M  V30 23 O -1.193910 2.078040 3.823623 0
M  V30 24 C 1.237889 -1.472798 -0.625166 0
M  V30 25 H -0.016242 -3.363360 1.884622 0
M  V30 26 H -0.805997 -2.000261 1.115430 0
M  V30 27 H -0.729951 -3.579390 0.272953 0
M  V30 28 H 4.140437 -4.288177 2.579756 0
M  V30 29 H 4.481686 -5.523765 1.614430 0
M  V30 30 H 2.208550 1.235883 -3.255580 0
M  V30 31 H -1.777287 -1.407240 -0.968373 0
M  V30 32 H -2.925527 0.758948 -1.869903 0
M  V30 33 H -3.839461 2.852074 -1.157120 0
M  V30 34 H -2.953626 3.932252 0.880401 0
M  V30 35 H 1.434498 0.200350 2.962337 0
M  V30 36 H 1.246221 1.886637 2.485291 0
M  V30 37 H -0.616918 0.188577 4.261046 0
M  V30 38 H 0.485705 1.474458 4.756666 0
M  V30 39 H -1.925208 1.956420 4.454522 0
M  V30 END ATOM
M  V30 BEGIN BOND
M  V30 1 1 1 2
M  V30 2 2 2 3
M  V30 3 1 3 4
M  V30 4 1 4 5
M  V30 5 2 4 6
M  V30 6 1 3 7
M  V30 7 1 7 8
M  V30 8 2 8 9
M  V30 9 1 9 10
M  V30 10 2 10 11
M  V30 11 1 11 12
M  V30 12 1 12 13
M  V30 13 1 13 14
M  V30 14 2 14 15
M  V30 15 1 15 16
M  V30 16 2 16 17
M  V30 17 1 17 18
M  V30 18 2 18 19
M  V30 19 1 19 20
M  V30 20 1 20 21
M  V30 21 1 21 22
M  V30 22 1 22 23
M  V30 23 2 12 24
M  V30 24 1 24 2
M  V30 25 1 24 8
M  V30 26 1 19 14
M  V30 27 1 1 25
M  V30 28 1 1 26
M  V30 29 1 1 27
M  V30 30 1 5 28
M  V30 31 1 5 29
M  V30 32 1 10 30
M  V30 33 1 13 31
M  V30 34 1 15 32
M  V30 35 1 16 33
M  V30 36 1 17 34
M  V30 37 1 21 35
M  V30 38 1 21 36
M  V30 39 1 22 37
M  V30 40 1 22 38
M  V30 41 1 23 39
M  V30 END BOND
M  V30 END CTAB
M  END
>  <Dataset>  (496) 
ChEMBL_Kinases

>  <Ligand_Instance>  (496) 
nan

>  <PDB_ID>  (496) 
nan

>  <Standardized_SMILES>  (496) 
Cc1c(C(N)=O)sc2ncnc(Nc3cccnc3OCCO)c12

>  <Name>  (496) 
nan

>  <Pocket>  (496) 
nan

>  <ATP_Site>  (496) 
nan

>  <Peripheral>  (496) 
nan

>  <Num_H_Atoms_ProtBoundConf>  (496) 
nan

>  <Num_Resolved_Atoms>  (496) 
nan

>  <Num_Not_Resolved_Atoms>  (496) 
nan

$$$$
CHEMBL5072570
     RDKit          3D

  0  0  0  0  0  0  0  0  0  0999 V3000
M  V30 BEGIN CTAB
M  V30 COUNTS 56 60 0 0 0
M  V30 BEGIN ATOM
M  V30 1 C 3.348605 -2.743473 3.969568 0
M  V30 2 C 3.378801 -1.445776 3.263821 0
M  V30 3 C 3.769251 -1.424454 1.938686 0
M  V30 4 C 3.820408 -0.249017 1.219483 0
M  V30 5 C 3.488520 0.962126 1.775389 0
M  V30 6 S 3.479887 2.551436 1.105053 0
M  V30 7 O 4.504212 2.553683 -0.031131 0
M  V30 8 O 4.013956 3.522903 2.130482 0
M  V30 9 N 2.013506 3.070980 0.437950 0
M  V30 10 C 1.597692 2.249456 -0.666184 0
M  V30 11 C 0.278908 2.746378 -1.248318 0
M  V30 12 N -0.779957 2.704228 -0.265500 0
M  V30 13 C -1.372121 1.498294 0.247553 0
M  V30 14 N -2.260221 1.495560 1.249872 0
M  V30 15 C -2.806947 0.359987 1.672963 0
M  V30 16 C -2.408378 -0.792588 1.025154 0
M  V30 17 C -1.485050 -0.842786 -0.026570 0
M  V30 18 C -1.186976 -2.144260 -0.600582 0
M  V30 19 C -2.268709 -2.826241 -1.107368 0
M  V30 20 C -3.706724 -2.670360 -1.268615 0
M  V30 21 C -4.241948 -1.671507 -2.044663 0
M  V30 22 C -5.615932 -1.542512 -2.183998 0
M  V30 23 C -6.391650 -2.462452 -1.507341 0
M  V30 24 C -5.921191 -3.492875 -0.709210 0
M  V30 25 C -4.541307 -3.567967 -0.610672 0
M  V30 26 N -1.782570 -3.995166 -1.592208 0
M  V30 27 C -0.483652 -4.059683 -1.410561 0
M  V30 28 S 1.134552 -4.969404 -1.587297 0
M  V30 29 C 2.167640 -3.609445 -0.762622 0
M  V30 30 C 1.184801 -2.613057 -0.440772 0
M  V30 31 N -0.072209 -2.860732 -0.764125 0
M  V30 32 N -0.990837 0.369668 -0.376064 0
M  V30 33 C 3.094913 0.921091 3.119901 0
M  V30 34 C 3.035361 -0.230814 3.855772 0
M  V30 35 H 4.359911 -3.189390 4.111712 0
M  V30 36 H 2.746482 -3.486468 3.409786 0
M  V30 37 H 2.912544 -2.674968 4.977286 0
M  V30 38 H 4.047895 -2.324373 1.418248 0
M  V30 39 H 4.115408 -0.143075 0.173052 0
M  V30 40 H 1.268582 3.313249 1.093848 0
M  V30 41 H 1.483304 1.188148 -0.448495 0
M  V30 42 H 2.351120 2.362228 -1.475520 0
M  V30 43 H 0.385166 3.768269 -1.602247 0
M  V30 44 H 0.058589 2.096412 -2.120994 0
M  V30 45 H -1.176999 3.608611 0.131467 0
M  V30 46 H -3.523193 0.309953 2.473527 0
M  V30 47 H -2.848137 -1.722438 1.362777 0
M  V30 48 H -3.612780 -0.962385 -2.564796 0
M  V30 49 H -6.103647 -0.775089 -2.782693 0
M  V30 50 H -7.488578 -2.401851 -1.586575 0
M  V30 51 H -6.608760 -4.166330 -0.217428 0
M  V30 52 H -4.111888 -4.359832 0.004223 0
M  V30 53 H 3.176651 -3.739580 -0.661595 0
M  V30 54 H 1.654705 -1.779628 0.035103 0
M  V30 55 H 2.802573 1.783588 3.701013 0
M  V30 56 H 2.739922 -0.302138 4.883300 0
M  V30 END ATOM
M  V30 BEGIN BOND
M  V30 1 1 1 2
M  V30 2 2 2 3
M  V30 3 1 3 4
M  V30 4 2 4 5
M  V30 5 1 5 6
M  V30 6 2 6 7
M  V30 7 2 6 8
M  V30 8 1 6 9
M  V30 9 1 9 10
M  V30 10 1 10 11
M  V30 11 1 11 12
M  V30 12 1 12 13
M  V30 13 2 13 14
M  V30 14 1 14 15
M  V30 15 2 15 16
M  V30 16 1 16 17
M  V30 17 1 17 18
M  V30 18 2 18 19
M  V30 19 1 19 20
M  V30 20 2 20 21
M  V30 21 1 21 22
M  V30 22 2 22 23
M  V30 23 1 23 24
M  V30 24 2 24 25
M  V30 25 1 19 26
M  V30 26 2 26 27
M  V30 27 1 27 28
M  V30 28 1 28 29
M  V30 29 2 29 30
M  V30 30 1 30 31
M  V30 31 2 17 32
M  V30 32 1 5 33
M  V30 33 2 33 34
M  V30 34 1 34 2
M  V30 35 1 32 13
M  V30 36 1 31 18
M  V30 37 1 25 20
M  V30 38 1 31 27
M  V30 39 1 1 35
M  V30 40 1 1 36
M  V30 41 1 1 37
M  V30 42 1 3 38
M  V30 43 1 4 39
M  V30 44 1 9 40
M  V30 45 1 10 41
M  V30 46 1 10 42
M  V30 47 1 11 43
M  V30 48 1 11 44
M  V30 49 1 12 45
M  V30 50 1 15 46
M  V30 51 1 16 47
M  V30 52 1 21 48
M  V30 53 1 22 49
M  V30 54 1 23 50
M  V30 55 1 24 51
M  V30 56 1 25 52
M  V30 57 1 29 53
M  V30 58 1 30 54
M  V30 59 1 33 55
M  V30 60 1 34 56
M  V30 END BOND
M  V30 END CTAB
M  END
>  <Dataset>  (497) 
ChEMBL_Kinases

>  <Ligand_Instance>  (497) 
nan

>  <PDB_ID>  (497) 
nan

>  <Standardized_SMILES>  (497) 
Cc1ccc(S(=O)(=O)NCCNc2nccc(-c3c(-c4ccccc4)nc4sccn34)n2)cc1

>  <Name>  (497) 
nan

>  <Pocket>  (497) 
nan

>  <ATP_Site>  (497) 
nan

>  <Peripheral>  (497) 
nan

>  <Num_H_Atoms_ProtBoundConf>  (497) 
nan

>  <Num_Resolved_Atoms>  (497) 
nan

>  <Num_Not_Resolved_Atoms>  (497) 
nan

$$$$
CHEMBL3793969
     RDKit          3D

  0  0  0  0  0  0  0  0  0  0999 V3000
M  V30 BEGIN CTAB
M  V30 COUNTS 39 41 0 0 0
M  V30 BEGIN ATOM
M  V30 1 N -0.561556 -3.678870 1.156928 0
M  V30 2 C 0.372599 -3.211704 2.149692 0
M  V30 3 C 0.122160 -1.762852 2.490258 0
M  V30 4 C 0.246408 -0.867172 1.345201 0
M  V30 5 O -0.668160 -0.035309 1.099896 0
M  V30 6 N 1.431497 -1.011637 0.572600 0
M  V30 7 C 1.601484 -0.148045 -0.571227 0
M  V30 8 C 1.080124 -0.681377 -1.743192 0
M  V30 9 C 1.187839 0.060218 -2.897727 0
M  V30 10 C 1.801061 1.287794 -2.847126 0
M  V30 11 C 1.925035 2.062160 -4.000908 0
M  V30 12 N 2.522881 3.279707 -3.997521 0
M  V30 13 C 3.009037 3.752541 -2.850455 0
M  V30 14 C 2.918975 3.030634 -1.659744 0
M  V30 15 C 2.304239 1.776758 -1.659043 0
M  V30 16 C 2.217515 1.061423 -0.467863 0
M  V30 17 C -1.122559 -1.592715 3.280210 0
M  V30 18 C -2.383564 -1.782577 2.772808 0
M  V30 19 C -3.561178 -1.637628 3.468193 0
M  V30 20 C -3.478078 -1.266813 4.801388 0
M  V30 21 F -4.584046 -1.099245 5.568503 0
M  V30 22 C -2.237268 -1.050352 5.407893 0
M  V30 23 F -2.157156 -0.691646 6.697494 0
M  V30 24 C -1.122582 -1.223669 4.618782 0
M  V30 25 H -1.384816 -4.173689 1.547827 0
M  V30 26 H -0.767300 -3.016094 0.401974 0
M  V30 27 H 1.381245 -3.405655 1.792041 0
M  V30 28 H 0.226271 -3.853561 3.043370 0
M  V30 29 H 0.962668 -1.476566 3.193683 0
M  V30 30 H 2.175563 -1.710630 0.798052 0
M  V30 31 H 0.595149 -1.646647 -1.795363 0
M  V30 32 H 0.816309 -0.261594 -3.861576 0
M  V30 33 H 1.532088 1.684829 -4.938535 0
M  V30 34 H 3.495968 4.713963 -2.780790 0
M  V30 35 H 3.321617 3.433764 -0.735317 0
M  V30 36 H 2.596909 1.417511 0.455754 0
M  V30 37 H -2.511495 -2.070455 1.741259 0
M  V30 38 H -4.535001 -1.798931 3.023382 0
M  V30 39 H -0.182919 -1.046673 5.125310 0
M  V30 END ATOM
M  V30 BEGIN BOND
M  V30 1 1 1 2
M  V30 2 1 2 3
M  V30 3 1 3 4
M  V30 4 2 4 5
M  V30 5 1 4 6
M  V30 6 1 6 7
M  V30 7 2 7 8
M  V30 8 1 8 9
M  V30 9 2 9 10
M  V30 10 1 10 11
M  V30 11 2 11 12
M  V30 12 1 12 13
M  V30 13 2 13 14
M  V30 14 1 14 15
M  V30 15 2 15 16
M  V30 16 1 3 17
M  V30 17 2 17 18
M  V30 18 1 18 19
M  V30 19 2 19 20
M  V30 20 1 20 21
M  V30 21 1 20 22
M  V30 22 1 22 23
M  V30 23 2 22 24
M  V30 24 1 16 7
M  V30 25 1 24 17
M  V30 26 1 15 10
M  V30 27 1 1 25
M  V30 28 1 1 26
M  V30 29 1 2 27
M  V30 30 1 2 28
M  V30 31 1 3 29
M  V30 32 1 6 30
M  V30 33 1 8 31
M  V30 34 1 9 32
M  V30 35 1 11 33
M  V30 36 1 13 34
M  V30 37 1 14 35
M  V30 38 1 16 36
M  V30 39 1 18 37
M  V30 40 1 19 38
M  V30 41 1 24 39
M  V30 END BOND
M  V30 END CTAB
M  END
>  <Dataset>  (498) 
ChEMBL_Kinases

>  <Ligand_Instance>  (498) 
nan

>  <PDB_ID>  (498) 
nan

>  <Standardized_SMILES>  (498) 
NCC(C(=O)Nc1ccc2cnccc2c1)c1ccc(F)c(F)c1

>  <Name>  (498) 
nan

>  <Pocket>  (498) 
nan

>  <ATP_Site>  (498) 
nan

>  <Peripheral>  (498) 
nan

>  <Num_H_Atoms_ProtBoundConf>  (498) 
nan

>  <Num_Resolved_Atoms>  (498) 
nan

>  <Num_Not_Resolved_Atoms>  (498) 
nan

$$$$
CHEMBL3794435
     RDKit          3D

  0  0  0  0  0  0  0  0  0  0999 V3000
M  V30 BEGIN CTAB
M  V30 COUNTS 52 55 0 0 0
M  V30 BEGIN ATOM
M  V30 1 N -2.722272 -4.564346 -2.568164 0
M  V30 2 C -1.908605 -3.428204 -2.991327 0
M  V30 3 C -1.145898 -2.968341 -1.795928 0
M  V30 4 C -2.110558 -2.557942 -0.710585 0
M  V30 5 O -2.157651 -3.192165 0.402284 0
M  V30 6 N -3.048924 -1.496405 -0.729166 0
M  V30 7 C -3.858977 -1.286901 0.403842 0
M  V30 8 C -5.106477 -1.814448 0.710882 0
M  V30 9 C -5.728973 -1.470673 1.890675 0
M  V30 10 C -5.153882 -0.610505 2.792546 0
M  V30 11 C -5.816595 -0.293898 3.965039 0
M  V30 12 N -5.256096 0.555393 4.862530 0
M  V30 13 C -4.043089 1.089651 4.599998 0
M  V30 14 C -3.358536 0.790281 3.435662 0
M  V30 15 C -3.907778 -0.071768 2.505773 0
M  V30 16 C -3.263446 -0.409735 1.314813 0
M  V30 17 C -0.240546 -1.835057 -2.029357 0
M  V30 18 C 0.999396 -1.975232 -1.417281 0
M  V30 19 C 2.011635 -1.015229 -1.519499 0
M  V30 20 C 1.783583 0.121136 -2.254212 0
M  V30 21 O 2.769471 1.092796 -2.374113 0
M  V30 22 C 3.729749 1.144370 -3.351895 0
M  V30 23 O 3.887343 0.331749 -4.302410 0
M  V30 24 C 4.682507 2.249696 -3.307713 0
M  V30 25 C 5.686518 2.392823 -4.244157 0
M  V30 26 C 6.616415 3.413317 -4.257112 0
M  V30 27 C 6.526170 4.369352 -3.240677 0
M  V30 28 C 5.545219 4.283563 -2.273734 0
M  V30 29 C 4.645359 3.229172 -2.325527 0
M  V30 30 C 0.555240 0.269224 -2.865920 0
M  V30 31 C -0.433142 -0.686541 -2.755988 0
M  V30 32 H -2.903663 -5.250103 -3.311606 0
M  V30 33 H -3.553883 -4.295743 -2.026413 0
M  V30 34 H -1.223369 -3.800207 -3.777222 0
M  V30 35 H -2.613593 -2.682975 -3.379261 0
M  V30 36 H -0.582007 -3.849867 -1.379921 0
M  V30 37 H -3.079816 -0.928490 -1.601928 0
M  V30 38 H -5.470230 -2.477788 -0.061274 0
M  V30 39 H -6.700325 -1.920331 2.063971 0
M  V30 40 H -6.792628 -0.709249 4.200862 0
M  V30 41 H -3.528260 1.774534 5.263359 0
M  V30 42 H -2.384750 1.214035 3.216221 0
M  V30 43 H -2.294349 0.071065 1.196344 0
M  V30 44 H 1.289663 -2.843815 -0.805799 0
M  V30 45 H 2.966604 -1.140880 -1.038177 0
M  V30 46 H 5.750068 1.647036 -5.029737 0
M  V30 47 H 7.386572 3.489750 -5.007538 0
M  V30 48 H 7.216608 5.204681 -3.175607 0
M  V30 49 H 5.429943 5.001986 -1.459153 0
M  V30 50 H 3.871070 3.161740 -1.562027 0
M  V30 51 H 0.314119 1.150972 -3.463637 0
M  V30 52 H -1.397245 -0.603796 -3.224842 0
M  V30 END ATOM
M  V30 BEGIN BOND
M  V30 1 1 1 2
M  V30 2 1 2 3
M  V30 3 1 3 4
M  V30 4 2 4 5
M  V30 5 1 4 6
M  V30 6 1 6 7
M  V30 7 2 7 8
M  V30 8 1 8 9
M  V30 9 2 9 10
M  V30 10 1 10 11
M  V30 11 2 11 12
M  V30 12 1 12 13
M  V30 13 2 13 14
M  V30 14 1 14 15
M  V30 15 2 15 16
M  V30 16 1 3 17
M  V30 17 2 17 18
M  V30 18 1 18 19
M  V30 19 2 19 20
M  V30 20 1 20 21
M  V30 21 1 21 22
M  V30 22 2 22 23
M  V30 23 1 22 24
M  V30 24 2 24 25
M  V30 25 1 25 26
M  V30 26 2 26 27
M  V30 27 1 27 28
M  V30 28 2 28 29
M  V30 29 1 20 30
M  V30 30 2 30 31
M  V30 31 1 16 7
M  V30 32 1 31 17
M  V30 33 1 15 10
M  V30 34 1 29 24
M  V30 35 1 1 32
M  V30 36 1 1 33
M  V30 37 1 2 34
M  V30 38 1 2 35
M  V30 39 1 3 36
M  V30 40 1 6 37
M  V30 41 1 8 38
M  V30 42 1 9 39
M  V30 43 1 11 40
M  V30 44 1 13 41
M  V30 45 1 14 42
M  V30 46 1 16 43
M  V30 47 1 18 44
M  V30 48 1 19 45
M  V30 49 1 25 46
M  V30 50 1 26 47
M  V30 51 1 27 48
M  V30 52 1 28 49
M  V30 53 1 29 50
M  V30 54 1 30 51
M  V30 55 1 31 52
M  V30 END BOND
M  V30 END CTAB
M  END
>  <Dataset>  (499) 
ChEMBL_Kinases

>  <Ligand_Instance>  (499) 
nan

>  <PDB_ID>  (499) 
nan

>  <Standardized_SMILES>  (499) 
NCC(C(=O)Nc1ccc2cnccc2c1)c1ccc(OC(=O)c2ccccc2)cc1

>  <Name>  (499) 
nan

>  <Pocket>  (499) 
nan

>  <ATP_Site>  (499) 
nan

>  <Peripheral>  (499) 
nan

>  <Num_H_Atoms_ProtBoundConf>  (499) 
nan

>  <Num_Resolved_Atoms>  (499) 
nan

>  <Num_Not_Resolved_Atoms>  (499) 
nan

$$$$
CHEMBL3794389
     RDKit          3D

  0  0  0  0  0  0  0  0  0  0999 V3000
M  V30 BEGIN CTAB
M  V30 COUNTS 61 64 0 0 0
M  V30 BEGIN ATOM
M  V30 1 C 5.186421 -2.868266 6.148449 0
M  V30 2 C 5.120916 -2.089068 4.877972 0
M  V30 3 C 6.267598 -1.684074 4.201852 0
M  V30 4 C 6.251672 -0.964723 3.028276 0
M  V30 5 C 5.009691 -0.620701 2.483446 0
M  V30 6 C 5.019392 0.150239 1.225406 0
M  V30 7 O 6.111269 0.485716 0.662827 0
M  V30 8 O 3.857659 0.532662 0.617493 0
M  V30 9 C 3.701425 1.256912 -0.562590 0
M  V30 10 C 2.236918 1.404409 -0.784247 0
M  V30 11 C 1.440639 2.434485 -0.324742 0
M  V30 12 C 0.087349 2.465574 -0.593647 0
M  V30 13 C -0.536883 1.459209 -1.340881 0
M  V30 14 C -1.997500 1.528796 -1.606523 0
M  V30 15 C -2.233960 1.717539 -3.087405 0
M  V30 16 N -1.704636 0.655891 -3.901505 0
M  V30 17 C -2.687582 0.339404 -1.070167 0
M  V30 18 O -1.929306 -0.491257 -0.500770 0
M  V30 19 N -4.095301 0.219961 -1.226580 0
M  V30 20 C -4.642260 -0.975117 -0.664708 0
M  V30 21 C -5.088251 -1.050116 0.642150 0
M  V30 22 C -5.618792 -2.215817 1.181983 0
M  V30 23 C -5.701100 -3.335581 0.380547 0
M  V30 24 C -6.215964 -4.527082 0.847850 0
M  V30 25 N -6.310531 -5.639205 0.091647 0
M  V30 26 C -5.884297 -5.607244 -1.194861 0
M  V30 27 C -5.361358 -4.441599 -1.711427 0
M  V30 28 C -5.271696 -3.305656 -0.917658 0
M  V30 29 C -4.747932 -2.138525 -1.435135 0
M  V30 30 C 0.217667 0.408980 -1.821546 0
M  V30 31 C 1.567311 0.423498 -1.525606 0
M  V30 32 C 3.837159 -1.009913 3.134114 0
M  V30 33 C 2.533795 -0.619630 2.514294 0
M  V30 34 C 3.909377 -1.730464 4.308939 0
M  V30 35 H 4.952393 -3.944459 5.981674 0
M  V30 36 H 4.408304 -2.498198 6.834416 0
M  V30 37 H 6.146096 -2.741197 6.649450 0
M  V30 38 H 7.211500 -1.980164 4.672461 0
M  V30 39 H 7.208219 -0.711046 2.601816 0
M  V30 40 H 4.104088 0.629624 -1.385188 0
M  V30 41 H 4.191644 2.253037 -0.535724 0
M  V30 42 H 1.960879 3.189736 0.247040 0
M  V30 43 H -0.501389 3.290037 -0.215619 0
M  V30 44 H -2.427984 2.422164 -1.109224 0
M  V30 45 H -1.715281 2.644501 -3.408710 0
M  V30 46 H -3.298592 1.878556 -3.318615 0
M  V30 47 H -1.095170 0.991399 -4.695204 0
M  V30 48 H -2.508455 0.154136 -4.373271 0
M  V30 49 H -4.631329 0.982273 -1.723999 0
M  V30 50 H -4.986974 -0.114381 1.211341 0
M  V30 51 H -5.950470 -2.224279 2.198754 0
M  V30 52 H -6.563903 -4.574700 1.877813 0
M  V30 53 H -6.000773 -6.541942 -1.716660 0
M  V30 54 H -5.031474 -4.453661 -2.741760 0
M  V30 55 H -4.405076 -2.111007 -2.468237 0
M  V30 56 H -0.196548 -0.394165 -2.399098 0
M  V30 57 H 2.156371 -0.395893 -1.900427 0
M  V30 58 H 2.389348 -1.045889 1.520162 0
M  V30 59 H 1.713831 -0.988639 3.181515 0
M  V30 60 H 2.495668 0.486941 2.559437 0
M  V30 61 H 3.018353 -2.032635 4.814039 0
M  V30 END ATOM
M  V30 BEGIN BOND
M  V30 1 1 1 2
M  V30 2 2 2 3
M  V30 3 1 3 4
M  V30 4 2 4 5
M  V30 5 1 5 6
M  V30 6 2 6 7
M  V30 7 1 6 8
M  V30 8 1 8 9
M  V30 9 1 9 10
M  V30 10 2 10 11
M  V30 11 1 11 12
M  V30 12 2 12 13
M  V30 13 1 13 14
M  V30 14 1 14 15
M  V30 15 1 15 16
M  V30 16 1 14 17
M  V30 17 2 17 18
M  V30 18 1 17 19
M  V30 19 1 19 20
M  V30 20 2 20 21
M  V30 21 1 21 22
M  V30 22 2 22 23
M  V30 23 1 23 24
M  V30 24 2 24 25
M  V30 25 1 25 26
M  V30 26 2 26 27
M  V30 27 1 27 28
M  V30 28 2 28 29
M  V30 29 1 13 30
M  V30 30 2 30 31
M  V30 31 1 5 32
M  V30 32 1 32 33
M  V30 33 2 32 34
M  V30 34 1 34 2
M  V30 35 1 31 10
M  V30 36 1 29 20
M  V30 37 1 28 23
M  V30 38 1 1 35
M  V30 39 1 1 36
M  V30 40 1 1 37
M  V30 41 1 3 38
M  V30 42 1 4 39
M  V30 43 1 9 40
M  V30 44 1 9 41
M  V30 45 1 11 42
M  V30 46 1 12 43
M  V30 47 1 14 44
M  V30 48 1 15 45
M  V30 49 1 15 46
M  V30 50 1 16 47
M  V30 51 1 16 48
M  V30 52 1 19 49
M  V30 53 1 21 50
M  V30 54 1 22 51
M  V30 55 1 24 52
M  V30 56 1 26 53
M  V30 57 1 27 54
M  V30 58 1 29 55
M  V30 59 1 30 56
M  V30 60 1 31 57
M  V30 61 1 33 58
M  V30 62 1 33 59
M  V30 63 1 33 60
M  V30 64 1 34 61
M  V30 END BOND
M  V30 END CTAB
M  END
>  <Dataset>  (500) 
ChEMBL_Kinases

>  <Ligand_Instance>  (500) 
nan

>  <PDB_ID>  (500) 
nan

>  <Standardized_SMILES>  (500) 
Cc1ccc(C(=O)OCc2ccc(C(CN)C(=O)Nc3ccc4cnccc4c3)cc2)c(C)c1

>  <Name>  (500) 
nan

>  <Pocket>  (500) 
nan

>  <ATP_Site>  (500) 
nan

>  <Peripheral>  (500) 
nan

>  <Num_H_Atoms_ProtBoundConf>  (500) 
nan

>  <Num_Resolved_Atoms>  (500) 
nan

>  <Num_Not_Resolved_Atoms>  (500) 
nan

$$$$
CHEMBL3794298
     RDKit          3D

  0  0  0  0  0  0  0  0  0  0999 V3000
M  V30 BEGIN CTAB
M  V30 COUNTS 43 45 0 0 0
M  V30 BEGIN ATOM
M  V30 1 C -1.059892 -5.614168 1.901290 0
M  V30 2 C -0.047157 -4.586312 1.505772 0
M  V30 3 C -0.342993 -3.682567 0.497007 0
M  V30 4 C 0.537265 -2.707952 0.077407 0
M  V30 5 C 0.238668 -1.731248 -1.001039 0
M  V30 6 C 1.145094 -1.872212 -2.190908 0
M  V30 7 N 2.531902 -1.684578 -1.888528 0
M  V30 8 C 0.324214 -0.377346 -0.396562 0
M  V30 9 O 0.619987 -0.578577 0.810185 0
M  V30 10 N 0.127826 0.878944 -0.994689 0
M  V30 11 C 0.324606 1.890893 0.015503 0
M  V30 12 C 1.517447 2.509806 0.329593 0
M  V30 13 C 1.529381 3.463220 1.330455 0
M  V30 14 C 0.345797 3.757401 1.975516 0
M  V30 15 C 0.337378 4.707523 2.978674 0
M  V30 16 N -0.777835 5.063030 3.668965 0
M  V30 17 C -1.939619 4.444332 3.346308 0
M  V30 18 C -2.034040 3.472814 2.349740 0
M  V30 19 C -0.861566 3.163329 1.691705 0
M  V30 20 C -0.864370 2.204664 0.682725 0
M  V30 21 C 1.765545 -2.658180 0.715354 0
M  V30 22 C 2.123744 -3.529151 1.728264 0
M  V30 23 C 1.192683 -4.486352 2.103291 0
M  V30 24 O 1.527630 -5.387665 3.131576 0
M  V30 25 H -1.648563 -5.230855 2.784325 0
M  V30 26 H -1.764497 -5.728237 1.075720 0
M  V30 27 H -0.594327 -6.541624 2.265896 0
M  V30 28 H -1.293907 -3.727521 0.009117 0
M  V30 29 H -0.793952 -1.961651 -1.361432 0
M  V30 30 H 1.014719 -2.855754 -2.640157 0
M  V30 31 H 0.807402 -1.116195 -2.930198 0
M  V30 32 H 3.169978 -2.336619 -2.380888 0
M  V30 33 H 2.844967 -0.691295 -1.903273 0
M  V30 34 H -0.113541 0.822433 -2.019482 0
M  V30 35 H 2.375202 2.191412 -0.248698 0
M  V30 36 H 2.475490 3.939484 1.564152 0
M  V30 37 H 1.235472 5.224279 3.268634 0
M  V30 38 H -2.892068 4.658127 3.841240 0
M  V30 39 H -2.976490 2.994152 2.112473 0
M  V30 40 H -1.821788 1.744934 0.469633 0
M  V30 41 H 2.543009 -1.939752 0.477704 0
M  V30 42 H 3.070442 -3.513423 2.241093 0
M  V30 43 H 2.075720 -4.970924 3.895332 0
M  V30 END ATOM
M  V30 BEGIN BOND
M  V30 1 1 1 2
M  V30 2 2 2 3
M  V30 3 1 3 4
M  V30 4 1 4 5
M  V30 5 1 5 6
M  V30 6 1 6 7
M  V30 7 1 5 8
M  V30 8 2 8 9
M  V30 9 1 8 10
M  V30 10 1 10 11
M  V30 11 2 11 12
M  V30 12 1 12 13
M  V30 13 2 13 14
M  V30 14 1 14 15
M  V30 15 2 15 16
M  V30 16 1 16 17
M  V30 17 2 17 18
M  V30 18 1 18 19
M  V30 19 2 19 20
M  V30 20 2 4 21
M  V30 21 1 21 22
M  V30 22 2 22 23
M  V30 23 1 23 24
M  V30 24 1 23 2
M  V30 25 1 20 11
M  V30 26 1 19 14
M  V30 27 1 1 25
M  V30 28 1 1 26
M  V30 29 1 1 27
M  V30 30 1 3 28
M  V30 31 1 5 29
M  V30 32 1 6 30
M  V30 33 1 6 31
M  V30 34 1 7 32
M  V30 35 1 7 33
M  V30 36 1 10 34
M  V30 37 1 12 35
M  V30 38 1 13 36
M  V30 39 1 15 37
M  V30 40 1 17 38
M  V30 41 1 18 39
M  V30 42 1 20 40
M  V30 43 1 21 41
M  V30 44 1 22 42
M  V30 45 1 24 43
M  V30 END BOND
M  V30 END CTAB
M  END
>  <Dataset>  (501) 
ChEMBL_Kinases

>  <Ligand_Instance>  (501) 
nan

>  <PDB_ID>  (501) 
nan

>  <Standardized_SMILES>  (501) 
Cc1cc(C(CN)C(=O)Nc2ccc3cnccc3c2)ccc1O

>  <Name>  (501) 
nan

>  <Pocket>  (501) 
nan

>  <ATP_Site>  (501) 
nan

>  <Peripheral>  (501) 
nan

>  <Num_H_Atoms_ProtBoundConf>  (501) 
nan

>  <Num_Resolved_Atoms>  (501) 
nan

>  <Num_Not_Resolved_Atoms>  (501) 
nan

$$$$
CHEMBL3794270
     RDKit          3D

  0  0  0  0  0  0  0  0  0  0999 V3000
M  V30 BEGIN CTAB
M  V30 COUNTS 39 41 0 0 0
M  V30 BEGIN ATOM
M  V30 1 N 0.863353 -3.968142 3.160117 0
M  V30 2 C 0.773319 -3.175538 1.931291 0
M  V30 3 C 0.231119 -1.826406 2.307393 0
M  V30 4 C 0.085085 -0.905598 1.142450 0
M  V30 5 O -0.737153 -0.210738 0.488236 0
M  V30 6 N 1.347447 -0.715550 0.493805 0
M  V30 7 C 1.429773 0.145603 -0.664843 0
M  V30 8 C 1.250962 -0.336641 -1.951972 0
M  V30 9 C 1.348262 0.569124 -3.013601 0
M  V30 10 C 1.615248 1.896624 -2.755475 0
M  V30 11 C 1.717386 2.818830 -3.791258 0
M  V30 12 N 1.975782 4.118166 -3.580948 0
M  V30 13 C 2.144647 4.558738 -2.324742 0
M  V30 14 C 2.062504 3.722775 -1.233529 0
M  V30 15 C 1.793610 2.373379 -1.459856 0
M  V30 16 C 1.700562 1.484554 -0.382602 0
M  V30 17 C -1.115807 -1.970353 2.921438 0
M  V30 18 C -2.318362 -1.955972 2.244463 0
M  V30 19 C -3.510971 -2.102970 2.955343 0
M  V30 20 C -3.554814 -2.265644 4.329523 0
M  V30 21 C -2.347772 -2.278182 4.992783 0
M  V30 22 C -1.178483 -2.133366 4.289867 0
M  V30 23 F -0.065081 -2.162835 5.055077 0
M  V30 24 H -0.121328 -4.289458 3.377752 0
M  V30 25 H 1.370641 -4.875261 2.932874 0
M  V30 26 H 0.157236 -3.724694 1.216822 0
M  V30 27 H 1.797582 -3.074391 1.527437 0
M  V30 28 H 0.924771 -1.389082 3.054437 0
M  V30 29 H 2.331628 -1.080298 0.662600 0
M  V30 30 H 1.044783 -1.386479 -2.083706 0
M  V30 31 H 1.208169 0.197116 -4.038047 0
M  V30 32 H 1.585754 2.490804 -4.812684 0
M  V30 33 H 2.356885 5.609951 -2.108149 0
M  V30 34 H 2.193219 4.046385 -0.213409 0
M  V30 35 H 1.838042 1.851034 0.618760 0
M  V30 36 H -2.273809 -1.829650 1.182186 0
M  V30 37 H -4.425933 -2.084421 2.375069 0
M  V30 38 H -4.501539 -2.375392 4.834283 0
M  V30 39 H -2.409754 -2.406827 6.066928 0
M  V30 END ATOM
M  V30 BEGIN BOND
M  V30 1 1 1 2
M  V30 2 1 2 3
M  V30 3 1 3 4
M  V30 4 2 4 5
M  V30 5 1 4 6
M  V30 6 1 6 7
M  V30 7 2 7 8
M  V30 8 1 8 9
M  V30 9 2 9 10
M  V30 10 1 10 11
M  V30 11 2 11 12
M  V30 12 1 12 13
M  V30 13 2 13 14
M  V30 14 1 14 15
M  V30 15 2 15 16
M  V30 16 1 3 17
M  V30 17 2 17 18
M  V30 18 1 18 19
M  V30 19 2 19 20
M  V30 20 1 20 21
M  V30 21 2 21 22
M  V30 22 1 22 23
M  V30 23 1 16 7
M  V30 24 1 22 17
M  V30 25 1 15 10
M  V30 26 1 1 24
M  V30 27 1 1 25
M  V30 28 1 2 26
M  V30 29 1 2 27
M  V30 30 1 3 28
M  V30 31 1 6 29
M  V30 32 1 8 30
M  V30 33 1 9 31
M  V30 34 1 11 32
M  V30 35 1 13 33
M  V30 36 1 14 34
M  V30 37 1 16 35
M  V30 38 1 18 36
M  V30 39 1 19 37
M  V30 40 1 20 38
M  V30 41 1 21 39
M  V30 END BOND
M  V30 END CTAB
M  END
>  <Dataset>  (502) 
ChEMBL_Kinases

>  <Ligand_Instance>  (502) 
nan

>  <PDB_ID>  (502) 
nan

>  <Standardized_SMILES>  (502) 
NCC(C(=O)Nc1ccc2cnccc2c1)c1ccccc1F

>  <Name>  (502) 
nan

>  <Pocket>  (502) 
nan

>  <ATP_Site>  (502) 
nan

>  <Peripheral>  (502) 
nan

>  <Num_H_Atoms_ProtBoundConf>  (502) 
nan

>  <Num_Resolved_Atoms>  (502) 
nan

>  <Num_Not_Resolved_Atoms>  (502) 
nan

$$$$
CHEMBL3794254
     RDKit          3D

  0  0  0  0  0  0  0  0  0  0999 V3000
M  V30 BEGIN CTAB
M  V30 COUNTS 41 43 0 0 0
M  V30 BEGIN ATOM
M  V30 1 N -0.882048 -3.465200 0.350003 0
M  V30 2 C -0.084414 -3.791465 1.494836 0
M  V30 3 C 0.325560 -2.573512 2.245470 0
M  V30 4 C 1.124206 -1.623876 1.438860 0
M  V30 5 O 2.331006 -1.386511 1.731097 0
M  V30 6 N 0.667114 -0.903434 0.304602 0
M  V30 7 C 1.285729 0.010441 -0.543067 0
M  V30 8 C 0.547067 0.556225 -1.595925 0
M  V30 9 C 1.060674 1.459608 -2.482071 0
M  V30 10 C 2.368515 1.876411 -2.362621 0
M  V30 11 C 2.889776 2.788312 -3.255729 0
M  V30 12 N 4.167408 3.174509 -3.112573 0
M  V30 13 C 4.980378 2.710420 -2.126107 0
M  V30 14 C 4.448083 1.789118 -1.226584 0
M  V30 15 C 3.143117 1.366431 -1.337199 0
M  V30 16 C 2.558712 0.457061 -0.478429 0
M  V30 17 C -0.837916 -1.930292 2.895803 0
M  V30 18 C -0.713937 -1.608042 4.250503 0
M  V30 19 C -1.725159 -1.004252 5.007906 0
M  V30 20 C -2.918620 -0.702903 4.399620 0
M  V30 21 O -3.927475 -0.108710 5.124826 0
M  V30 22 C -3.072224 -1.005347 3.075451 0
M  V30 23 O -4.270891 -0.709167 2.440909 0
M  V30 24 C -2.055077 -1.597389 2.369886 0
M  V30 25 H -0.355524 -3.622901 -0.538836 0
M  V30 26 H -1.807928 -3.953787 0.320231 0
M  V30 27 H 0.748797 -4.469791 1.244231 0
M  V30 28 H -0.745665 -4.398649 2.171976 0
M  V30 29 H 1.003714 -2.876647 3.099911 0
M  V30 30 H -0.349393 -1.153975 0.111821 0
M  V30 31 H -0.504354 0.265904 -1.748429 0
M  V30 32 H 0.445248 1.851093 -3.279494 0
M  V30 33 H 2.295568 3.209160 -4.079717 0
M  V30 34 H 6.011079 3.031331 -2.022422 0
M  V30 35 H 5.039497 1.382397 -0.421785 0
M  V30 36 H 3.214586 0.115422 0.276078 0
M  V30 37 H 0.194889 -1.804191 4.834993 0
M  V30 38 H -1.590543 -0.771471 6.050974 0
M  V30 39 H -4.848289 0.021840 4.715280 0
M  V30 40 H -4.376834 0.114060 1.861934 0
M  V30 41 H -2.231599 -1.814284 1.348869 0
M  V30 END ATOM
M  V30 BEGIN BOND
M  V30 1 1 1 2
M  V30 2 1 2 3
M  V30 3 1 3 4
M  V30 4 2 4 5
M  V30 5 1 4 6
M  V30 6 1 6 7
M  V30 7 2 7 8
M  V30 8 1 8 9
M  V30 9 2 9 10
M  V30 10 1 10 11
M  V30 11 2 11 12
M  V30 12 1 12 13
M  V30 13 2 13 14
M  V30 14 1 14 15
M  V30 15 2 15 16
M  V30 16 1 3 17
M  V30 17 2 17 18
M  V30 18 1 18 19
M  V30 19 2 19 20
M  V30 20 1 20 21
M  V30 21 1 20 22
M  V30 22 1 22 23
M  V30 23 2 22 24
M  V30 24 1 16 7
M  V30 25 1 24 17
M  V30 26 1 15 10
M  V30 27 1 1 25
M  V30 28 1 1 26
M  V30 29 1 2 27
M  V30 30 1 2 28
M  V30 31 1 3 29
M  V30 32 1 6 30
M  V30 33 1 8 31
M  V30 34 1 9 32
M  V30 35 1 11 33
M  V30 36 1 13 34
M  V30 37 1 14 35
M  V30 38 1 16 36
M  V30 39 1 18 37
M  V30 40 1 19 38
M  V30 41 1 21 39
M  V30 42 1 23 40
M  V30 43 1 24 41
M  V30 END BOND
M  V30 END CTAB
M  END
>  <Dataset>  (503) 
ChEMBL_Kinases

>  <Ligand_Instance>  (503) 
nan

>  <PDB_ID>  (503) 
nan

>  <Standardized_SMILES>  (503) 
NCC(C(=O)Nc1ccc2cnccc2c1)c1ccc(O)c(O)c1

>  <Name>  (503) 
nan

>  <Pocket>  (503) 
nan

>  <ATP_Site>  (503) 
nan

>  <Peripheral>  (503) 
nan

>  <Num_H_Atoms_ProtBoundConf>  (503) 
nan

>  <Num_Resolved_Atoms>  (503) 
nan

>  <Num_Not_Resolved_Atoms>  (503) 
nan

$$$$
CHEMBL3794198
     RDKit          3D

  0  0  0  0  0  0  0  0  0  0999 V3000
M  V30 BEGIN CTAB
M  V30 COUNTS 42 44 0 0 0
M  V30 BEGIN ATOM
M  V30 1 C -0.456834 -4.513796 -1.773508 0
M  V30 2 C 0.772091 -3.972362 -1.103753 0
M  V30 3 C 1.638033 -4.788838 -0.407261 0
M  V30 4 C 2.745695 -4.216542 0.180588 0
M  V30 5 C 2.947985 -2.838656 0.049432 0
M  V30 6 C 2.077273 -1.997715 -0.654430 0
M  V30 7 C 2.450494 -0.562860 -0.701277 0
M  V30 8 C 2.318327 -0.067499 -2.103776 0
M  V30 9 N 2.664661 1.339685 -2.253940 0
M  V30 10 C 1.593261 0.157742 0.280087 0
M  V30 11 O 2.173341 0.754132 1.256101 0
M  V30 12 N 0.204989 0.301779 0.320718 0
M  V30 13 C -0.417405 1.043173 1.365574 0
M  V30 14 C -0.663101 2.408920 1.273580 0
M  V30 15 C -1.272895 3.055599 2.334746 0
M  V30 16 C -1.629047 2.353561 3.462108 0
M  V30 17 C -2.239179 2.950919 4.547218 0
M  V30 18 N -2.591995 2.262514 5.660705 0
M  V30 19 C -2.369088 0.941127 5.782863 0
M  V30 20 C -1.759084 0.292397 4.722191 0
M  V30 21 C -1.395267 0.984380 3.582395 0
M  V30 22 C -0.781266 0.334230 2.513444 0
M  V30 23 C 0.989398 -2.620633 -1.220758 0
M  V30 24 H -1.282217 -4.344847 -1.051244 0
M  V30 25 H -0.355172 -5.574067 -2.062815 0
M  V30 26 H -0.661880 -3.927809 -2.694629 0
M  V30 27 H 1.411393 -5.843386 -0.351809 0
M  V30 28 H 3.446118 -4.825756 0.734203 0
M  V30 29 H 3.848278 -2.468866 0.545146 0
M  V30 30 H 3.527182 -0.501770 -0.381534 0
M  V30 31 H 3.068736 -0.616046 -2.708965 0
M  V30 32 H 1.273559 -0.249586 -2.448497 0
M  V30 33 H 3.638879 1.479291 -2.626187 0
M  V30 34 H 2.053369 1.689456 -3.052373 0
M  V30 35 H -0.325344 -0.157504 -0.448705 0
M  V30 36 H -0.360047 2.900800 0.363887 0
M  V30 37 H -1.466156 4.120183 2.266940 0
M  V30 38 H -2.425055 4.007426 4.466680 0
M  V30 39 H -2.663781 0.414892 6.689996 0
M  V30 40 H -1.579422 -0.767420 4.818209 0
M  V30 41 H -0.607332 -0.727542 2.623196 0
M  V30 42 H 0.323398 -2.001252 -1.762835 0
M  V30 END ATOM
M  V30 BEGIN BOND
M  V30 1 1 1 2
M  V30 2 2 2 3
M  V30 3 1 3 4
M  V30 4 2 4 5
M  V30 5 1 5 6
M  V30 6 1 6 7
M  V30 7 1 7 8
M  V30 8 1 8 9
M  V30 9 1 7 10
M  V30 10 2 10 11
M  V30 11 1 10 12
M  V30 12 1 12 13
M  V30 13 2 13 14
M  V30 14 1 14 15
M  V30 15 2 15 16
M  V30 16 1 16 17
M  V30 17 2 17 18
M  V30 18 1 18 19
M  V30 19 2 19 20
M  V30 20 1 20 21
M  V30 21 2 21 22
M  V30 22 2 6 23
M  V30 23 1 23 2
M  V30 24 1 22 13
M  V30 25 1 21 16
M  V30 26 1 1 24
M  V30 27 1 1 25
M  V30 28 1 1 26
M  V30 29 1 3 27
M  V30 30 1 4 28
M  V30 31 1 5 29
M  V30 32 1 7 30
M  V30 33 1 8 31
M  V30 34 1 8 32
M  V30 35 1 9 33
M  V30 36 1 9 34
M  V30 37 1 12 35
M  V30 38 1 14 36
M  V30 39 1 15 37
M  V30 40 1 17 38
M  V30 41 1 19 39
M  V30 42 1 20 40
M  V30 43 1 22 41
M  V30 44 1 23 42
M  V30 END BOND
M  V30 END CTAB
M  END
>  <Dataset>  (504) 
ChEMBL_Kinases

>  <Ligand_Instance>  (504) 
nan

>  <PDB_ID>  (504) 
nan

>  <Standardized_SMILES>  (504) 
Cc1cccc(C(CN)C(=O)Nc2ccc3cnccc3c2)c1

>  <Name>  (504) 
nan

>  <Pocket>  (504) 
nan

>  <ATP_Site>  (504) 
nan

>  <Peripheral>  (504) 
nan

>  <Num_H_Atoms_ProtBoundConf>  (504) 
nan

>  <Num_Resolved_Atoms>  (504) 
nan

>  <Num_Not_Resolved_Atoms>  (504) 
nan

$$$$
CHEMBL3794146
     RDKit          3D

  0  0  0  0  0  0  0  0  0  0999 V3000
M  V30 BEGIN CTAB
M  V30 COUNTS 51 54 0 0 0
M  V30 BEGIN ATOM
M  V30 1 C 3.370518 -4.286577 4.659562 0
M  V30 2 O 3.289281 -2.926399 4.368836 0
M  V30 3 C 2.959257 -2.396386 3.145521 0
M  V30 4 C 2.896181 -1.037038 2.924396 0
M  V30 5 C 2.574295 -0.424245 1.731730 0
M  V30 6 C 2.564497 1.032785 1.706735 0
M  V30 7 C 3.670550 1.623612 2.322397 0
M  V30 8 C 3.849996 2.991352 2.405176 0
M  V30 9 N 2.898740 3.768766 1.858447 0
M  V30 10 C 1.823635 3.243319 1.259347 0
M  V30 11 C 1.624585 1.882562 1.165373 0
M  V30 12 N 0.524942 1.243794 0.555875 0
M  V30 13 C -0.556108 1.001100 1.477652 0
M  V30 14 O -0.481889 1.341481 2.691283 0
M  V30 15 C -1.787273 0.340941 1.013619 0
M  V30 16 N -1.899139 -0.034557 -0.273834 0
M  V30 17 C -3.019716 -0.646538 -0.738769 0
M  V30 18 C -2.940215 -0.970744 -2.157256 0
M  V30 19 C -3.411460 0.044126 -2.968006 0
M  V30 20 F -3.902314 1.228965 -2.513703 0
M  V30 21 C -3.420439 -0.072290 -4.362579 0
M  V30 22 C -2.938015 -1.247089 -4.912818 0
M  V30 23 C -2.465312 -2.266199 -4.110933 0
M  V30 24 C -2.462046 -2.136972 -2.721041 0
M  V30 25 F -2.024331 -3.068676 -1.854097 0
M  V30 26 C -4.037340 -0.870789 0.147663 0
M  V30 27 C -3.916522 -0.483348 1.466757 0
M  V30 28 C -2.779391 0.141068 1.951643 0
M  V30 29 N -2.695684 0.523152 3.314846 0
M  V30 30 C 2.285363 -1.194992 0.647436 0
M  V30 31 C 2.351149 -2.549395 0.878885 0
M  V30 32 N 2.074442 -3.472394 -0.161643 0
M  V30 33 N 2.666659 -3.156498 2.048087 0
M  V30 34 H 2.652841 -4.618114 5.438691 0
M  V30 35 H 3.132773 -4.849314 3.733819 0
M  V30 36 H 4.409980 -4.580915 4.964277 0
M  V30 37 H 3.127141 -0.429687 3.790689 0
M  V30 38 H 4.467569 1.038560 2.779401 0
M  V30 39 H 4.712548 3.431349 2.885520 0
M  V30 40 H 1.036190 3.832470 0.807460 0
M  V30 41 H 0.336854 0.910805 -0.436944 0
M  V30 42 H -3.784993 0.710001 -5.020434 0
M  V30 43 H -2.930325 -1.370829 -5.988712 0
M  V30 44 H -2.079944 -3.201416 -4.518414 0
M  V30 45 H -4.895425 -1.360771 -0.292658 0
M  V30 46 H -4.777099 -0.704287 2.092854 0
M  V30 47 H -2.051100 -0.111156 3.859947 0
M  V30 48 H -3.144266 1.295804 3.856222 0
M  V30 49 H 2.034353 -0.766742 -0.287051 0
M  V30 50 H 1.430996 -3.364875 -0.994724 0
M  V30 51 H 1.882713 -4.153486 -0.911869 0
M  V30 END ATOM
M  V30 BEGIN BOND
M  V30 1 1 1 2
M  V30 2 1 2 3
M  V30 3 2 3 4
M  V30 4 1 4 5
M  V30 5 1 5 6
M  V30 6 2 6 7
M  V30 7 1 7 8
M  V30 8 2 8 9
M  V30 9 1 9 10
M  V30 10 2 10 11
M  V30 11 1 11 12
M  V30 12 1 12 13
M  V30 13 2 13 14
M  V30 14 1 13 15
M  V30 15 2 15 16
M  V30 16 1 16 17
M  V30 17 1 17 18
M  V30 18 2 18 19
M  V30 19 1 19 20
M  V30 20 1 19 21
M  V30 21 2 21 22
M  V30 22 1 22 23
M  V30 23 2 23 24
M  V30 24 1 24 25
M  V30 25 2 17 26
M  V30 26 1 26 27
M  V30 27 2 27 28
M  V30 28 1 28 29
M  V30 29 2 5 30
M  V30 30 1 30 31
M  V30 31 1 31 32
M  V30 32 2 31 33
M  V30 33 1 33 3
M  V30 34 1 11 6
M  V30 35 1 28 15
M  V30 36 1 24 18
M  V30 37 1 1 34
M  V30 38 1 1 35
M  V30 39 1 1 36
M  V30 40 1 4 37
M  V30 41 1 7 38
M  V30 42 1 8 39
M  V30 43 1 10 40
M  V30 44 1 12 41
M  V30 45 1 21 42
M  V30 46 1 22 43
M  V30 47 1 23 44
M  V30 48 1 26 45
M  V30 49 1 27 46
M  V30 50 1 29 47
M  V30 51 1 29 48
M  V30 52 1 30 49
M  V30 53 1 32 50
M  V30 54 1 32 51
M  V30 END BOND
M  V30 END CTAB
M  END
>  <Dataset>  (505) 
ChEMBL_Kinases

>  <Ligand_Instance>  (505) 
nan

>  <PDB_ID>  (505) 
nan

>  <Standardized_SMILES>  (505) 
COc1cc(-c2ccncc2NC(=O)c2nc(-c3c(F)cccc3F)ccc2N)cc(N)n1

>  <Name>  (505) 
nan

>  <Pocket>  (505) 
nan

>  <ATP_Site>  (505) 
nan

>  <Peripheral>  (505) 
nan

>  <Num_H_Atoms_ProtBoundConf>  (505) 
nan

>  <Num_Resolved_Atoms>  (505) 
nan

>  <Num_Not_Resolved_Atoms>  (505) 
nan

$$$$
CHEMBL379414
     RDKit          3D

  0  0  0  0  0  0  0  0  0  0999 V3000
M  V30 BEGIN CTAB
M  V30 COUNTS 38 39 0 0 0
M  V30 BEGIN ATOM
M  V30 1 C 1.110094 -5.578656 3.730848 0
M  V30 2 C 0.747608 -4.401092 2.836109 0
M  V30 3 O -0.567263 -3.967844 3.002091 0
M  V30 4 C -1.111036 -2.894676 2.274401 0
M  V30 5 N -0.336989 -2.255021 1.381281 0
M  V30 6 C -0.827976 -1.225422 0.669656 0
M  V30 7 N -0.145483 -0.453392 -0.307248 0
M  V30 8 C 0.635988 0.727521 -0.266707 0
M  V30 9 O 0.827304 1.293330 0.836196 0
M  V30 10 C 1.070505 1.024717 -1.663279 0
M  V30 11 C 1.888116 2.264658 -1.610747 0
M  V30 12 C 1.344795 3.470894 -2.026633 0
M  V30 13 C 1.969386 4.687671 -2.035335 0
M  V30 14 Br 1.027446 6.232011 -2.652286 0
M  V30 15 C 3.260189 4.734927 -1.592326 0
M  V30 16 C 3.864062 3.569484 -1.163187 0
M  V30 17 C 3.195965 2.348393 -1.168661 0
M  V30 18 Br 4.018025 0.734531 -0.578451 0
M  V30 19 C -2.161291 -0.884725 0.924198 0
M  V30 20 C -2.979271 -1.532459 1.843290 0
M  V30 21 N -4.326724 -1.129475 2.045843 0
M  V30 22 C -2.428568 -2.579020 2.544915 0
M  V30 23 C -3.205267 -3.308466 3.521097 0
M  V30 24 N -3.840221 -3.884159 4.288788 0
M  V30 25 H 2.207287 -5.784579 3.681362 0
M  V30 26 H 0.916960 -5.359256 4.800782 0
M  V30 27 H 0.616620 -6.510982 3.431368 0
M  V30 28 H 0.958867 -4.756300 1.792581 0
M  V30 29 H 1.464815 -3.573685 3.019890 0
M  V30 30 H -0.428712 -1.083851 -1.112839 0
M  V30 31 H 1.720435 0.181327 -2.034042 0
M  V30 32 H 0.233193 1.202782 -2.345233 0
M  V30 33 H 0.310364 3.434122 -2.382286 0
M  V30 34 H 3.782084 5.682368 -1.586602 0
M  V30 35 H 4.901703 3.602076 -0.806409 0
M  V30 36 H -2.620408 -0.059780 0.381376 0
M  V30 37 H -5.231993 -1.422812 1.651997 0
M  V30 38 H -4.385888 -0.366293 2.756381 0
M  V30 END ATOM
M  V30 BEGIN BOND
M  V30 1 1 1 2
M  V30 2 1 2 3
M  V30 3 1 3 4
M  V30 4 2 4 5
M  V30 5 1 5 6
M  V30 6 1 6 7
M  V30 7 1 7 8
M  V30 8 2 8 9
M  V30 9 1 8 10
M  V30 10 1 10 11
M  V30 11 2 11 12
M  V30 12 1 12 13
M  V30 13 1 13 14
M  V30 14 2 13 15
M  V30 15 1 15 16
M  V30 16 2 16 17
M  V30 17 1 17 18
M  V30 18 2 6 19
M  V30 19 1 19 20
M  V30 20 1 20 21
M  V30 21 2 20 22
M  V30 22 1 22 23
M  V30 23 3 23 24
M  V30 24 1 22 4
M  V30 25 1 17 11
M  V30 26 1 1 25
M  V30 27 1 1 26
M  V30 28 1 1 27
M  V30 29 1 2 28
M  V30 30 1 2 29
M  V30 31 1 7 30
M  V30 32 1 10 31
M  V30 33 1 10 32
M  V30 34 1 12 33
M  V30 35 1 15 34
M  V30 36 1 16 35
M  V30 37 1 19 36
M  V30 38 1 21 37
M  V30 39 1 21 38
M  V30 END BOND
M  V30 END CTAB
M  END
>  <Dataset>  (506) 
ChEMBL_Kinases

>  <Ligand_Instance>  (506) 
nan

>  <PDB_ID>  (506) 
nan

>  <Standardized_SMILES>  (506) 
CCOc1nc(NC(=O)Cc2cc(Br)ccc2Br)cc(N)c1C#N

>  <Name>  (506) 
nan

>  <Pocket>  (506) 
nan

>  <ATP_Site>  (506) 
nan

>  <Peripheral>  (506) 
nan

>  <Num_H_Atoms_ProtBoundConf>  (506) 
nan

>  <Num_Resolved_Atoms>  (506) 
nan

>  <Num_Not_Resolved_Atoms>  (506) 
nan

$$$$
CHEMBL3794104
     RDKit          3D

  0  0  0  0  0  0  0  0  0  0999 V3000
M  V30 BEGIN CTAB
M  V30 COUNTS 39 41 0 0 0
M  V30 BEGIN ATOM
M  V30 1 N 1.047657 -4.458499 3.474116 0
M  V30 2 C 1.194606 -3.840276 2.173202 0
M  V30 3 C 1.042879 -2.343503 2.330761 0
M  V30 4 C 1.194438 -1.719529 0.996355 0
M  V30 5 O 1.520476 -2.407970 0.014763 0
M  V30 6 N 0.982147 -0.347447 0.776126 0
M  V30 7 C 1.077012 0.421310 -0.411092 0
M  V30 8 C 1.410557 -0.031428 -1.651056 0
M  V30 9 C 1.489948 0.751288 -2.773825 0
M  V30 10 C 1.221276 2.100223 -2.689804 0
M  V30 11 C 1.276590 2.961576 -3.765749 0
M  V30 12 N 1.003309 4.251964 -3.604328 0
M  V30 13 C 0.668390 4.759202 -2.408166 0
M  V30 14 C 0.599559 3.939056 -1.303215 0
M  V30 15 C 0.879543 2.594765 -1.447899 0
M  V30 16 C 0.810455 1.774329 -0.341391 0
M  V30 17 C -0.362358 -2.157554 2.847914 0
M  V30 18 C -1.440400 -2.561364 2.071639 0
M  V30 19 C -2.750550 -2.399482 2.529166 0
M  V30 20 C -2.942755 -1.835005 3.757003 0
M  V30 21 Cl -4.580869 -1.623752 4.348048 0
M  V30 22 C -1.899536 -1.429567 4.539691 0
M  V30 23 C -0.601610 -1.584769 4.097536 0
M  V30 24 H 0.941134 -5.505343 3.383599 0
M  V30 25 H 0.214558 -4.076005 3.940622 0
M  V30 26 H 2.157737 -4.106805 1.692510 0
M  V30 27 H 0.357579 -4.219585 1.553901 0
M  V30 28 H 1.781443 -1.975226 3.060048 0
M  V30 29 H 0.707039 0.163707 1.669362 0
M  V30 30 H 1.631024 -1.051266 -1.800974 0
M  V30 31 H 1.758566 0.355994 -3.743945 0
M  V30 32 H 1.548104 2.530346 -4.716816 0
M  V30 33 H 0.464446 5.812223 -2.371369 0
M  V30 34 H 0.328943 4.345367 -0.333440 0
M  V30 35 H 0.531181 2.245236 0.611499 0
M  V30 36 H -1.271044 -3.008486 1.097645 0
M  V30 37 H -3.592261 -2.715718 1.921049 0
M  V30 38 H -2.073807 -0.978635 5.522288 0
M  V30 39 H 0.261557 -1.270177 4.700340 0
M  V30 END ATOM
M  V30 BEGIN BOND
M  V30 1 1 1 2
M  V30 2 1 2 3
M  V30 3 1 3 4
M  V30 4 2 4 5
M  V30 5 1 4 6
M  V30 6 1 6 7
M  V30 7 2 7 8
M  V30 8 1 8 9
M  V30 9 2 9 10
M  V30 10 1 10 11
M  V30 11 2 11 12
M  V30 12 1 12 13
M  V30 13 2 13 14
M  V30 14 1 14 15
M  V30 15 2 15 16
M  V30 16 1 3 17
M  V30 17 2 17 18
M  V30 18 1 18 19
M  V30 19 2 19 20
M  V30 20 1 20 21
M  V30 21 1 20 22
M  V30 22 2 22 23
M  V30 23 1 16 7
M  V30 24 1 23 17
M  V30 25 1 15 10
M  V30 26 1 1 24
M  V30 27 1 1 25
M  V30 28 1 2 26
M  V30 29 1 2 27
M  V30 30 1 3 28
M  V30 31 1 6 29
M  V30 32 1 8 30
M  V30 33 1 9 31
M  V30 34 1 11 32
M  V30 35 1 13 33
M  V30 36 1 14 34
M  V30 37 1 16 35
M  V30 38 1 18 36
M  V30 39 1 19 37
M  V30 40 1 22 38
M  V30 41 1 23 39
M  V30 END BOND
M  V30 END CTAB
M  END
>  <Dataset>  (507) 
ChEMBL_Kinases

>  <Ligand_Instance>  (507) 
nan

>  <PDB_ID>  (507) 
nan

>  <Standardized_SMILES>  (507) 
NCC(C(=O)Nc1ccc2cnccc2c1)c1ccc(Cl)cc1

>  <Name>  (507) 
nan

>  <Pocket>  (507) 
nan

>  <ATP_Site>  (507) 
nan

>  <Peripheral>  (507) 
nan

>  <Num_H_Atoms_ProtBoundConf>  (507) 
nan

>  <Num_Resolved_Atoms>  (507) 
nan

>  <Num_Not_Resolved_Atoms>  (507) 
nan

$$$$
CHEMBL3794018
     RDKit          3D

  0  0  0  0  0  0  0  0  0  0999 V3000
M  V30 BEGIN CTAB
M  V30 COUNTS 55 59 0 0 0
M  V30 BEGIN ATOM
M  V30 1 C 4.261075 -2.865046 3.980681 0
M  V30 2 O 4.111052 -1.868431 2.988541 0
M  V30 3 C 5.192063 -1.240099 2.384750 0
M  V30 4 O 6.348435 -1.575861 2.739454 0
M  V30 5 C 4.980919 -0.217320 1.365474 0
M  V30 6 C 6.069859 0.392301 0.780257 0
M  V30 7 C 5.837160 1.338005 -0.162878 0
M  V30 8 C 4.535603 1.648478 -0.495004 0
M  V30 9 C 3.424548 1.078568 0.050381 0
M  V30 10 N 2.070863 1.351567 -0.245360 0
M  V30 11 C 1.526353 2.272201 -1.168550 0
M  V30 12 O 2.300169 2.964698 -1.841117 0
M  V30 13 C 0.097858 2.467277 -1.388427 0
M  V30 14 C -0.900506 1.794388 -0.739659 0
M  V30 15 C -2.246472 1.965842 -0.934649 0
M  V30 16 N -3.230524 1.225327 -0.218644 0
M  V30 17 C -3.736026 0.031515 -0.578194 0
M  V30 18 C -4.669786 -0.406294 0.338509 0
M  V30 19 C -5.537963 -1.578648 0.519145 0
M  V30 20 N -4.973073 -2.636707 1.315273 0
M  V30 21 C -3.807009 -3.272703 0.887383 0
M  V30 22 N -3.108149 -3.021789 -0.222234 0
M  V30 23 C -2.008083 -3.758948 -0.446216 0
M  V30 24 N -1.533196 -4.729735 0.334772 0
M  V30 25 C -2.149549 -5.069470 1.472694 0
M  V30 26 C -1.802775 -6.018888 2.366457 0
M  V30 27 C -2.621231 -6.232242 3.557661 0
M  V30 28 S -3.981426 -4.928180 3.306613 0
M  V30 29 C -3.337228 -4.269944 1.709594 0
M  V30 30 N -4.705248 0.587416 1.276502 0
M  V30 31 N -3.845729 1.516659 0.903503 0
M  V30 32 C -2.662384 2.895862 -1.864621 0
M  V30 33 C -1.707366 3.611073 -2.556156 0
M  V30 34 C -0.370727 3.384538 -2.306730 0
M  V30 35 O 0.553553 4.145978 -3.044678 0
M  V30 36 C 3.704401 0.123543 1.003636 0
M  V30 37 H 3.720748 -3.784217 3.760864 0
M  V30 38 H 3.880204 -2.448661 4.936577 0
M  V30 39 H 5.351186 -3.004778 4.132923 0
M  V30 40 H 7.081904 0.131476 1.057783 0
M  V30 41 H 6.667220 1.839067 -0.645087 0
M  V30 42 H 4.414786 2.407958 -1.251241 0
M  V30 43 H 1.327274 0.824947 0.263276 0
M  V30 44 H -0.654453 1.050265 0.002822 0
M  V30 45 H -3.510349 -0.563256 -1.433143 0
M  V30 46 H -5.757505 -1.962805 -0.509535 0
M  V30 47 H -6.536859 -1.270751 0.923893 0
M  V30 48 H -5.471753 -2.879733 2.188128 0
M  V30 49 H -1.400602 -3.589220 -1.345675 0
M  V30 50 H -0.952777 -6.662836 2.293415 0
M  V30 51 H -2.519701 -6.881193 4.318285 0
M  V30 52 H -3.714672 3.051912 -2.038877 0
M  V30 53 H -2.010853 4.346547 -3.291112 0
M  V30 54 H 1.063082 3.749249 -3.832478 0
M  V30 55 H 2.888740 -0.399834 1.508265 0
M  V30 END ATOM
M  V30 BEGIN BOND
M  V30 1 1 1 2
M  V30 2 1 2 3
M  V30 3 2 3 4
M  V30 4 1 3 5
M  V30 5 2 5 6
M  V30 6 1 6 7
M  V30 7 2 7 8
M  V30 8 1 8 9
M  V30 9 1 9 10
M  V30 10 1 10 11
M  V30 11 2 11 12
M  V30 12 1 11 13
M  V30 13 2 13 14
M  V30 14 1 14 15
M  V30 15 1 15 16
M  V30 16 1 16 17
M  V30 17 2 17 18
M  V30 18 1 18 19
M  V30 19 1 19 20
M  V30 20 1 20 21
M  V30 21 2 21 22
M  V30 22 1 22 23
M  V30 23 2 23 24
M  V30 24 1 24 25
M  V30 25 1 25 26
M  V30 26 2 26 27
M  V30 27 1 27 28
M  V30 28 1 28 29
M  V30 29 1 18 30
M  V30 30 2 30 31
M  V30 31 2 15 32
M  V30 32 1 32 33
M  V30 33 2 33 34
M  V30 34 1 34 35
M  V30 35 2 9 36
M  V30 36 1 36 5
M  V30 37 1 34 13
M  V30 38 1 31 16
M  V30 39 1 29 21
M  V30 40 2 29 25
M  V30 41 1 1 37
M  V30 42 1 1 38
M  V30 43 1 1 39
M  V30 44 1 6 40
M  V30 45 1 7 41
M  V30 46 1 8 42
M  V30 47 1 10 43
M  V30 48 1 14 44
M  V30 49 1 17 45
M  V30 50 1 19 46
M  V30 51 1 19 47
M  V30 52 1 20 48
M  V30 53 1 23 49
M  V30 54 1 26 50
M  V30 55 1 27 51
M  V30 56 1 32 52
M  V30 57 1 33 53
M  V30 58 1 35 54
M  V30 59 1 36 55
M  V30 END BOND
M  V30 END CTAB
M  END
>  <Dataset>  (508) 
ChEMBL_Kinases

>  <Ligand_Instance>  (508) 
nan

>  <PDB_ID>  (508) 
nan

>  <Standardized_SMILES>  (508) 
COC(=O)c1cccc(NC(=O)c2cc(-n3cc(CNc4ncnc5ccsc45)nn3)ccc2O)c1

>  <Name>  (508) 
nan

>  <Pocket>  (508) 
nan

>  <ATP_Site>  (508) 
nan

>  <Peripheral>  (508) 
nan

>  <Num_H_Atoms_ProtBoundConf>  (508) 
nan

>  <Num_Resolved_Atoms>  (508) 
nan

>  <Num_Not_Resolved_Atoms>  (508) 
nan

$$$$
CHEMBL3794444
     RDKit          3D

  0  0  0  0  0  0  0  0  0  0999 V3000
M  V30 BEGIN CTAB
M  V30 COUNTS 54 56 0 0 0
M  V30 BEGIN ATOM
M  V30 1 C 1.164328 -3.683726 4.216925 0
M  V30 2 C 2.203716 -3.491948 3.140362 0
M  V30 3 C 3.428926 -4.344093 3.360620 0
M  V30 4 C 2.577773 -2.053787 3.005463 0
M  V30 5 O 1.975042 -1.294695 3.790485 0
M  V30 6 O 3.519194 -1.738537 2.056251 0
M  V30 7 C 3.934655 -0.411917 1.853829 0
M  V30 8 C 2.809457 0.466176 1.449231 0
M  V30 9 C 1.976690 1.297204 2.163121 0
M  V30 10 C 0.981975 1.996328 1.514235 0
M  V30 11 C 0.767511 1.909259 0.154322 0
M  V30 12 C -0.321335 2.685470 -0.499753 0
M  V30 13 C 0.278151 3.652535 -1.496122 0
M  V30 14 N -0.788287 4.397816 -2.122200 0
M  V30 15 C -1.254453 1.741581 -1.114896 0
M  V30 16 O -1.622820 1.580358 -2.308688 0
M  V30 17 N -1.843135 0.850175 -0.171773 0
M  V30 18 C -2.783250 -0.161052 -0.520429 0
M  V30 19 C -4.159474 -0.101915 -0.583959 0
M  V30 20 C -4.862503 -1.230486 -0.952787 0
M  V30 21 C -4.212783 -2.410259 -1.257158 0
M  V30 22 C -4.941643 -3.515958 -1.620874 0
M  V30 23 N -4.372827 -4.685613 -1.927063 0
M  V30 24 C -3.025816 -4.796201 -1.880181 0
M  V30 25 C -2.250636 -3.694565 -1.514928 0
M  V30 26 C -2.839602 -2.485713 -1.198542 0
M  V30 27 C -2.125706 -1.355352 -0.828557 0
M  V30 28 C 1.592763 1.081543 -0.578204 0
M  V30 29 C 2.590161 0.379385 0.068275 0
M  V30 30 H 1.355712 -2.941053 5.016790 0
M  V30 31 H 0.134684 -3.478234 3.834357 0
M  V30 32 H 1.174682 -4.704465 4.628216 0
M  V30 33 H 1.736525 -3.777375 2.158702 0
M  V30 34 H 3.141258 -5.277194 3.884179 0
M  V30 35 H 4.252517 -3.820101 3.868751 0
M  V30 36 H 3.820847 -4.642827 2.351613 0
M  V30 37 H 4.774238 -0.357928 1.137205 0
M  V30 38 H 4.374698 -0.069701 2.830341 0
M  V30 39 H 2.215811 1.315936 3.208077 0
M  V30 40 H 0.375232 2.624192 2.151768 0
M  V30 41 H -0.851266 3.276459 0.273743 0
M  V30 42 H 0.823073 3.131783 -2.305620 0
M  V30 43 H 0.974180 4.358748 -1.036628 0
M  V30 44 H -1.691885 3.917843 -2.151884 0
M  V30 45 H -0.817972 5.405370 -1.864298 0
M  V30 46 H -1.689162 0.798875 0.861096 0
M  V30 47 H -4.545400 0.871224 -0.324099 0
M  V30 48 H -5.942481 -1.111307 -0.981514 0
M  V30 49 H -6.026311 -3.474501 -1.672441 0
M  V30 50 H -2.429778 -5.689530 -2.104556 0
M  V30 51 H -1.168285 -3.743640 -1.465710 0
M  V30 52 H -1.050062 -1.528064 -0.815622 0
M  V30 53 H 1.390982 1.045110 -1.625742 0
M  V30 54 H 3.163049 -0.235088 -0.645030 0
M  V30 END ATOM
M  V30 BEGIN BOND
M  V30 1 1 1 2
M  V30 2 1 2 3
M  V30 3 1 2 4
M  V30 4 2 4 5
M  V30 5 1 4 6
M  V30 6 1 6 7
M  V30 7 1 7 8
M  V30 8 2 8 9
M  V30 9 1 9 10
M  V30 10 2 10 11
M  V30 11 1 11 12
M  V30 12 1 12 13
M  V30 13 1 13 14
M  V30 14 1 12 15
M  V30 15 2 15 16
M  V30 16 1 15 17
M  V30 17 1 17 18
M  V30 18 2 18 19
M  V30 19 1 19 20
M  V30 20 2 20 21
M  V30 21 1 21 22
M  V30 22 2 22 23
M  V30 23 1 23 24
M  V30 24 2 24 25
M  V30 25 1 25 26
M  V30 26 2 26 27
M  V30 27 1 11 28
M  V30 28 2 28 29
M  V30 29 1 29 8
M  V30 30 1 27 18
M  V30 31 1 26 21
M  V30 32 1 1 30
M  V30 33 1 1 31
M  V30 34 1 1 32
M  V30 35 1 2 33
M  V30 36 1 3 34
M  V30 37 1 3 35
M  V30 38 1 3 36
M  V30 39 1 7 37
M  V30 40 1 7 38
M  V30 41 1 9 39
M  V30 42 1 10 40
M  V30 43 1 12 41
M  V30 44 1 13 42
M  V30 45 1 13 43
M  V30 46 1 14 44
M  V30 47 1 14 45
M  V30 48 1 17 46
M  V30 49 1 19 47
M  V30 50 1 20 48
M  V30 51 1 22 49
M  V30 52 1 24 50
M  V30 53 1 25 51
M  V30 54 1 27 52
M  V30 55 1 28 53
M  V30 56 1 29 54
M  V30 END BOND
M  V30 END CTAB
M  END
>  <Dataset>  (509) 
ChEMBL_Kinases

>  <Ligand_Instance>  (509) 
nan

>  <PDB_ID>  (509) 
nan

>  <Standardized_SMILES>  (509) 
CC(C)C(=O)OCc1ccc(C(CN)C(=O)Nc2ccc3cnccc3c2)cc1

>  <Name>  (509) 
nan

>  <Pocket>  (509) 
nan

>  <ATP_Site>  (509) 
nan

>  <Peripheral>  (509) 
nan

>  <Num_H_Atoms_ProtBoundConf>  (509) 
nan

>  <Num_Resolved_Atoms>  (509) 
nan

>  <Num_Not_Resolved_Atoms>  (509) 
nan

$$$$
CHEMBL3792969
     RDKit          3D

  0  0  0  0  0  0  0  0  0  0999 V3000
M  V30 BEGIN CTAB
M  V30 COUNTS 55 58 0 0 0
M  V30 BEGIN ATOM
M  V30 1 N 1.027380 -3.173416 2.170917 0
M  V30 2 C 1.658498 -1.868452 2.318623 0
M  V30 3 C 0.549202 -0.829457 2.527676 0
M  V30 4 C 1.158398 0.506882 2.679777 0
M  V30 5 O 0.935916 1.236939 3.710757 0
M  V30 6 N 2.024537 1.154486 1.785934 0
M  V30 7 C 2.643646 2.428365 1.861389 0
M  V30 8 C 3.881649 2.369067 2.502890 0
M  V30 9 C 4.631821 3.508304 2.671404 0
M  V30 10 C 4.191886 4.711955 2.220453 0
M  V30 11 C 4.869511 5.928631 2.338056 0
M  V30 12 N 4.357659 7.095490 1.857395 0
M  V30 13 C 3.141460 7.084531 1.236864 0
M  V30 14 C 2.431173 5.917901 1.093679 0
M  V30 15 C 2.964774 4.748087 1.587273 0
M  V30 16 C 2.152610 3.625193 1.385225 0
M  V30 17 C -0.409225 -0.936065 1.428657 0
M  V30 18 C -1.695699 -1.228913 1.864354 0
M  V30 19 C -2.789137 -1.387618 1.003872 0
M  V30 20 C -2.618462 -1.252933 -0.354656 0
M  V30 21 C -3.592819 -1.387877 -1.448377 0
M  V30 22 O -3.529997 -2.680655 -1.976513 0
M  V30 23 C -3.758959 -3.852829 -1.313143 0
M  V30 24 O -4.061875 -3.888113 -0.110280 0
M  V30 25 C -3.665130 -5.157300 -1.964643 0
M  V30 26 C -3.898513 -6.325485 -1.274768 0
M  V30 27 C -3.803350 -7.545887 -1.929708 0
M  V30 28 C -3.474847 -7.482074 -3.248069 0
M  V30 29 C -3.225726 -6.359814 -4.013260 0
M  V30 30 C -3.329876 -5.154940 -3.323334 0
M  V30 31 C -1.324005 -0.958099 -0.797420 0
M  V30 32 C -0.278097 -0.811342 0.086689 0
M  V30 33 H 0.775470 -3.612486 3.083467 0
M  V30 34 H 1.646001 -3.834219 1.627647 0
M  V30 35 H 2.310375 -1.840596 3.203844 0
M  V30 36 H 2.191408 -1.670611 1.356967 0
M  V30 37 H 0.077004 -1.094559 3.517811 0
M  V30 38 H 2.304026 0.673314 0.904065 0
M  V30 39 H 4.345414 1.474538 2.907940 0
M  V30 40 H 5.613968 3.554461 3.165165 0
M  V30 41 H 5.825101 5.854999 2.837737 0
M  V30 42 H 2.844519 8.072287 0.896427 0
M  V30 43 H 1.494556 5.979615 0.604462 0
M  V30 44 H 1.207251 3.564056 0.913730 0
M  V30 45 H -2.015262 -1.369961 2.902035 0
M  V30 46 H -3.783949 -1.602108 1.306613 0
M  V30 47 H -3.449031 -0.635976 -2.243387 0
M  V30 48 H -4.617228 -1.252598 -0.970889 0
M  V30 49 H -4.155038 -6.324396 -0.225857 0
M  V30 50 H -3.973757 -8.518852 -1.455062 0
M  V30 51 H -3.380842 -8.412734 -3.825068 0
M  V30 52 H -2.968189 -6.346588 -5.042705 0
M  V30 53 H -3.152863 -4.214316 -3.835019 0
M  V30 54 H -1.061691 -0.824771 -1.853207 0
M  V30 55 H 0.703432 -0.593998 -0.247179 0
M  V30 END ATOM
M  V30 BEGIN BOND
M  V30 1 1 1 2
M  V30 2 1 2 3
M  V30 3 1 3 4
M  V30 4 2 4 5
M  V30 5 1 4 6
M  V30 6 1 6 7
M  V30 7 2 7 8
M  V30 8 1 8 9
M  V30 9 2 9 10
M  V30 10 1 10 11
M  V30 11 2 11 12
M  V30 12 1 12 13
M  V30 13 2 13 14
M  V30 14 1 14 15
M  V30 15 2 15 16
M  V30 16 1 3 17
M  V30 17 2 17 18
M  V30 18 1 18 19
M  V30 19 2 19 20
M  V30 20 1 20 21
M  V30 21 1 21 22
M  V30 22 1 22 23
M  V30 23 2 23 24
M  V30 24 1 23 25
M  V30 25 2 25 26
M  V30 26 1 26 27
M  V30 27 2 27 28
M  V30 28 1 28 29
M  V30 29 2 29 30
M  V30 30 1 20 31
M  V30 31 2 31 32
M  V30 32 1 16 7
M  V30 33 1 32 17
M  V30 34 1 15 10
M  V30 35 1 30 25
M  V30 36 1 1 33
M  V30 37 1 1 34
M  V30 38 1 2 35
M  V30 39 1 2 36
M  V30 40 1 3 37
M  V30 41 1 6 38
M  V30 42 1 8 39
M  V30 43 1 9 40
M  V30 44 1 11 41
M  V30 45 1 13 42
M  V30 46 1 14 43
M  V30 47 1 16 44
M  V30 48 1 18 45
M  V30 49 1 19 46
M  V30 50 1 21 47
M  V30 51 1 21 48
M  V30 52 1 26 49
M  V30 53 1 27 50
M  V30 54 1 28 51
M  V30 55 1 29 52
M  V30 56 1 30 53
M  V30 57 1 31 54
M  V30 58 1 32 55
M  V30 END BOND
M  V30 END CTAB
M  END
>  <Dataset>  (510) 
ChEMBL_Kinases

>  <Ligand_Instance>  (510) 
nan

>  <PDB_ID>  (510) 
nan

>  <Standardized_SMILES>  (510) 
NCC(C(=O)Nc1ccc2cnccc2c1)c1ccc(COC(=O)c2ccccc2)cc1

>  <Name>  (510) 
nan

>  <Pocket>  (510) 
nan

>  <ATP_Site>  (510) 
nan

>  <Peripheral>  (510) 
nan

>  <Num_H_Atoms_ProtBoundConf>  (510) 
nan

>  <Num_Resolved_Atoms>  (510) 
nan

>  <Num_Not_Resolved_Atoms>  (510) 
nan

$$$$
CHEMBL3702266
     RDKit          3D

  0  0  0  0  0  0  0  0  0  0999 V3000
M  V30 BEGIN CTAB
M  V30 COUNTS 55 57 0 0 0
M  V30 BEGIN ATOM
M  V30 1 C -0.968989 -1.657998 2.066203 0
M  V30 2 C -1.085864 -0.214899 1.730816 0
M  V30 3 C -0.025392 0.596471 2.000025 0
M  V30 4 C 1.292758 0.249590 2.605390 0
M  V30 5 O 1.654370 -0.873571 2.972738 0
M  V30 6 N 2.243519 1.280102 2.791563 0
M  V30 7 C 3.558623 1.153984 3.346941 0
M  V30 8 C 4.440904 0.226485 2.602815 0
M  V30 9 C 4.846874 0.487143 1.216659 0
M  V30 10 N 3.888585 0.626903 0.174624 0
M  V30 11 C 4.583696 0.494120 -1.145925 0
M  V30 12 C 3.365911 1.999274 0.093880 0
M  V30 13 S -0.474389 2.207781 1.501830 0
M  V30 14 C -2.143300 1.736731 0.920470 0
M  V30 15 N -3.155021 2.467205 0.376992 0
M  V30 16 C -4.314848 1.889700 0.031595 0
M  V30 17 N -4.347697 0.591408 0.273152 0
M  V30 18 C -3.392602 -0.148600 0.795643 0
M  V30 19 N -3.798384 -1.493142 0.907587 0
M  V30 20 C -4.065258 -2.538343 -0.013327 0
M  V30 21 C -5.382019 -2.981479 0.169395 0
M  V30 22 C -5.896851 -4.004303 -0.624813 0
M  V30 23 C -5.115671 -4.587164 -1.594323 0
M  V30 24 N -3.858130 -4.144621 -1.749062 0
M  V30 25 C -3.344670 -3.162903 -0.996712 0
M  V30 26 O -2.040503 -2.636141 -1.090513 0
M  V30 27 C -1.132019 -3.142986 -2.050670 0
M  V30 28 C 0.185425 -2.417654 -1.953241 0
M  V30 29 F 0.725005 -2.586241 -0.714493 0
M  V30 30 F -0.018916 -1.075771 -2.256794 0
M  V30 31 C -2.180697 0.376398 1.172258 0
M  V30 32 H -1.691982 -2.314054 1.597079 0
M  V30 33 H 0.052719 -2.026155 1.813461 0
M  V30 34 H -1.059105 -1.806531 3.166866 0
M  V30 35 H 1.948933 2.263641 2.508015 0
M  V30 36 H 4.095229 2.159951 3.335281 0
M  V30 37 H 3.509265 0.895394 4.440193 0
M  V30 38 H 3.903217 -0.790952 2.579682 0
M  V30 39 H 5.347409 -0.060427 3.242153 0
M  V30 40 H 5.597086 -0.315612 0.886233 0
M  V30 41 H 5.460081 1.458205 1.203930 0
M  V30 42 H 4.809321 -0.574702 -1.332502 0
M  V30 43 H 5.507325 1.073978 -1.168766 0
M  V30 44 H 3.820695 0.796128 -1.890912 0
M  V30 45 H 2.265964 1.972031 0.157353 0
M  V30 46 H 3.628896 2.495311 -0.874826 0
M  V30 47 H 3.754001 2.574126 0.948700 0
M  V30 48 H -4.978552 2.625106 -0.374600 0
M  V30 49 H -3.906289 -1.635564 1.953997 0
M  V30 50 H -6.119961 -2.634224 0.878392 0
M  V30 51 H -6.899730 -4.398340 -0.543972 0
M  V30 52 H -5.387366 -5.377590 -2.269046 0
M  V30 53 H -1.006944 -4.227681 -1.893795 0
M  V30 54 H -1.605538 -3.005944 -3.051181 0
M  V30 55 H 0.855960 -2.804510 -2.765192 0
M  V30 END ATOM
M  V30 BEGIN BOND
M  V30 1 1 1 2
M  V30 2 2 2 3
M  V30 3 1 3 4
M  V30 4 2 4 5
M  V30 5 1 4 6
M  V30 6 1 6 7
M  V30 7 1 7 8
M  V30 8 1 8 9
M  V30 9 1 9 10
M  V30 10 1 10 11
M  V30 11 1 10 12
M  V30 12 1 3 13
M  V30 13 1 13 14
M  V30 14 2 14 15
M  V30 15 1 15 16
M  V30 16 2 16 17
M  V30 17 1 17 18
M  V30 18 1 18 19
M  V30 19 1 19 20
M  V30 20 2 20 21
M  V30 21 1 21 22
M  V30 22 2 22 23
M  V30 23 1 23 24
M  V30 24 2 24 25
M  V30 25 1 25 26
M  V30 26 1 26 27
M  V30 27 1 27 28
M  V30 28 1 28 29
M  V30 29 1 28 30
M  V30 30 2 18 31
M  V30 31 1 31 2
M  V30 32 1 31 14
M  V30 33 1 25 20
M  V30 34 1 1 32
M  V30 35 1 1 33
M  V30 36 1 1 34
M  V30 37 1 6 35
M  V30 38 1 7 36
M  V30 39 1 7 37
M  V30 40 1 8 38
M  V30 41 1 8 39
M  V30 42 1 9 40
M  V30 43 1 9 41
M  V30 44 1 11 42
M  V30 45 1 11 43
M  V30 46 1 11 44
M  V30 47 1 12 45
M  V30 48 1 12 46
M  V30 49 1 12 47
M  V30 50 1 16 48
M  V30 51 1 19 49
M  V30 52 1 21 50
M  V30 53 1 22 51
M  V30 54 1 23 52
M  V30 55 1 27 53
M  V30 56 1 27 54
M  V30 57 1 28 55
M  V30 END BOND
M  V30 END CTAB
M  END
>  <Dataset>  (511) 
ChEMBL_Kinases

>  <Ligand_Instance>  (511) 
nan

>  <PDB_ID>  (511) 
nan

>  <Standardized_SMILES>  (511) 
Cc1c(C(=O)NCCCN(C)C)sc2ncnc(Nc3cccnc3OCC(F)F)c12

>  <Name>  (511) 
nan

>  <Pocket>  (511) 
nan

>  <ATP_Site>  (511) 
nan

>  <Peripheral>  (511) 
nan

>  <Num_H_Atoms_ProtBoundConf>  (511) 
nan

>  <Num_Resolved_Atoms>  (511) 
nan

>  <Num_Not_Resolved_Atoms>  (511) 
nan

$$$$
CHEMBL3792921
     RDKit          3D

  0  0  0  0  0  0  0  0  0  0999 V3000
M  V30 BEGIN CTAB
M  V30 COUNTS 39 41 0 0 0
M  V30 BEGIN ATOM
M  V30 1 N 0.866008 -4.525766 3.435011 0
M  V30 2 C 1.053200 -3.912348 2.134700 0
M  V30 3 C 0.941037 -2.414651 2.312512 0
M  V30 4 C 1.131507 -1.780521 0.986325 0
M  V30 5 O 1.453221 -2.463656 0.001254 0
M  V30 6 N 0.960750 -0.397885 0.779476 0
M  V30 7 C 1.096152 0.380787 -0.397898 0
M  V30 8 C 1.434983 -0.064598 -1.632163 0
M  V30 9 C 1.553539 0.732755 -2.745729 0
M  V30 10 C 1.320835 2.086077 -2.647146 0
M  V30 11 C 1.430692 2.916329 -3.744405 0
M  V30 12 N 1.191974 4.218094 -3.581435 0
M  V30 13 C 0.854477 4.699718 -2.379202 0
M  V30 14 C 0.728969 3.922250 -1.247962 0
M  V30 15 C 0.973536 2.572834 -1.403660 0
M  V30 16 C 0.865067 1.739626 -0.310685 0
M  V30 17 C -0.467244 -2.192107 2.805020 0
M  V30 18 C -1.539878 -2.577242 2.005560 0
M  V30 19 C -2.820390 -2.360505 2.483887 0
M  V30 20 C -3.067774 -1.784884 3.706670 0
M  V30 21 F -4.350653 -1.603751 4.109606 0
M  V30 22 C -1.985683 -1.410993 4.482173 0
M  V30 23 C -0.682975 -1.610970 4.039007 0
M  V30 24 H -0.161805 -4.430019 3.678304 0
M  V30 25 H 1.377936 -3.966055 4.151731 0
M  V30 26 H 2.014497 -4.222719 1.669638 0
M  V30 27 H 0.214554 -4.266815 1.495685 0
M  V30 28 H 1.679465 -2.059090 3.053371 0
M  V30 29 H 0.686044 0.107574 1.676352 0
M  V30 30 H 1.630258 -1.087351 -1.795602 0
M  V30 31 H 1.826107 0.344992 -3.717555 0
M  V30 32 H 1.707620 2.444587 -4.676160 0
M  V30 33 H 0.677088 5.762027 -2.326014 0
M  V30 34 H 0.451824 4.333416 -0.271859 0
M  V30 35 H 0.583433 2.207978 0.645064 0
M  V30 36 H -1.401176 -3.038052 1.027534 0
M  V30 37 H -3.637594 -2.678431 1.822924 0
M  V30 38 H -2.137059 -0.961833 5.435693 0
M  V30 39 H 0.134423 -1.299601 4.686094 0
M  V30 END ATOM
M  V30 BEGIN BOND
M  V30 1 1 1 2
M  V30 2 1 2 3
M  V30 3 1 3 4
M  V30 4 2 4 5
M  V30 5 1 4 6
M  V30 6 1 6 7
M  V30 7 2 7 8
M  V30 8 1 8 9
M  V30 9 2 9 10
M  V30 10 1 10 11
M  V30 11 2 11 12
M  V30 12 1 12 13
M  V30 13 2 13 14
M  V30 14 1 14 15
M  V30 15 2 15 16
M  V30 16 1 3 17
M  V30 17 2 17 18
M  V30 18 1 18 19
M  V30 19 2 19 20
M  V30 20 1 20 21
M  V30 21 1 20 22
M  V30 22 2 22 23
M  V30 23 1 16 7
M  V30 24 1 23 17
M  V30 25 1 15 10
M  V30 26 1 1 24
M  V30 27 1 1 25
M  V30 28 1 2 26
M  V30 29 1 2 27
M  V30 30 1 3 28
M  V30 31 1 6 29
M  V30 32 1 8 30
M  V30 33 1 9 31
M  V30 34 1 11 32
M  V30 35 1 13 33
M  V30 36 1 14 34
M  V30 37 1 16 35
M  V30 38 1 18 36
M  V30 39 1 19 37
M  V30 40 1 22 38
M  V30 41 1 23 39
M  V30 END BOND
M  V30 END CTAB
M  END
>  <Dataset>  (512) 
ChEMBL_Kinases

>  <Ligand_Instance>  (512) 
nan

>  <PDB_ID>  (512) 
nan

>  <Standardized_SMILES>  (512) 
NCC(C(=O)Nc1ccc2cnccc2c1)c1ccc(F)cc1

>  <Name>  (512) 
nan

>  <Pocket>  (512) 
nan

>  <ATP_Site>  (512) 
nan

>  <Peripheral>  (512) 
nan

>  <Num_H_Atoms_ProtBoundConf>  (512) 
nan

>  <Num_Resolved_Atoms>  (512) 
nan

>  <Num_Not_Resolved_Atoms>  (512) 
nan

$$$$
CHEMBL3702267
     RDKit          3D

  0  0  0  0  0  0  0  0  0  0999 V3000
M  V30 BEGIN CTAB
M  V30 COUNTS 51 53 0 0 0
M  V30 BEGIN ATOM
M  V30 1 C 4.293080 -3.632033 0.771621 0
M  V30 2 C 3.746584 -2.999938 2.042079 0
M  V30 3 N 3.145226 -1.721316 1.702187 0
M  V30 4 C 3.898592 -0.651990 1.093109 0
M  V30 5 O 5.120192 -0.797406 0.834775 0
M  V30 6 C 3.152793 0.595247 0.800437 0
M  V30 7 C 3.215961 0.882551 -0.714809 0
M  V30 8 O 1.821495 0.577863 1.199263 0
M  V30 9 C 1.115077 1.499946 1.910486 0
M  V30 10 C 1.645826 2.709464 2.379749 0
M  V30 11 C 0.936615 3.666584 3.109937 0
M  V30 12 F 1.548772 4.802115 3.513066 0
M  V30 13 C -0.374228 3.358620 3.363995 0
M  V30 14 C -0.925367 2.178458 2.917440 0
M  V30 15 C -0.212749 1.239798 2.195853 0
M  V30 16 N -0.823501 0.033600 1.766020 0
M  V30 17 C -2.133492 -0.446650 1.975811 0
M  V30 18 N -2.544029 -0.188380 3.215313 0
M  V30 19 C -3.716182 -0.499879 3.755362 0
M  V30 20 N -4.539912 -1.145755 2.914104 0
M  V30 21 C -4.139473 -1.422745 1.630793 0
M  V30 22 S -4.982157 -2.236275 0.322960 0
M  V30 23 C -3.727023 -2.097922 -0.827432 0
M  V30 24 C -3.870787 -2.652497 -2.240993 0
M  V30 25 O -4.956991 -3.210532 -2.501872 0
M  V30 26 O -2.963875 -2.616457 -3.253366 0
M  V30 27 C -3.132711 -3.135699 -4.534430 0
M  V30 28 C -2.717997 -1.443466 -0.182897 0
M  V30 29 C -1.479052 -1.165093 -0.980215 0
M  V30 30 C -2.967114 -1.107920 1.098301 0
M  V30 31 H 3.560152 -3.488752 -0.034540 0
M  V30 32 H 4.555611 -4.698556 0.927113 0
M  V30 33 H 5.245427 -3.097511 0.533519 0
M  V30 34 H 2.946201 -3.683764 2.398167 0
M  V30 35 H 4.498310 -2.911584 2.833322 0
M  V30 36 H 2.113065 -1.566574 1.908995 0
M  V30 37 H 3.656937 1.468922 1.255376 0
M  V30 38 H 3.555637 1.931214 -0.906048 0
M  V30 39 H 3.968824 0.241420 -1.214360 0
M  V30 40 H 2.205540 0.794281 -1.168654 0
M  V30 41 H 2.679214 2.955499 2.181266 0
M  V30 42 H -0.929475 4.112135 3.936322 0
M  V30 43 H -1.964098 2.079364 3.192870 0
M  V30 44 H -0.219729 -0.623426 1.229815 0
M  V30 45 H -4.042411 -0.290474 4.761009 0
M  V30 46 H -2.574961 -4.062684 -4.716198 0
M  V30 47 H -4.200546 -3.198987 -4.845869 0
M  V30 48 H -2.693387 -2.380797 -5.252446 0
M  V30 49 H -1.654024 -1.176038 -2.072842 0
M  V30 50 H -1.254349 -0.079233 -0.768536 0
M  V30 51 H -0.637813 -1.823451 -0.730267 0
M  V30 END ATOM
M  V30 BEGIN BOND
M  V30 1 1 1 2
M  V30 2 1 2 3
M  V30 3 1 3 4
M  V30 4 2 4 5
M  V30 5 1 4 6
M  V30 6 1 6 7
M  V30 7 1 6 8
M  V30 8 1 8 9
M  V30 9 2 9 10
M  V30 10 1 10 11
M  V30 11 1 11 12
M  V30 12 2 11 13
M  V30 13 1 13 14
M  V30 14 2 14 15
M  V30 15 1 15 16
M  V30 16 1 16 17
M  V30 17 2 17 18
M  V30 18 1 18 19
M  V30 19 2 19 20
M  V30 20 1 20 21
M  V30 21 1 21 22
M  V30 22 1 22 23
M  V30 23 1 23 24
M  V30 24 2 24 25
M  V30 25 1 24 26
M  V30 26 1 26 27
M  V30 27 2 23 28
M  V30 28 1 28 29
M  V30 29 1 28 30
M  V30 30 1 15 9
M  V30 31 1 30 17
M  V30 32 2 30 21
M  V30 33 1 1 31
M  V30 34 1 1 32
M  V30 35 1 1 33
M  V30 36 1 2 34
M  V30 37 1 2 35
M  V30 38 1 3 36
M  V30 39 1 6 37
M  V30 40 1 7 38
M  V30 41 1 7 39
M  V30 42 1 7 40
M  V30 43 1 10 41
M  V30 44 1 13 42
M  V30 45 1 14 43
M  V30 46 1 16 44
M  V30 47 1 19 45
M  V30 48 1 27 46
M  V30 49 1 27 47
M  V30 50 1 27 48
M  V30 51 1 29 49
M  V30 52 1 29 50
M  V30 53 1 29 51
M  V30 END BOND
M  V30 END CTAB
M  END
>  <Dataset>  (513) 
ChEMBL_Kinases

>  <Ligand_Instance>  (513) 
nan

>  <PDB_ID>  (513) 
nan

>  <Standardized_SMILES>  (513) 
CCNC(=O)C(C)Oc1cc(F)ccc1Nc1ncnc2sc(C(=O)OC)c(C)c12

>  <Name>  (513) 
nan

>  <Pocket>  (513) 
nan

>  <ATP_Site>  (513) 
nan

>  <Peripheral>  (513) 
nan

>  <Num_H_Atoms_ProtBoundConf>  (513) 
nan

>  <Num_Resolved_Atoms>  (513) 
nan

>  <Num_Not_Resolved_Atoms>  (513) 
nan

$$$$
CHEMBL3702268
     RDKit          3D

  0  0  0  0  0  0  0  0  0  0999 V3000
M  V30 BEGIN CTAB
M  V30 COUNTS 48 50 0 0 0
M  V30 BEGIN ATOM
M  V30 1 C 0.537293 0.499006 6.972270 0
M  V30 2 C 1.177884 1.141480 5.758863 0
M  V30 3 N 1.198074 0.240826 4.622412 0
M  V30 4 C 1.770846 0.677373 3.392123 0
M  V30 5 O 2.252611 1.837361 3.313097 0
M  V30 6 C 1.685055 -0.403447 2.349628 0
M  V30 7 C 2.327608 -1.641956 2.995835 0
M  V30 8 O 2.221225 -0.076609 1.161422 0
M  V30 9 C 1.999566 0.190513 -0.099320 0
M  V30 10 C 3.255870 0.405025 -0.689732 0
M  V30 11 C 3.373648 0.715192 -2.053365 0
M  V30 12 F 4.499199 0.946171 -2.759989 0
M  V30 13 C 2.204480 0.805624 -2.812651 0
M  V30 14 C 0.934888 0.601722 -2.267667 0
M  V30 15 C 0.918452 0.304915 -0.931210 0
M  V30 16 N -0.322605 0.118920 -0.290790 0
M  V30 17 C -1.463682 0.269340 -1.124548 0
M  V30 18 N -1.628220 1.552714 -1.457483 0
M  V30 19 C -2.606879 2.013318 -2.231402 0
M  V30 20 N -3.483201 1.113678 -2.703978 0
M  V30 21 C -3.342401 -0.200442 -2.381993 0
M  V30 22 S -4.301043 -1.668963 -2.800663 0
M  V30 23 C -3.300637 -2.817869 -1.888249 0
M  V30 24 C -3.516255 -4.251668 -1.781680 0
M  V30 25 O -2.923276 -5.219850 -1.190334 0
M  V30 26 O -4.588168 -4.811541 -2.436388 0
M  V30 27 C -2.275181 -2.048663 -1.298839 0
M  V30 28 C -1.259341 -2.725386 -0.455527 0
M  V30 29 C -2.322607 -0.709376 -1.570821 0
M  V30 30 H 1.199877 0.616384 7.874100 0
M  V30 31 H -0.430377 0.937265 7.242922 0
M  V30 32 H 0.450318 -0.617425 6.831917 0
M  V30 33 H 0.686635 2.106461 5.485228 0
M  V30 34 H 2.249036 1.328674 6.020035 0
M  V30 35 H 0.771879 -0.711766 4.791841 0
M  V30 36 H 0.598158 -0.657604 2.248776 0
M  V30 37 H 3.098643 -1.297819 3.714619 0
M  V30 38 H 2.774446 -2.239586 2.189417 0
M  V30 39 H 1.542582 -2.158897 3.564441 0
M  V30 40 H 4.280136 0.383252 -0.288181 0
M  V30 41 H 2.214780 1.039510 -3.864630 0
M  V30 42 H 0.054215 0.678806 -2.883032 0
M  V30 43 H -0.849021 -0.090233 0.568939 0
M  V30 44 H -2.758594 3.032241 -2.506808 0
M  V30 45 H -5.189816 -5.558895 -2.059803 0
M  V30 46 H -1.572519 -2.772809 0.609868 0
M  V30 47 H -0.253872 -2.272450 -0.578024 0
M  V30 48 H -1.145685 -3.769729 -0.805923 0
M  V30 END ATOM
M  V30 BEGIN BOND
M  V30 1 1 1 2
M  V30 2 1 2 3
M  V30 3 1 3 4
M  V30 4 2 4 5
M  V30 5 1 4 6
M  V30 6 1 6 7
M  V30 7 1 6 8
M  V30 8 1 8 9
M  V30 9 2 9 10
M  V30 10 1 10 11
M  V30 11 1 11 12
M  V30 12 2 11 13
M  V30 13 1 13 14
M  V30 14 2 14 15
M  V30 15 1 15 16
M  V30 16 1 16 17
M  V30 17 2 17 18
M  V30 18 1 18 19
M  V30 19 2 19 20
M  V30 20 1 20 21
M  V30 21 1 21 22
M  V30 22 1 22 23
M  V30 23 1 23 24
M  V30 24 2 24 25
M  V30 25 1 24 26
M  V30 26 2 23 27
M  V30 27 1 27 28
M  V30 28 1 27 29
M  V30 29 1 15 9
M  V30 30 1 29 17
M  V30 31 2 29 21
M  V30 32 1 1 30
M  V30 33 1 1 31
M  V30 34 1 1 32
M  V30 35 1 2 33
M  V30 36 1 2 34
M  V30 37 1 3 35
M  V30 38 1 6 36
M  V30 39 1 7 37
M  V30 40 1 7 38
M  V30 41 1 7 39
M  V30 42 1 10 40
M  V30 43 1 13 41
M  V30 44 1 14 42
M  V30 45 1 16 43
M  V30 46 1 19 44
M  V30 47 1 26 45
M  V30 48 1 28 46
M  V30 49 1 28 47
M  V30 50 1 28 48
M  V30 END BOND
M  V30 END CTAB
M  END
>  <Dataset>  (514) 
ChEMBL_Kinases

>  <Ligand_Instance>  (514) 
nan

>  <PDB_ID>  (514) 
nan

>  <Standardized_SMILES>  (514) 
CCNC(=O)C(C)Oc1cc(F)ccc1Nc1ncnc2sc(C(=O)O)c(C)c12

>  <Name>  (514) 
nan

>  <Pocket>  (514) 
nan

>  <ATP_Site>  (514) 
nan

>  <Peripheral>  (514) 
nan

>  <Num_H_Atoms_ProtBoundConf>  (514) 
nan

>  <Num_Resolved_Atoms>  (514) 
nan

>  <Num_Not_Resolved_Atoms>  (514) 
nan

$$$$
CHEMBL507348
     RDKit          3D

  0  0  0  0  0  0  0  0  0  0999 V3000
M  V30 BEGIN CTAB
M  V30 COUNTS 38 41 0 0 0
M  V30 BEGIN ATOM
M  V30 1 O 0.435965 -5.102005 2.749202 0
M  V30 2 C 1.664906 -4.820997 2.966761 0
M  V30 3 N 2.492604 -5.695927 3.572000 0
M  V30 4 C 3.776408 -5.297858 3.754221 0
M  V30 5 N 4.239045 -4.103284 3.366804 0
M  V30 6 C 3.411461 -3.224729 2.760032 0
M  V30 7 N 3.630257 -1.968049 2.278653 0
M  V30 8 C 2.457631 -1.543627 1.772550 0
M  V30 9 C 2.294915 -0.223229 1.158574 0
M  V30 10 C 3.382995 0.625496 1.092590 0
M  V30 11 C 3.144753 1.848380 0.499860 0
M  V30 12 N 1.953938 2.229681 0.007376 0
M  V30 13 C 0.876046 1.425119 0.057131 0
M  V30 14 C -0.421233 1.835292 -0.477103 0
M  V30 15 C -1.532488 1.133108 -0.480709 0
M  V30 16 C -2.810893 1.573640 -1.022822 0
M  V30 17 C -3.034833 2.782844 -1.605602 0
M  V30 18 C -4.241993 3.162598 -2.101884 0
M  V30 19 C -5.338666 2.329864 -2.045232 0
M  V30 20 C -5.142141 1.098501 -1.460456 0
M  V30 21 C -3.906636 0.739173 -0.965166 0
M  V30 22 C 1.085319 0.199315 0.643138 0
M  V30 23 C 1.472540 -2.498469 1.912644 0
M  V30 24 C 2.077982 -3.567267 2.540187 0
M  V30 25 H 2.127420 -6.630196 3.874066 0
M  V30 26 H 4.450682 -5.991134 4.238883 0
M  V30 27 H 4.546055 -1.465145 2.314266 0
M  V30 28 H 4.366024 0.382993 1.467987 0
M  V30 29 H 3.909925 2.605859 0.384220 0
M  V30 30 H -0.475472 2.827314 -0.919548 0
M  V30 31 H -1.458826 0.150427 -0.036936 0
M  V30 32 H -2.230046 3.493141 -1.689922 0
M  V30 33 H -4.394328 4.139749 -2.564932 0
M  V30 34 H -6.318621 2.582225 -2.424010 0
M  V30 35 H -5.955987 0.366964 -1.369476 0
M  V30 36 H -3.798203 -0.246429 -0.510571 0
M  V30 37 H 0.299115 -0.511730 0.732964 0
M  V30 38 H 0.439101 -2.462745 1.612442 0
M  V30 END ATOM
M  V30 BEGIN BOND
M  V30 1 2 1 2
M  V30 2 1 2 3
M  V30 3 1 3 4
M  V30 4 2 4 5
M  V30 5 1 5 6
M  V30 6 1 6 7
M  V30 7 1 7 8
M  V30 8 1 8 9
M  V30 9 2 9 10
M  V30 10 1 10 11
M  V30 11 2 11 12
M  V30 12 1 12 13
M  V30 13 1 13 14
M  V30 14 2 14 15
M  V30 15 1 15 16
M  V30 16 2 16 17
M  V30 17 1 17 18
M  V30 18 2 18 19
M  V30 19 1 19 20
M  V30 20 2 20 21
M  V30 21 2 13 22
M  V30 22 2 8 23
M  V30 23 1 23 24
M  V30 24 1 24 2
M  V30 25 2 24 6
M  V30 26 1 22 9
M  V30 27 1 21 16
M  V30 28 1 3 25
M  V30 29 1 4 26
M  V30 30 1 7 27
M  V30 31 1 10 28
M  V30 32 1 11 29
M  V30 33 1 14 30
M  V30 34 1 15 31
M  V30 35 1 17 32
M  V30 36 1 18 33
M  V30 37 1 19 34
M  V30 38 1 20 35
M  V30 39 1 21 36
M  V30 40 1 22 37
M  V30 41 1 23 38
M  V30 END BOND
M  V30 END CTAB
M  END
>  <Dataset>  (515) 
ChEMBL_Kinases

>  <Ligand_Instance>  (515) 
nan

>  <PDB_ID>  (515) 
nan

>  <Standardized_SMILES>  (515) 
O=c1[nH]cnc2[nH]c(-c3ccnc(/C=C/c4ccccc4)c3)cc12

>  <Name>  (515) 
nan

>  <Pocket>  (515) 
nan

>  <ATP_Site>  (515) 
nan

>  <Peripheral>  (515) 
nan

>  <Num_H_Atoms_ProtBoundConf>  (515) 
nan

>  <Num_Resolved_Atoms>  (515) 
nan

>  <Num_Not_Resolved_Atoms>  (515) 
nan

$$$$
CHEMBL3792888
     RDKit          3D

  0  0  0  0  0  0  0  0  0  0999 V3000
M  V30 BEGIN CTAB
M  V30 COUNTS 43 45 0 0 0
M  V30 BEGIN ATOM
M  V30 1 N -0.826817 -4.837366 1.621420 0
M  V30 2 C -0.045682 -3.966748 0.731100 0
M  V30 3 C 0.471113 -2.788072 1.462387 0
M  V30 4 C 1.278954 -1.835079 0.656778 0
M  V30 5 O 2.534546 -1.644205 0.840132 0
M  V30 6 N 0.828248 -1.013017 -0.400430 0
M  V30 7 C 1.674506 -0.139169 -1.104925 0
M  V30 8 C 2.393861 -0.456690 -2.246714 0
M  V30 9 C 3.206018 0.445962 -2.890047 0
M  V30 10 C 3.312439 1.713541 -2.385854 0
M  V30 11 C 4.137724 2.627617 -3.041198 0
M  V30 12 N 4.247746 3.870407 -2.554590 0
M  V30 13 C 3.568958 4.226962 -1.448033 0
M  V30 14 C 2.747507 3.338393 -0.784848 0
M  V30 15 C 2.619361 2.069872 -1.259960 0
M  V30 16 C 1.807297 1.148706 -0.626234 0
M  V30 17 C -0.629488 -2.130374 2.213506 0
M  V30 18 C -0.439315 -1.946122 3.574749 0
M  V30 19 C -1.380237 -1.349609 4.422914 0
M  V30 20 C -2.573026 -0.914517 3.883621 0
M  V30 21 C -3.606446 -0.277159 4.725172 0
M  V30 22 O -3.429086 1.122838 4.782506 0
M  V30 23 C -2.776997 -1.091051 2.530252 0
M  V30 24 C -1.832028 -1.682407 1.717803 0
M  V30 25 H -1.449382 -4.259499 2.243416 0
M  V30 26 H -1.395830 -5.515907 1.069753 0
M  V30 27 H -0.689692 -3.756894 -0.120166 0
M  V30 28 H 0.776763 -4.629622 0.364921 0
M  V30 29 H 1.200631 -3.175408 2.239413 0
M  V30 30 H -0.184490 -1.067981 -0.662345 0
M  V30 31 H 2.254598 -1.483590 -2.582974 0
M  V30 32 H 3.746386 0.138472 -3.783063 0
M  V30 33 H 4.672181 2.324035 -3.924168 0
M  V30 34 H 3.677224 5.240901 -1.076218 0
M  V30 35 H 2.235608 3.672539 0.083047 0
M  V30 36 H 1.294196 1.495780 0.249934 0
M  V30 37 H 0.463881 -2.253393 4.094476 0
M  V30 38 H -1.205869 -1.220056 5.472945 0
M  V30 39 H -3.691562 -0.730414 5.729374 0
M  V30 40 H -4.611039 -0.398191 4.240349 0
M  V30 41 H -2.722147 1.343477 4.128027 0
M  V30 42 H -3.688623 -0.774400 2.038262 0
M  V30 43 H -1.997021 -1.821942 0.664299 0
M  V30 END ATOM
M  V30 BEGIN BOND
M  V30 1 1 1 2
M  V30 2 1 2 3
M  V30 3 1 3 4
M  V30 4 2 4 5
M  V30 5 1 4 6
M  V30 6 1 6 7
M  V30 7 2 7 8
M  V30 8 1 8 9
M  V30 9 2 9 10
M  V30 10 1 10 11
M  V30 11 2 11 12
M  V30 12 1 12 13
M  V30 13 2 13 14
M  V30 14 1 14 15
M  V30 15 2 15 16
M  V30 16 1 3 17
M  V30 17 2 17 18
M  V30 18 1 18 19
M  V30 19 2 19 20
M  V30 20 1 20 21
M  V30 21 1 21 22
M  V30 22 1 20 23
M  V30 23 2 23 24
M  V30 24 1 16 7
M  V30 25 1 24 17
M  V30 26 1 15 10
M  V30 27 1 1 25
M  V30 28 1 1 26
M  V30 29 1 2 27
M  V30 30 1 2 28
M  V30 31 1 3 29
M  V30 32 1 6 30
M  V30 33 1 8 31
M  V30 34 1 9 32
M  V30 35 1 11 33
M  V30 36 1 13 34
M  V30 37 1 14 35
M  V30 38 1 16 36
M  V30 39 1 18 37
M  V30 40 1 19 38
M  V30 41 1 21 39
M  V30 42 1 21 40
M  V30 43 1 22 41
M  V30 44 1 23 42
M  V30 45 1 24 43
M  V30 END BOND
M  V30 END CTAB
M  END
>  <Dataset>  (516) 
ChEMBL_Kinases

>  <Ligand_Instance>  (516) 
nan

>  <PDB_ID>  (516) 
nan

>  <Standardized_SMILES>  (516) 
NCC(C(=O)Nc1ccc2cnccc2c1)c1ccc(CO)cc1

>  <Name>  (516) 
nan

>  <Pocket>  (516) 
nan

>  <ATP_Site>  (516) 
nan

>  <Peripheral>  (516) 
nan

>  <Num_H_Atoms_ProtBoundConf>  (516) 
nan

>  <Num_Resolved_Atoms>  (516) 
nan

>  <Num_Not_Resolved_Atoms>  (516) 
nan

$$$$
CHEMBL3792856
     RDKit          3D

  0  0  0  0  0  0  0  0  0  0999 V3000
M  V30 BEGIN CTAB
M  V30 COUNTS 56 59 0 0 0
M  V30 BEGIN ATOM
M  V30 1 C 6.328566 -3.219174 3.901688 0
M  V30 2 O 6.087519 -2.083706 3.088902 0
M  V30 3 C 4.839112 -1.673168 2.705574 0
M  V30 4 O 3.962428 -2.444507 3.177689 0
M  V30 5 C 4.670164 -0.493131 1.866985 0
M  V30 6 C 5.775753 0.219660 1.453536 0
M  V30 7 C 5.561193 1.326774 0.662076 0
M  V30 8 C 4.272365 1.661513 0.328108 0
M  V30 9 C 3.140968 0.985545 0.713741 0
M  V30 10 N 1.802948 1.296879 0.389614 0
M  V30 11 C 1.297889 2.353313 -0.399944 0
M  V30 12 O 2.091925 3.151498 -0.906310 0
M  V30 13 C -0.118673 2.568674 -0.661701 0
M  V30 14 C -1.138781 1.787834 -0.183335 0
M  V30 15 C -2.470279 2.005310 -0.439828 0
M  V30 16 N -3.472554 1.149073 0.095823 0
M  V30 17 C -3.219646 -0.005637 0.734869 0
M  V30 18 C -4.401591 -0.590184 1.128721 0
M  V30 19 C -4.910512 -1.796696 1.828998 0
M  V30 20 N -5.244999 -2.893002 0.986850 0
M  V30 21 C -4.437938 -3.691460 0.143691 0
M  V30 22 C -3.077096 -3.575891 -0.001444 0
M  V30 23 C -2.294584 -4.346832 -0.821585 0
M  V30 24 C -0.828870 -4.142930 -0.908872 0
M  V30 25 C -2.928267 -5.316868 -1.559575 0
M  V30 26 C -4.294000 -5.443290 -1.422772 0
M  V30 27 N -4.993346 -4.657162 -0.604671 0
M  V30 28 N -5.368563 0.273959 0.692467 0
M  V30 29 N -4.775087 1.301208 0.079937 0
M  V30 30 C -2.848868 3.071444 -1.228076 0
M  V30 31 C -1.870361 3.893511 -1.738878 0
M  V30 32 C -0.555336 3.618049 -1.442373 0
M  V30 33 O 0.395839 4.496833 -1.995615 0
M  V30 34 C 3.399752 -0.111396 1.501583 0
M  V30 35 H 5.825419 -4.070774 3.429687 0
M  V30 36 H 7.398445 -3.434058 3.990372 0
M  V30 37 H 5.941093 -3.092528 4.932178 0
M  V30 38 H 6.736899 -0.128179 1.771277 0
M  V30 39 H 6.408361 1.904149 0.323672 0
M  V30 40 H 4.177660 2.534802 -0.290057 0
M  V30 41 H 1.048663 0.684454 0.767298 0
M  V30 42 H -0.918016 0.935288 0.440607 0
M  V30 43 H -2.309977 -0.522020 0.982236 0
M  V30 44 H -5.691078 -1.540207 2.567479 0
M  V30 45 H -4.051538 -2.166306 2.479559 0
M  V30 46 H -6.279537 -3.128486 1.015048 0
M  V30 47 H -2.559626 -2.829712 0.566465 0
M  V30 48 H -0.350680 -5.094597 -1.276880 0
M  V30 49 H -0.604342 -3.376166 -1.657737 0
M  V30 50 H -0.369468 -3.953575 0.089335 0
M  V30 51 H -2.358605 -5.953010 -2.222534 0
M  V30 52 H -4.769055 -6.214386 -2.014240 0
M  V30 53 H -3.880450 3.288411 -1.461308 0
M  V30 54 H -2.154384 4.731285 -2.357869 0
M  V30 55 H 0.444427 4.670121 -2.984904 0
M  V30 56 H 2.562222 -0.726413 1.867287 0
M  V30 END ATOM
M  V30 BEGIN BOND
M  V30 1 1 1 2
M  V30 2 1 2 3
M  V30 3 2 3 4
M  V30 4 1 3 5
M  V30 5 2 5 6
M  V30 6 1 6 7
M  V30 7 2 7 8
M  V30 8 1 8 9
M  V30 9 1 9 10
M  V30 10 1 10 11
M  V30 11 2 11 12
M  V30 12 1 11 13
M  V30 13 2 13 14
M  V30 14 1 14 15
M  V30 15 1 15 16
M  V30 16 1 16 17
M  V30 17 2 17 18
M  V30 18 1 18 19
M  V30 19 1 19 20
M  V30 20 1 20 21
M  V30 21 2 21 22
M  V30 22 1 22 23
M  V30 23 1 23 24
M  V30 24 2 23 25
M  V30 25 1 25 26
M  V30 26 2 26 27
M  V30 27 1 18 28
M  V30 28 2 28 29
M  V30 29 2 15 30
M  V30 30 1 30 31
M  V30 31 2 31 32
M  V30 32 1 32 33
M  V30 33 2 9 34
M  V30 34 1 34 5
M  V30 35 1 32 13
M  V30 36 1 29 16
M  V30 37 1 27 21
M  V30 38 1 1 35
M  V30 39 1 1 36
M  V30 40 1 1 37
M  V30 41 1 6 38
M  V30 42 1 7 39
M  V30 43 1 8 40
M  V30 44 1 10 41
M  V30 45 1 14 42
M  V30 46 1 17 43
M  V30 47 1 19 44
M  V30 48 1 19 45
M  V30 49 1 20 46
M  V30 50 1 22 47
M  V30 51 1 24 48
M  V30 52 1 24 49
M  V30 53 1 24 50
M  V30 54 1 25 51
M  V30 55 1 26 52
M  V30 56 1 30 53
M  V30 57 1 31 54
M  V30 58 1 33 55
M  V30 59 1 34 56
M  V30 END BOND
M  V30 END CTAB
M  END
>  <Dataset>  (517) 
ChEMBL_Kinases

>  <Ligand_Instance>  (517) 
nan

>  <PDB_ID>  (517) 
nan

>  <Standardized_SMILES>  (517) 
COC(=O)c1cccc(NC(=O)c2cc(-n3cc(CNc4cc(C)ccn4)nn3)ccc2O)c1

>  <Name>  (517) 
nan

>  <Pocket>  (517) 
nan

>  <ATP_Site>  (517) 
nan

>  <Peripheral>  (517) 
nan

>  <Num_H_Atoms_ProtBoundConf>  (517) 
nan

>  <Num_Resolved_Atoms>  (517) 
nan

>  <Num_Not_Resolved_Atoms>  (517) 
nan

$$$$
CHEMBL5073571
     RDKit          3D

  0  0  0  0  0  0  0  0  0  0999 V3000
M  V30 BEGIN CTAB
M  V30 COUNTS 61 65 0 0 0
M  V30 BEGIN ATOM
M  V30 1 C 5.291673 -0.429790 3.208568 0
M  V30 2 C 6.242319 0.044474 2.113782 0
M  V30 3 C 7.638528 -0.102493 2.634999 0
M  V30 4 O 6.088137 -0.745338 0.994948 0
M  V30 5 C 5.879378 1.496311 1.857516 0
M  V30 6 N 4.504647 1.611885 1.428573 0
M  V30 7 N 3.499951 1.775459 2.275856 0
M  V30 8 C 2.322628 1.855178 1.632515 0
M  V30 9 C 2.587513 1.735107 0.284040 0
M  V30 10 N 1.625813 1.762734 -0.783755 0
M  V30 11 C 0.250657 1.930337 -0.459999 0
M  V30 12 N -0.398203 3.118000 -0.361093 0
M  V30 13 C -1.701488 3.188435 -0.049686 0
M  V30 14 C -2.442770 2.059967 0.184341 0
M  V30 15 C -3.778260 2.069018 0.506798 0
M  V30 16 C -4.420372 0.848711 0.721553 0
M  V30 17 Cl -6.111918 0.931891 1.126397 0
M  V30 18 C -3.784329 -0.387546 0.628109 0
M  V30 19 C -4.546358 -1.637671 0.873203 0
M  V30 20 C -5.151621 -2.163799 -0.392387 0
M  V30 21 C -4.151453 -2.736622 -1.362095 0
M  V30 22 N -3.216340 -3.547727 -0.684700 0
M  V30 23 C -2.404319 -4.425998 -1.418470 0
M  V30 24 C -3.025384 -5.498392 -2.254757 0
M  V30 25 O -2.069388 -5.193735 -3.251257 0
M  V30 26 C -1.735220 -3.957961 -2.651361 0
M  V30 27 C -3.511287 -3.911210 0.658681 0
M  V30 28 C -3.751849 -2.707862 1.541955 0
M  V30 29 C -2.465651 -0.322351 0.306186 0
M  V30 30 C -1.776239 0.857424 0.081961 0
M  V30 31 N -0.487511 0.816834 -0.227418 0
M  V30 32 C 3.973815 1.583316 0.194479 0
M  V30 33 Cl 4.875646 1.388658 -1.270047 0
M  V30 34 H 5.737589 -1.290311 3.740785 0
M  V30 35 H 5.003675 0.403976 3.874363 0
M  V30 36 H 4.359861 -0.735934 2.664627 0
M  V30 37 H 8.077500 -1.089624 2.313707 0
M  V30 38 H 8.263849 0.703570 2.196970 0
M  V30 39 H 7.695028 -0.108619 3.745639 0
M  V30 40 H 5.275474 -1.298178 1.010624 0
M  V30 41 H 6.596458 1.882391 1.096418 0
M  V30 42 H 6.024921 2.010034 2.838491 0
M  V30 43 H 1.347317 1.988830 2.089810 0
M  V30 44 H 2.005514 1.655359 -1.752700 0
M  V30 45 H -2.199159 4.147128 0.023844 0
M  V30 46 H -4.299125 3.000115 0.587244 0
M  V30 47 H -5.426835 -1.354391 1.521810 0
M  V30 48 H -5.669313 -1.284966 -0.874704 0
M  V30 49 H -5.966583 -2.891148 -0.160389 0
M  V30 50 H -3.584776 -1.850199 -1.769648 0
M  V30 51 H -4.745953 -3.258271 -2.141016 0
M  V30 52 H -1.643293 -4.909086 -0.737944 0
M  V30 53 H -4.082060 -5.351722 -2.572556 0
M  V30 54 H -2.842724 -6.551836 -1.908137 0
M  V30 55 H -2.225066 -3.156510 -3.231507 0
M  V30 56 H -0.621605 -3.879117 -2.627851 0
M  V30 57 H -2.610207 -4.422873 1.068785 0
M  V30 58 H -4.324665 -4.673876 0.746089 0
M  V30 59 H -4.314449 -3.094664 2.422573 0
M  V30 60 H -2.802050 -2.311580 1.965827 0
M  V30 61 H -1.907887 -1.244356 0.216837 0
M  V30 END ATOM
M  V30 BEGIN BOND
M  V30 1 1 1 2
M  V30 2 1 2 3
M  V30 3 1 2 4
M  V30 4 1 2 5
M  V30 5 1 5 6
M  V30 6 1 6 7
M  V30 7 2 7 8
M  V30 8 1 8 9
M  V30 9 1 9 10
M  V30 10 1 10 11
M  V30 11 2 11 12
M  V30 12 1 12 13
M  V30 13 2 13 14
M  V30 14 1 14 15
M  V30 15 2 15 16
M  V30 16 1 16 17
M  V30 17 1 16 18
M  V30 18 1 18 19
M  V30 19 1 19 20
M  V30 20 1 20 21
M  V30 21 1 21 22
M  V30 22 1 22 23
M  V30 23 1 23 24
M  V30 24 1 24 25
M  V30 25 1 25 26
M  V30 26 1 22 27
M  V30 27 1 27 28
M  V30 28 2 18 29
M  V30 29 1 29 30
M  V30 30 2 30 31
M  V30 31 2 9 32
M  V30 32 1 32 33
M  V30 33 1 32 6
M  V30 34 1 31 11
M  V30 35 1 30 14
M  V30 36 1 28 19
M  V30 37 1 26 23
M  V30 38 1 1 34
M  V30 39 1 1 35
M  V30 40 1 1 36
M  V30 41 1 3 37
M  V30 42 1 3 38
M  V30 43 1 3 39
M  V30 44 1 4 40
M  V30 45 1 5 41
M  V30 46 1 5 42
M  V30 47 1 8 43
M  V30 48 1 10 44
M  V30 49 1 13 45
M  V30 50 1 15 46
M  V30 51 1 19 47
M  V30 52 1 20 48
M  V30 53 1 20 49
M  V30 54 1 21 50
M  V30 55 1 21 51
M  V30 56 1 23 52
M  V30 57 1 24 53
M  V30 58 1 24 54
M  V30 59 1 26 55
M  V30 60 1 26 56
M  V30 61 1 27 57
M  V30 62 1 27 58
M  V30 63 1 28 59
M  V30 64 1 28 60
M  V30 65 1 29 61
M  V30 END BOND
M  V30 END CTAB
M  END
>  <Dataset>  (518) 
ChEMBL_Kinases

>  <Ligand_Instance>  (518) 
nan

>  <PDB_ID>  (518) 
nan

>  <Standardized_SMILES>  (518) 
CC(C)(O)Cn1ncc(Nc2ncc3cc(Cl)c(C4CCN(C5COC5)CC4)cc3n2)c1Cl

>  <Name>  (518) 
nan

>  <Pocket>  (518) 
nan

>  <ATP_Site>  (518) 
nan

>  <Peripheral>  (518) 
nan

>  <Num_H_Atoms_ProtBoundConf>  (518) 
nan

>  <Num_Resolved_Atoms>  (518) 
nan

>  <Num_Not_Resolved_Atoms>  (518) 
nan

$$$$
CHEMBL3792850
     RDKit          3D

  0  0  0  0  0  0  0  0  0  0999 V3000
M  V30 BEGIN CTAB
M  V30 COUNTS 56 60 0 0 0
M  V30 BEGIN ATOM
M  V30 1 O -0.131668 -3.725314 0.184825 0
M  V30 2 C -0.056204 -4.500143 1.173282 0
M  V30 3 N 0.810151 -4.078824 2.198750 0
M  V30 4 C 1.435081 -2.834780 1.898806 0
M  V30 5 C 2.636579 -2.663240 1.241573 0
M  V30 6 C 3.135695 -1.396143 1.008783 0
M  V30 7 C 2.392917 -0.321555 1.454741 0
M  V30 8 C 2.820968 1.109937 1.266151 0
M  V30 9 N 2.363412 1.657673 0.056600 0
M  V30 10 C 2.664611 2.993556 -0.267828 0
M  V30 11 C 1.545369 3.491579 -1.193194 0
M  V30 12 N 0.267296 3.145087 -0.604768 0
M  V30 13 C -0.786409 3.996135 -0.133915 0
M  V30 14 C -1.960362 3.509045 0.402345 0
M  V30 15 C -2.908808 4.412795 0.825379 0
M  V30 16 C -2.779808 5.784370 0.756071 0
M  V30 17 C -1.592943 6.263247 0.213943 0
M  V30 18 C -0.633418 5.370688 -0.214143 0
M  V30 19 C 0.036241 1.720674 -0.481042 0
M  V30 20 C 1.354911 1.009052 -0.675489 0
M  V30 21 C 1.176890 -0.458317 2.121390 0
M  V30 22 C 0.705009 -1.740322 2.338684 0
M  V30 23 C -0.809709 -5.747642 1.258094 0
M  V30 24 N -0.809213 -6.650895 2.250739 0
M  V30 25 N -1.632907 -7.637533 1.931260 0
M  V30 26 C -2.201135 -7.428965 0.734455 0
M  V30 27 C -3.104364 -8.072104 -0.097487 0
M  V30 28 C -3.475386 -7.527073 -1.327301 0
M  V30 29 C -2.946546 -6.326079 -1.744907 0
M  V30 30 C -2.044352 -5.688427 -0.909084 0
M  V30 31 C -1.682042 -6.233092 0.305361 0
M  V30 32 H 0.928897 -4.671156 3.059431 0
M  V30 33 H 3.146987 -3.543724 0.930491 0
M  V30 34 H 4.056480 -1.226807 0.506448 0
M  V30 35 H 2.505658 1.739694 2.132359 0
M  V30 36 H 3.948376 1.164228 1.276763 0
M  V30 37 H 2.545099 3.601544 0.675784 0
M  V30 38 H 3.644611 3.171056 -0.737090 0
M  V30 39 H 1.604902 4.566724 -1.357730 0
M  V30 40 H 1.591522 2.951787 -2.180262 0
M  V30 41 H -2.111218 2.455881 0.478623 0
M  V30 42 H -3.813298 3.972457 1.238636 0
M  V30 43 H -3.612454 6.381083 1.128902 0
M  V30 44 H -1.493423 7.338583 0.159978 0
M  V30 45 H 0.235818 5.863039 -0.612243 0
M  V30 46 H -0.734665 1.364543 -1.198900 0
M  V30 47 H -0.316143 1.475788 0.547802 0
M  V30 48 H 1.536241 0.961092 -1.771759 0
M  V30 49 H 1.288731 -0.050032 -0.349159 0
M  V30 50 H 0.599573 0.386065 2.469903 0
M  V30 51 H -0.257175 -1.820780 2.867513 0
M  V30 52 H -1.826199 -8.480889 2.527877 0
M  V30 53 H -3.489660 -9.011700 0.278135 0
M  V30 54 H -4.197722 -8.136672 -1.888483 0
M  V30 55 H -3.269083 -5.949105 -2.707320 0
M  V30 56 H -1.678204 -4.741955 -1.324927 0
M  V30 END ATOM
M  V30 BEGIN BOND
M  V30 1 2 1 2
M  V30 2 1 2 3
M  V30 3 1 3 4
M  V30 4 2 4 5
M  V30 5 1 5 6
M  V30 6 2 6 7
M  V30 7 1 7 8
M  V30 8 1 8 9
M  V30 9 1 9 10
M  V30 10 1 10 11
M  V30 11 1 11 12
M  V30 12 1 12 13
M  V30 13 2 13 14
M  V30 14 1 14 15
M  V30 15 2 15 16
M  V30 16 1 16 17
M  V30 17 2 17 18
M  V30 18 1 12 19
M  V30 19 1 19 20
M  V30 20 1 7 21
M  V30 21 2 21 22
M  V30 22 1 2 23
M  V30 23 2 23 24
M  V30 24 1 24 25
M  V30 25 1 25 26
M  V30 26 2 26 27
M  V30 27 1 27 28
M  V30 28 2 28 29
M  V30 29 1 29 30
M  V30 30 2 30 31
M  V30 31 1 22 4
M  V30 32 1 31 23
M  V30 33 1 20 9
M  V30 34 1 31 26
M  V30 35 1 18 13
M  V30 36 1 3 32
M  V30 37 1 5 33
M  V30 38 1 6 34
M  V30 39 1 8 35
M  V30 40 1 8 36
M  V30 41 1 10 37
M  V30 42 1 10 38
M  V30 43 1 11 39
M  V30 44 1 11 40
M  V30 45 1 14 41
M  V30 46 1 15 42
M  V30 47 1 16 43
M  V30 48 1 17 44
M  V30 49 1 18 45
M  V30 50 1 19 46
M  V30 51 1 19 47
M  V30 52 1 20 48
M  V30 53 1 20 49
M  V30 54 1 21 50
M  V30 55 1 22 51
M  V30 56 1 25 52
M  V30 57 1 27 53
M  V30 58 1 28 54
M  V30 59 1 29 55
M  V30 60 1 30 56
M  V30 END BOND
M  V30 END CTAB
M  END
>  <Dataset>  (519) 
ChEMBL_Kinases

>  <Ligand_Instance>  (519) 
nan

>  <PDB_ID>  (519) 
nan

>  <Standardized_SMILES>  (519) 
O=C(Nc1ccc(CN2CCN(c3ccccc3)CC2)cc1)c1n[nH]c2ccccc12

>  <Name>  (519) 
nan

>  <Pocket>  (519) 
nan

>  <ATP_Site>  (519) 
nan

>  <Peripheral>  (519) 
nan

>  <Num_H_Atoms_ProtBoundConf>  (519) 
nan

>  <Num_Resolved_Atoms>  (519) 
nan

>  <Num_Not_Resolved_Atoms>  (519) 
nan

$$$$
CHEMBL5073147
     RDKit          3D

  0  0  0  0  0  0  0  0  0  0999 V3000
M  V30 BEGIN CTAB
M  V30 COUNTS 43 45 0 0 0
M  V30 BEGIN ATOM
M  V30 1 C 2.322467 -4.254466 1.155872 0
M  V30 2 C 1.265115 -4.063109 1.904409 0
M  V30 3 C -0.045376 -3.483530 1.941519 0
M  V30 4 O -0.267199 -3.833494 3.109875 0
M  V30 5 N -0.788012 -2.777601 0.980631 0
M  V30 6 C -0.304326 -2.406677 -0.300316 0
M  V30 7 O 0.653195 -3.130261 -0.677725 0
M  V30 8 C -0.712140 -1.364246 -1.226511 0
M  V30 9 C -0.993747 -0.004602 -0.739809 0
M  V30 10 C 0.225426 0.711102 -0.259672 0
M  V30 11 C 0.730809 1.820357 -0.953205 0
M  V30 12 C 1.850822 2.528411 -0.564503 0
M  V30 13 C 2.519905 2.139396 0.561113 0
M  V30 14 C 3.711931 2.843705 1.028878 0
M  V30 15 O 4.415472 2.588605 2.043012 0
M  V30 16 O 4.227739 3.932398 0.368757 0
M  V30 17 C 5.381602 4.634427 0.799257 0
M  V30 18 C 2.065523 1.054372 1.281219 0
M  V30 19 C 0.942201 0.384052 0.847605 0
M  V30 20 S -2.320114 0.255383 0.416279 0
M  V30 21 C -2.802937 -1.226104 1.291886 0
M  V30 22 C -4.071612 -1.090368 1.847769 0
M  V30 23 C -4.562369 -2.194646 2.549016 0
M  V30 24 C -3.903220 -3.405724 2.739106 0
M  V30 25 C -2.656947 -3.510087 2.180536 0
M  V30 26 C -2.106310 -2.437309 1.464901 0
M  V30 27 H 2.979521 -4.218205 0.287268 0
M  V30 28 H 2.938094 -4.197160 0.281492 0
M  V30 29 H 2.016155 -4.605460 2.429322 0
M  V30 30 H 0.056429 -1.255022 -2.050831 0
M  V30 31 H -1.598005 -1.748577 -1.795545 0
M  V30 32 H -1.293262 0.618176 -1.647547 0
M  V30 33 H 0.243656 2.178423 -1.855018 0
M  V30 34 H 2.197378 3.376830 -1.136680 0
M  V30 35 H 5.735189 5.300378 -0.009717 0
M  V30 36 H 5.264372 5.132236 1.766022 0
M  V30 37 H 6.182365 3.856769 0.898011 0
M  V30 38 H 2.601115 0.765297 2.157687 0
M  V30 39 H 0.643766 -0.438254 1.443439 0
M  V30 40 H -4.660223 -0.200683 1.758185 0
M  V30 41 H -5.563850 -2.065514 2.978981 0
M  V30 42 H -4.418143 -4.167005 3.307705 0
M  V30 43 H -2.127490 -4.421590 2.286116 0
M  V30 END ATOM
M  V30 BEGIN BOND
M  V30 1 2 1 2
M  V30 2 1 2 3
M  V30 3 2 3 4
M  V30 4 1 3 5
M  V30 5 1 5 6
M  V30 6 2 6 7
M  V30 7 1 6 8
M  V30 8 1 8 9
M  V30 9 1 9 10
M  V30 10 2 10 11
M  V30 11 1 11 12
M  V30 12 2 12 13
M  V30 13 1 13 14
M  V30 14 2 14 15
M  V30 15 1 14 16
M  V30 16 1 16 17
M  V30 17 1 13 18
M  V30 18 2 18 19
M  V30 19 1 9 20
M  V30 20 1 20 21
M  V30 21 2 21 22
M  V30 22 1 22 23
M  V30 23 2 23 24
M  V30 24 1 24 25
M  V30 25 2 25 26
M  V30 26 1 26 5
M  V30 27 1 19 10
M  V30 28 1 26 21
M  V30 29 1 1 27
M  V30 30 1 1 28
M  V30 31 1 2 29
M  V30 32 1 8 30
M  V30 33 1 8 31
M  V30 34 1 9 32
M  V30 35 1 11 33
M  V30 36 1 12 34
M  V30 37 1 17 35
M  V30 38 1 17 36
M  V30 39 1 17 37
M  V30 40 1 18 38
M  V30 41 1 19 39
M  V30 42 1 22 40
M  V30 43 1 23 41
M  V30 44 1 24 42
M  V30 45 1 25 43
M  V30 END BOND
M  V30 END CTAB
M  END
>  <Dataset>  (520) 
ChEMBL_Kinases

>  <Ligand_Instance>  (520) 
nan

>  <PDB_ID>  (520) 
nan

>  <Standardized_SMILES>  (520) 
C=CC(=O)N1C(=O)CC(c2ccc(C(=O)OC)cc2)Sc2ccccc21

>  <Name>  (520) 
nan

>  <Pocket>  (520) 
nan

>  <ATP_Site>  (520) 
nan

>  <Peripheral>  (520) 
nan

>  <Num_H_Atoms_ProtBoundConf>  (520) 
nan

>  <Num_Resolved_Atoms>  (520) 
nan

>  <Num_Not_Resolved_Atoms>  (520) 
nan

$$$$
CHEMBL5073582
     RDKit          3D

  0  0  0  0  0  0  0  0  0  0999 V3000
M  V30 BEGIN CTAB
M  V30 COUNTS 60 64 0 0 0
M  V30 BEGIN ATOM
M  V30 1 C -0.665418 -3.402433 2.750172 0
M  V30 2 C 0.211557 -2.243915 2.937665 0
M  V30 3 N 0.980301 -2.071116 4.015951 0
M  V30 4 C 1.782929 -0.997029 4.177152 0
M  V30 5 C 1.826792 -0.030983 3.206659 0
M  V30 6 N 2.673238 1.104447 3.373661 0
M  V30 7 C 2.335310 2.338627 3.988169 0
M  V30 8 O 1.161253 2.435718 4.431464 0
M  V30 9 C 3.331571 3.410040 4.077808 0
M  V30 10 C 4.635867 3.373477 3.611328 0
M  V30 11 C 5.439861 4.483877 3.783803 0
M  V30 12 N 5.005512 5.603031 4.388641 0
M  V30 13 C 3.761729 5.674925 4.848532 0
M  V30 14 C 3.344957 6.930607 5.502652 0
M  V30 15 F 2.389775 6.610497 6.450365 0
M  V30 16 F 2.824460 7.852965 4.625064 0
M  V30 17 F 4.421857 7.456366 6.175595 0
M  V30 18 C 2.929004 4.589138 4.695976 0
M  V30 19 C 1.028828 -0.195931 2.071713 0
M  V30 20 C 0.202477 -1.314214 1.919064 0
M  V30 21 C -0.568610 -1.346094 0.679196 0
M  V30 22 C -1.206824 -0.157497 0.325891 0
M  V30 23 C -1.970457 -0.032263 -0.817914 0
M  V30 24 C -2.117575 -1.118731 -1.655777 0
M  V30 25 C -1.491609 -2.302070 -1.319067 0
M  V30 26 C -0.730482 -2.417749 -0.173942 0
M  V30 27 O -1.500644 -3.523555 -2.012661 0
M  V30 28 C -2.135523 -3.898972 -3.210525 0
M  V30 29 C -3.605046 -4.197335 -3.053224 0
M  V30 30 C -4.011343 -5.435471 -3.806762 0
M  V30 31 O -3.396269 -5.539141 -5.051971 0
M  V30 32 C -2.020406 -5.685247 -4.961763 0
M  V30 33 C -1.484346 -5.211082 -3.634601 0
M  V30 34 C -2.007825 -2.858195 -4.312429 0
M  V30 35 C -2.985294 -1.753927 -3.998499 0
M  V30 36 O -3.972968 -1.444404 -4.748481 0
M  V30 37 N -2.919549 -0.922796 -2.821303 0
M  V30 38 H -1.540260 -3.163871 2.117578 0
M  V30 39 H -1.067021 -3.667177 3.767491 0
M  V30 40 H -0.136439 -4.270856 2.319928 0
M  V30 41 H 2.381263 -0.935988 5.095612 0
M  V30 42 H 3.603194 0.899740 2.971010 0
M  V30 43 H 4.924270 2.446044 3.134839 0
M  V30 44 H 6.450535 4.356747 3.382211 0
M  V30 45 H 1.927964 4.732098 5.100746 0
M  V30 46 H 1.090271 0.595673 1.318662 0
M  V30 47 H -1.129980 0.736977 0.945393 0
M  V30 48 H -2.470631 0.882533 -1.104182 0
M  V30 49 H -0.226834 -3.325829 0.119437 0
M  V30 50 H -4.248325 -3.367018 -3.411443 0
M  V30 51 H -3.876598 -4.387750 -1.984646 0
M  V30 52 H -3.839933 -6.352438 -3.183222 0
M  V30 53 H -5.102289 -5.371931 -3.995679 0
M  V30 54 H -1.815497 -6.776711 -5.006383 0
M  V30 55 H -1.514186 -5.247449 -5.829604 0
M  V30 56 H -1.776950 -5.965172 -2.873508 0
M  V30 57 H -0.380547 -5.100229 -3.710143 0
M  V30 58 H -0.969471 -2.458270 -4.367865 0
M  V30 59 H -2.314111 -3.321185 -5.256309 0
M  V30 60 H -3.508842 -0.046466 -2.742655 0
M  V30 END ATOM
M  V30 BEGIN BOND
M  V30 1 1 1 2
M  V30 2 2 2 3
M  V30 3 1 3 4
M  V30 4 2 4 5
M  V30 5 1 5 6
M  V30 6 1 6 7
M  V30 7 2 7 8
M  V30 8 1 7 9
M  V30 9 2 9 10
M  V30 10 1 10 11
M  V30 11 2 11 12
M  V30 12 1 12 13
M  V30 13 1 13 14
M  V30 14 1 14 15
M  V30 15 1 14 16
M  V30 16 1 14 17
M  V30 17 2 13 18
M  V30 18 1 5 19
M  V30 19 2 19 20
M  V30 20 1 20 21
M  V30 21 2 21 22
M  V30 22 1 22 23
M  V30 23 2 23 24
M  V30 24 1 24 25
M  V30 25 2 25 26
M  V30 26 1 25 27
M  V30 27 1 27 28
M  V30 28 1 28 29
M  V30 29 1 29 30
M  V30 30 1 30 31
M  V30 31 1 31 32
M  V30 32 1 32 33
M  V30 33 1 28 34
M  V30 34 1 34 35
M  V30 35 2 35 36
M  V30 36 1 35 37
M  V30 37 1 20 2
M  V30 38 1 26 21
M  V30 39 1 33 28
M  V30 40 1 18 9
M  V30 41 1 37 24
M  V30 42 1 1 38
M  V30 43 1 1 39
M  V30 44 1 1 40
M  V30 45 1 4 41
M  V30 46 1 6 42
M  V30 47 1 10 43
M  V30 48 1 11 44
M  V30 49 1 18 45
M  V30 50 1 19 46
M  V30 51 1 22 47
M  V30 52 1 23 48
M  V30 53 1 26 49
M  V30 54 1 29 50
M  V30 55 1 29 51
M  V30 56 1 30 52
M  V30 57 1 30 53
M  V30 58 1 32 54
M  V30 59 1 32 55
M  V30 60 1 33 56
M  V30 61 1 33 57
M  V30 62 1 34 58
M  V30 63 1 34 59
M  V30 64 1 37 60
M  V30 END BOND
M  V30 END CTAB
M  END
>  <Dataset>  (521) 
ChEMBL_Kinases

>  <Ligand_Instance>  (521) 
nan

>  <PDB_ID>  (521) 
nan

>  <Standardized_SMILES>  (521) 
Cc1ncc(NC(=O)c2ccnc(C(F)(F)F)c2)cc1-c1ccc2c(c1)OC1(CCOCC1)CC(=O)N2

>  <Name>  (521) 
nan

>  <Pocket>  (521) 
nan

>  <ATP_Site>  (521) 
nan

>  <Peripheral>  (521) 
nan

>  <Num_H_Atoms_ProtBoundConf>  (521) 
nan

>  <Num_Resolved_Atoms>  (521) 
nan

>  <Num_Not_Resolved_Atoms>  (521) 
nan

$$$$
CHEMBL3792781
     RDKit          3D

  0  0  0  0  0  0  0  0  0  0999 V3000
M  V30 BEGIN CTAB
M  V30 COUNTS 40 42 0 0 0
M  V30 BEGIN ATOM
M  V30 1 N 0.917730 -3.894191 3.752665 0
M  V30 2 C 1.188654 -2.741711 2.921845 0
M  V30 3 C 0.446402 -2.750211 1.632405 0
M  V30 4 C 0.767852 -1.527276 0.810986 0
M  V30 5 O 1.457823 -1.558360 -0.269393 0
M  V30 6 N 0.372182 -0.210216 1.097259 0
M  V30 7 C 0.745586 0.858253 0.232496 0
M  V30 8 C -0.100262 1.176627 -0.801264 0
M  V30 9 C 0.196341 2.210629 -1.690646 0
M  V30 10 C 1.379633 2.915574 -1.501478 0
M  V30 11 C 1.752022 3.962868 -2.343934 0
M  V30 12 O 0.858928 4.259658 -3.392415 0
M  V30 13 N 2.901221 4.654967 -2.168376 0
M  V30 14 C 3.740421 4.364544 -1.170552 0
M  V30 15 C 3.433523 3.331040 -0.290061 0
M  V30 16 C 2.261029 2.624295 -0.468503 0
M  V30 17 C 1.909801 1.587225 0.379938 0
M  V30 18 C -0.984450 -3.013855 1.750678 0
M  V30 19 C -1.537022 -4.047219 0.980492 0
M  V30 20 C -2.887368 -4.391881 1.015307 0
M  V30 21 C -3.734405 -3.692442 1.842083 0
M  V30 22 C -3.234948 -2.668493 2.617413 0
M  V30 23 C -1.904661 -2.368532 2.548424 0
M  V30 24 H 0.491828 -4.697062 3.249663 0
M  V30 25 H 0.453073 -3.641090 4.645721 0
M  V30 26 H 2.285554 -2.721460 2.759310 0
M  V30 27 H 0.962422 -1.799689 3.478579 0
M  V30 28 H 0.867926 -3.591252 1.001073 0
M  V30 29 H -0.198319 -0.038383 1.957084 0
M  V30 30 H -1.026277 0.663116 -0.991004 0
M  V30 31 H -0.422797 2.515858 -2.526212 0
M  V30 32 H -0.059207 4.574215 -3.057502 0
M  V30 33 H 4.661271 4.936260 -1.048601 0
M  V30 34 H 4.101706 3.064142 0.543389 0
M  V30 35 H 2.553856 1.304470 1.211154 0
M  V30 36 H -0.932627 -4.645223 0.303592 0
M  V30 37 H -3.267696 -5.191961 0.407097 0
M  V30 38 H -4.775425 -3.966678 1.861336 0
M  V30 39 H -3.891949 -2.116697 3.266868 0
M  V30 40 H -1.545893 -1.578304 3.158916 0
M  V30 END ATOM
M  V30 BEGIN BOND
M  V30 1 1 1 2
M  V30 2 1 2 3
M  V30 3 1 3 4
M  V30 4 2 4 5
M  V30 5 1 4 6
M  V30 6 1 6 7
M  V30 7 2 7 8
M  V30 8 1 8 9
M  V30 9 2 9 10
M  V30 10 1 10 11
M  V30 11 1 11 12
M  V30 12 2 11 13
M  V30 13 1 13 14
M  V30 14 2 14 15
M  V30 15 1 15 16
M  V30 16 2 16 17
M  V30 17 1 3 18
M  V30 18 2 18 19
M  V30 19 1 19 20
M  V30 20 2 20 21
M  V30 21 1 21 22
M  V30 22 2 22 23
M  V30 23 1 17 7
M  V30 24 1 23 18
M  V30 25 1 16 10
M  V30 26 1 1 24
M  V30 27 1 1 25
M  V30 28 1 2 26
M  V30 29 1 2 27
M  V30 30 1 3 28
M  V30 31 1 6 29
M  V30 32 1 8 30
M  V30 33 1 9 31
M  V30 34 1 12 32
M  V30 35 1 14 33
M  V30 36 1 15 34
M  V30 37 1 17 35
M  V30 38 1 19 36
M  V30 39 1 20 37
M  V30 40 1 21 38
M  V30 41 1 22 39
M  V30 42 1 23 40
M  V30 END BOND
M  V30 END CTAB
M  END
>  <Dataset>  (522) 
ChEMBL_Kinases

>  <Ligand_Instance>  (522) 
nan

>  <PDB_ID>  (522) 
nan

>  <Standardized_SMILES>  (522) 
NCC(C(=O)Nc1ccc2c(O)nccc2c1)c1ccccc1

>  <Name>  (522) 
nan

>  <Pocket>  (522) 
nan

>  <ATP_Site>  (522) 
nan

>  <Peripheral>  (522) 
nan

>  <Num_H_Atoms_ProtBoundConf>  (522) 
nan

>  <Num_Resolved_Atoms>  (522) 
nan

>  <Num_Not_Resolved_Atoms>  (522) 
nan

$$$$
CHEMBL3792742
     RDKit          3D

  0  0  0  0  0  0  0  0  0  0999 V3000
M  V30 BEGIN CTAB
M  V30 COUNTS 50 53 0 0 0
M  V30 BEGIN ATOM
M  V30 1 C 1.209349 -3.917449 1.160603 0
M  V30 2 C 1.931795 -2.990686 0.243598 0
M  V30 3 C 2.152590 -1.742833 0.756925 0
M  V30 4 C 2.811065 -0.787313 0.011245 0
M  V30 5 C 3.143744 0.594322 0.336824 0
M  V30 6 C 4.497117 0.898838 0.142361 0
M  V30 7 C 5.054968 2.136978 0.403491 0
M  V30 8 N 4.188159 3.075319 0.875699 0
M  V30 9 C 2.895571 2.770673 1.056757 0
M  V30 10 C 2.303121 1.571961 0.814641 0
M  V30 11 N 0.946755 1.234503 0.989405 0
M  V30 12 C -0.111668 2.035279 1.487800 0
M  V30 13 O 0.114096 3.206051 1.838275 0
M  V30 14 C -1.488931 1.591623 1.630499 0
M  V30 15 N -1.790236 0.326653 1.263611 0
M  V30 16 C -3.030806 -0.196109 1.350097 0
M  V30 17 C -3.188084 -1.569799 0.915337 0
M  V30 18 C -2.083853 -2.250698 0.447349 0
M  V30 19 C -2.141308 -3.559071 0.013540 0
M  V30 20 C -3.327583 -4.262517 0.027067 0
M  V30 21 C -4.454889 -3.615496 0.488433 0
M  V30 22 C -4.344622 -2.309700 0.910084 0
M  V30 23 F -5.482459 -1.749594 1.344072 0
M  V30 24 C -3.960139 0.655213 1.838547 0
M  V30 25 C -3.732093 1.953891 2.232554 0
M  V30 26 C -2.435364 2.458676 2.127956 0
M  V30 27 N -2.130754 3.791857 2.517391 0
M  V30 28 C 3.207370 -1.201078 -1.249649 0
M  V30 29 C 2.989214 -2.451546 -1.770663 0
M  V30 30 N 3.411469 -2.839081 -3.070283 0
M  V30 31 N 2.336208 -3.343848 -0.986927 0
M  V30 32 H 0.323926 -3.412241 1.571064 0
M  V30 33 H 0.834772 -4.784544 0.581565 0
M  V30 34 H 1.865703 -4.214312 2.012401 0
M  V30 35 H 1.856615 -1.400754 1.750970 0
M  V30 36 H 5.209354 0.176340 -0.230745 0
M  V30 37 H 6.092201 2.354060 0.249452 0
M  V30 38 H 2.311694 3.588397 1.431290 0
M  V30 39 H 0.585471 0.291221 0.736179 0
M  V30 40 H -1.091894 -1.788990 0.392894 0
M  V30 41 H -1.264758 -4.062416 -0.345294 0
M  V30 42 H -3.330070 -5.285289 -0.321112 0
M  V30 43 H -5.380984 -4.150029 0.503984 0
M  V30 44 H -4.958058 0.319555 1.937039 0
M  V30 45 H -4.524228 2.578076 2.614314 0
M  V30 46 H -1.967567 4.341674 1.641867 0
M  V30 47 H -2.142106 3.904708 3.574678 0
M  V30 48 H 3.738792 -0.536011 -1.937669 0
M  V30 49 H 4.171891 -3.559337 -3.121713 0
M  V30 50 H 3.080967 -2.516564 -4.018538 0
M  V30 END ATOM
M  V30 BEGIN BOND
M  V30 1 1 1 2
M  V30 2 2 2 3
M  V30 3 1 3 4
M  V30 4 1 4 5
M  V30 5 2 5 6
M  V30 6 1 6 7
M  V30 7 2 7 8
M  V30 8 1 8 9
M  V30 9 2 9 10
M  V30 10 1 10 11
M  V30 11 1 11 12
M  V30 12 2 12 13
M  V30 13 1 12 14
M  V30 14 2 14 15
M  V30 15 1 15 16
M  V30 16 1 16 17
M  V30 17 2 17 18
M  V30 18 1 18 19
M  V30 19 2 19 20
M  V30 20 1 20 21
M  V30 21 2 21 22
M  V30 22 1 22 23
M  V30 23 2 16 24
M  V30 24 1 24 25
M  V30 25 2 25 26
M  V30 26 1 26 27
M  V30 27 2 4 28
M  V30 28 1 28 29
M  V30 29 1 29 30
M  V30 30 2 29 31
M  V30 31 1 31 2
M  V30 32 1 10 5
M  V30 33 1 26 14
M  V30 34 1 22 17
M  V30 35 1 1 32
M  V30 36 1 1 33
M  V30 37 1 1 34
M  V30 38 1 3 35
M  V30 39 1 6 36
M  V30 40 1 7 37
M  V30 41 1 9 38
M  V30 42 1 11 39
M  V30 43 1 18 40
M  V30 44 1 19 41
M  V30 45 1 20 42
M  V30 46 1 21 43
M  V30 47 1 24 44
M  V30 48 1 25 45
M  V30 49 1 27 46
M  V30 50 1 27 47
M  V30 51 1 28 48
M  V30 52 1 30 49
M  V30 53 1 30 50
M  V30 END BOND
M  V30 END CTAB
M  END
>  <Dataset>  (523) 
ChEMBL_Kinases

>  <Ligand_Instance>  (523) 
nan

>  <PDB_ID>  (523) 
nan

>  <Standardized_SMILES>  (523) 
Cc1cc(-c2ccncc2NC(=O)c2nc(-c3ccccc3F)ccc2N)cc(N)n1

>  <Name>  (523) 
nan

>  <Pocket>  (523) 
nan

>  <ATP_Site>  (523) 
nan

>  <Peripheral>  (523) 
nan

>  <Num_H_Atoms_ProtBoundConf>  (523) 
nan

>  <Num_Resolved_Atoms>  (523) 
nan

>  <Num_Not_Resolved_Atoms>  (523) 
nan

$$$$
CHEMBL3702270
     RDKit          3D

  0  0  0  0  0  0  0  0  0  0999 V3000
M  V30 BEGIN CTAB
M  V30 COUNTS 52 54 0 0 0
M  V30 BEGIN ATOM
M  V30 1 C 4.703223 -3.112402 1.812468 0
M  V30 2 C 3.990030 -2.347936 2.920991 0
M  V30 3 N 3.299055 -1.242879 2.325642 0
M  V30 4 C 3.842274 -0.144056 1.567787 0
M  V30 5 O 5.115307 -0.193442 1.434605 0
M  V30 6 C 3.021500 0.935896 0.996785 0
M  V30 7 C 3.216461 1.064874 -0.505666 0
M  V30 8 O 1.695575 0.686209 1.329371 0
M  V30 9 C 0.752021 1.490131 1.872939 0
M  V30 10 C 1.044179 2.795977 2.172350 0
M  V30 11 C 0.072859 3.595060 2.717098 0
M  V30 12 F 0.273084 4.910634 3.054702 0
M  V30 13 C -1.181058 3.064557 2.952647 0
M  V30 14 C -1.502312 1.741523 2.658780 0
M  V30 15 C -0.502118 0.961362 2.111538 0
M  V30 16 N -0.758281 -0.376712 1.792764 0
M  V30 17 C -1.977218 -1.048871 1.887784 0
M  V30 18 N -2.382982 -1.104701 3.153575 0
M  V30 19 C -3.512601 -1.703106 3.551754 0
M  V30 20 N -4.251599 -2.267425 2.592217 0
M  V30 21 C -3.843428 -2.208914 1.324812 0
M  V30 22 S -4.557326 -2.855668 -0.182888 0
M  V30 23 C -3.277556 -2.281227 -1.309935 0
M  V30 24 C -3.492447 -2.631181 -2.656633 0
M  V30 25 O -4.530594 -3.301504 -3.013662 0
M  V30 26 N -2.772631 -2.409746 -3.865577 0
M  V30 27 C -3.335506 -2.946008 -5.108313 0
M  V30 28 C -2.412613 -1.645494 -0.477460 0
M  V30 29 C -1.255048 -1.027080 -1.175460 0
M  V30 30 C -2.697957 -1.610325 0.857809 0
M  V30 31 H 4.033148 -3.325891 0.976662 0
M  V30 32 H 5.163816 -4.023171 2.262991 0
M  V30 33 H 5.544219 -2.482976 1.461277 0
M  V30 34 H 3.181273 -3.015809 3.344138 0
M  V30 35 H 4.712210 -2.040042 3.679853 0
M  V30 36 H 2.239044 -1.140616 2.401178 0
M  V30 37 H 3.338688 1.898077 1.439499 0
M  V30 38 H 3.298811 2.135664 -0.740586 0
M  V30 39 H 4.169581 0.575898 -0.753312 0
M  V30 40 H 2.437374 0.541336 -1.098366 0
M  V30 41 H 1.984600 3.294638 2.024832 0
M  V30 42 H -1.966466 3.662778 3.381523 0
M  V30 43 H -2.505846 1.344816 2.856404 0
M  V30 44 H 0.022453 -1.022635 1.455617 0
M  V30 45 H -3.933539 -1.806379 4.545128 0
M  V30 46 H -1.896734 -1.882546 -3.735453 0
M  V30 47 H -3.710107 -3.962162 -4.956616 0
M  V30 48 H -4.149436 -2.263353 -5.434953 0
M  V30 49 H -2.547518 -2.869545 -5.885506 0
M  V30 50 H -0.469448 -1.714961 -1.466202 0
M  V30 51 H -0.745402 -0.231026 -0.541829 0
M  V30 52 H -1.618671 -0.356186 -2.025416 0
M  V30 END ATOM
M  V30 BEGIN BOND
M  V30 1 1 1 2
M  V30 2 1 2 3
M  V30 3 1 3 4
M  V30 4 2 4 5
M  V30 5 1 4 6
M  V30 6 1 6 7
M  V30 7 1 6 8
M  V30 8 1 8 9
M  V30 9 2 9 10
M  V30 10 1 10 11
M  V30 11 1 11 12
M  V30 12 2 11 13
M  V30 13 1 13 14
M  V30 14 2 14 15
M  V30 15 1 15 16
M  V30 16 1 16 17
M  V30 17 2 17 18
M  V30 18 1 18 19
M  V30 19 2 19 20
M  V30 20 1 20 21
M  V30 21 1 21 22
M  V30 22 1 22 23
M  V30 23 1 23 24
M  V30 24 2 24 25
M  V30 25 1 24 26
M  V30 26 1 26 27
M  V30 27 2 23 28
M  V30 28 1 28 29
M  V30 29 1 28 30
M  V30 30 1 15 9
M  V30 31 1 30 17
M  V30 32 2 30 21
M  V30 33 1 1 31
M  V30 34 1 1 32
M  V30 35 1 1 33
M  V30 36 1 2 34
M  V30 37 1 2 35
M  V30 38 1 3 36
M  V30 39 1 6 37
M  V30 40 1 7 38
M  V30 41 1 7 39
M  V30 42 1 7 40
M  V30 43 1 10 41
M  V30 44 1 13 42
M  V30 45 1 14 43
M  V30 46 1 16 44
M  V30 47 1 19 45
M  V30 48 1 26 46
M  V30 49 1 27 47
M  V30 50 1 27 48
M  V30 51 1 27 49
M  V30 52 1 29 50
M  V30 53 1 29 51
M  V30 54 1 29 52
M  V30 END BOND
M  V30 END CTAB
M  END
>  <Dataset>  (524) 
ChEMBL_Kinases

>  <Ligand_Instance>  (524) 
nan

>  <PDB_ID>  (524) 
nan

>  <Standardized_SMILES>  (524) 
CCNC(=O)C(C)Oc1cc(F)ccc1Nc1ncnc2sc(C(=O)NC)c(C)c12

>  <Name>  (524) 
nan

>  <Pocket>  (524) 
nan

>  <ATP_Site>  (524) 
nan

>  <Peripheral>  (524) 
nan

>  <Num_H_Atoms_ProtBoundConf>  (524) 
nan

>  <Num_Resolved_Atoms>  (524) 
nan

>  <Num_Not_Resolved_Atoms>  (524) 
nan

$$$$
CHEMBL3702271
     RDKit          3D

  0  0  0  0  0  0  0  0  0  0999 V3000
M  V30 BEGIN CTAB
M  V30 COUNTS 66 68 0 0 0
M  V30 BEGIN ATOM
M  V30 1 C 2.805653 -2.126733 3.811793 0
M  V30 2 C 3.127630 -2.335774 2.335384 0
M  V30 3 N 2.740097 -1.178187 1.581857 0
M  V30 4 C 2.923049 -1.121873 0.178713 0
M  V30 5 O 3.436364 -2.093145 -0.467098 0
M  V30 6 C 2.581893 -0.004772 -0.762128 0
M  V30 7 C 1.659890 -0.509180 -1.844569 0
M  V30 8 O 2.002191 1.078387 -0.108693 0
M  V30 9 C 2.635098 2.256605 0.217495 0
M  V30 10 C 3.944058 2.622982 0.006535 0
M  V30 11 C 4.474247 3.839563 0.379178 0
M  V30 12 F 5.788692 4.105285 0.123824 0
M  V30 13 C 3.631449 4.761652 1.011351 0
M  V30 14 C 2.297299 4.384153 1.223857 0
M  V30 15 C 1.812455 3.140299 0.826843 0
M  V30 16 N 0.417905 3.154400 1.199656 0
M  V30 17 C -0.774211 3.025429 0.440021 0
M  V30 18 N -0.931584 4.214308 -0.144543 0
M  V30 19 C -1.954921 4.525505 -0.955534 0
M  V30 20 N -2.835294 3.528206 -1.142668 0
M  V30 21 C -2.680371 2.325008 -0.552913 0
M  V30 22 S -3.611854 0.795762 -0.544182 0
M  V30 23 C -2.535647 -0.104761 0.545095 0
M  V30 24 C -3.014901 -1.449935 0.791473 0
M  V30 25 O -4.109653 -1.794396 0.214523 0
M  V30 26 N -2.578448 -2.554597 1.540532 0
M  V30 27 C -2.635866 -3.864872 2.031924 0
M  V30 28 C -2.452520 -4.976763 1.073389 0
M  V30 29 C -3.338106 -5.176558 -0.085463 0
M  V30 30 N -3.344977 -4.200594 -1.108040 0
M  V30 31 C -2.163187 -4.090276 -1.899496 0
M  V30 32 C -4.501958 -4.232159 -1.943552 0
M  V30 33 C -1.550371 0.750071 0.849646 0
M  V30 34 C -0.500528 0.251650 1.766694 0
M  V30 35 C -1.642237 1.980952 0.280763 0
M  V30 36 H 1.819056 -2.550143 4.068267 0
M  V30 37 H 3.551779 -2.621012 4.457356 0
M  V30 38 H 2.810869 -1.047447 4.057863 0
M  V30 39 H 2.648057 -3.274350 1.999207 0
M  V30 40 H 4.225744 -2.528534 2.282322 0
M  V30 41 H 2.314169 -0.300810 1.934120 0
M  V30 42 H 3.574531 0.306502 -1.198834 0
M  V30 43 H 0.607576 -0.381057 -1.458527 0
M  V30 44 H 1.837704 0.029218 -2.782034 0
M  V30 45 H 1.872118 -1.595024 -2.016285 0
M  V30 46 H 4.569270 1.896812 -0.478529 0
M  V30 47 H 4.116367 5.684082 1.271011 0
M  V30 48 H 1.813980 5.239035 1.726156 0
M  V30 49 H 0.107474 3.293383 2.209484 0
M  V30 50 H -2.263063 5.389849 -1.512173 0
M  V30 51 H -1.703599 -2.110878 1.953952 0
M  V30 52 H -1.842825 -3.987437 2.848242 0
M  V30 53 H -3.640505 -4.019492 2.589629 0
M  V30 54 H -1.388161 -4.943885 0.625914 0
M  V30 55 H -2.360858 -5.964396 1.660277 0
M  V30 56 H -4.412750 -5.318904 0.264929 0
M  V30 57 H -3.027424 -6.152247 -0.586888 0
M  V30 58 H -1.964088 -4.988764 -2.524038 0
M  V30 59 H -2.326859 -3.250298 -2.625736 0
M  V30 60 H -1.301906 -3.825498 -1.284804 0
M  V30 61 H -4.349066 -4.577644 -2.971832 0
M  V30 62 H -5.233469 -4.922366 -1.462735 0
M  V30 63 H -4.956477 -3.222247 -2.015631 0
M  V30 64 H -0.910034 -0.091411 2.734628 0
M  V30 65 H -0.041224 -0.646642 1.272336 0
M  V30 66 H 0.289063 0.981663 2.007923 0
M  V30 END ATOM
M  V30 BEGIN BOND
M  V30 1 1 1 2
M  V30 2 1 2 3
M  V30 3 1 3 4
M  V30 4 2 4 5
M  V30 5 1 4 6
M  V30 6 1 6 7
M  V30 7 1 6 8
M  V30 8 1 8 9
M  V30 9 2 9 10
M  V30 10 1 10 11
M  V30 11 1 11 12
M  V30 12 2 11 13
M  V30 13 1 13 14
M  V30 14 2 14 15
M  V30 15 1 15 16
M  V30 16 1 16 17
M  V30 17 2 17 18
M  V30 18 1 18 19
M  V30 19 2 19 20
M  V30 20 1 20 21
M  V30 21 1 21 22
M  V30 22 1 22 23
M  V30 23 1 23 24
M  V30 24 2 24 25
M  V30 25 1 24 26
M  V30 26 1 26 27
M  V30 27 1 27 28
M  V30 28 1 28 29
M  V30 29 1 29 30
M  V30 30 1 30 31
M  V30 31 1 30 32
M  V30 32 2 23 33
M  V30 33 1 33 34
M  V30 34 1 33 35
M  V30 35 1 15 9
M  V30 36 1 35 17
M  V30 37 2 35 21
M  V30 38 1 1 36
M  V30 39 1 1 37
M  V30 40 1 1 38
M  V30 41 1 2 39
M  V30 42 1 2 40
M  V30 43 1 3 41
M  V30 44 1 6 42
M  V30 45 1 7 43
M  V30 46 1 7 44
M  V30 47 1 7 45
M  V30 48 1 10 46
M  V30 49 1 13 47
M  V30 50 1 14 48
M  V30 51 1 16 49
M  V30 52 1 19 50
M  V30 53 1 26 51
M  V30 54 1 27 52
M  V30 55 1 27 53
M  V30 56 1 28 54
M  V30 57 1 28 55
M  V30 58 1 29 56
M  V30 59 1 29 57
M  V30 60 1 31 58
M  V30 61 1 31 59
M  V30 62 1 31 60
M  V30 63 1 32 61
M  V30 64 1 32 62
M  V30 65 1 32 63
M  V30 66 1 34 64
M  V30 67 1 34 65
M  V30 68 1 34 66
M  V30 END BOND
M  V30 END CTAB
M  END
>  <Dataset>  (525) 
ChEMBL_Kinases

>  <Ligand_Instance>  (525) 
nan

>  <PDB_ID>  (525) 
nan

>  <Standardized_SMILES>  (525) 
CCNC(=O)C(C)Oc1cc(F)ccc1Nc1ncnc2sc(C(=O)NCCCN(C)C)c(C)c12

>  <Name>  (525) 
nan

>  <Pocket>  (525) 
nan

>  <ATP_Site>  (525) 
nan

>  <Peripheral>  (525) 
nan

>  <Num_H_Atoms_ProtBoundConf>  (525) 
nan

>  <Num_Resolved_Atoms>  (525) 
nan

>  <Num_Not_Resolved_Atoms>  (525) 
nan

$$$$
CHEMBL3702272
     RDKit          3D

  0  0  0  0  0  0  0  0  0  0999 V3000
M  V30 BEGIN CTAB
M  V30 COUNTS 59 61 0 0 0
M  V30 BEGIN ATOM
M  V30 1 C 5.568483 -5.079300 3.034232 0
M  V30 2 O 5.472314 -3.779912 2.481485 0
M  V30 3 C 4.280491 -3.091946 2.387088 0
M  V30 4 O 3.525637 -3.927176 2.886980 0
M  V30 5 C 4.303295 -1.757409 1.794119 0
M  V30 6 S 5.698540 -0.889333 1.175737 0
M  V30 7 C 4.765182 0.586526 0.669129 0
M  V30 8 N 5.204933 1.717920 0.091281 0
M  V30 9 C 4.332664 2.694537 -0.202427 0
M  V30 10 N 3.049218 2.449700 0.116163 0
M  V30 11 C 2.629068 1.324782 0.687154 0
M  V30 12 N 1.231007 1.337690 0.886510 0
M  V30 13 C 0.263649 2.230420 1.402714 0
M  V30 14 C 0.729932 3.455058 1.849767 0
M  V30 15 C -0.099539 4.418193 2.373668 0
M  V30 16 C -1.442126 4.109931 2.437320 0
M  V30 17 F -2.342531 4.999448 2.942315 0
M  V30 18 C -1.868401 2.893215 1.987614 0
M  V30 19 C -1.091622 1.903018 1.460474 0
M  V30 20 O -1.392182 0.664214 0.984332 0
M  V30 21 C -2.702800 0.179316 0.944253 0
M  V30 22 C -2.929839 -0.876794 2.025810 0
M  V30 23 C -2.997349 -0.489482 -0.340198 0
M  V30 24 O -1.899362 -0.485913 -1.001529 0
M  V30 25 N -4.079950 -1.075593 -0.965566 0
M  V30 26 C -4.506715 -1.737054 -2.119630 0
M  V30 27 C -4.027801 -3.064716 -2.508416 0
M  V30 28 N -2.711100 -3.393175 -2.740603 0
M  V30 29 C -1.756289 -3.489072 -1.725887 0
M  V30 30 C -2.239363 -3.426809 -4.082966 0
M  V30 31 C 3.461269 0.286418 1.017853 0
M  V30 32 C 3.228385 -0.926498 1.600495 0
M  V30 33 C 1.871871 -1.357965 2.061103 0
M  V30 34 H 5.209059 -5.857664 2.327485 0
M  V30 35 H 6.623196 -5.261386 3.343609 0
M  V30 36 H 4.968617 -5.090442 3.975006 0
M  V30 37 H 4.774655 3.547815 -0.653585 0
M  V30 38 H 0.869912 0.427215 0.513441 0
M  V30 39 H 1.796562 3.695359 1.798288 0
M  V30 40 H 0.287870 5.359071 2.711917 0
M  V30 41 H -2.925861 2.693355 2.061124 0
M  V30 42 H -3.395500 0.997799 1.188529 0
M  V30 43 H -2.045060 -1.495820 2.226361 0
M  V30 44 H -3.337583 -0.402318 2.942921 0
M  V30 45 H -3.728719 -1.550618 1.660323 0
M  V30 46 H -4.859732 -0.938347 -0.235655 0
M  V30 47 H -5.637996 -1.754796 -2.212321 0
M  V30 48 H -4.269187 -1.037583 -3.024755 0
M  V30 49 H -4.615901 -3.387764 -3.441334 0
M  V30 50 H -4.436761 -3.837153 -1.760434 0
M  V30 51 H -1.411176 -4.563032 -1.662138 0
M  V30 52 H -0.864542 -2.859718 -1.950339 0
M  V30 53 H -2.121449 -3.265054 -0.701146 0
M  V30 54 H -1.193024 -3.088958 -4.115603 0
M  V30 55 H -2.267913 -4.468007 -4.444076 0
M  V30 56 H -2.793526 -2.810718 -4.808829 0
M  V30 57 H 1.329246 -0.538699 2.572260 0
M  V30 58 H 1.947015 -2.159312 2.826052 0
M  V30 59 H 1.237698 -1.770397 1.262070 0
M  V30 END ATOM
M  V30 BEGIN BOND
M  V30 1 1 1 2
M  V30 2 1 2 3
M  V30 3 2 3 4
M  V30 4 1 3 5
M  V30 5 1 5 6
M  V30 6 1 6 7
M  V30 7 2 7 8
M  V30 8 1 8 9
M  V30 9 2 9 10
M  V30 10 1 10 11
M  V30 11 1 11 12
M  V30 12 1 12 13
M  V30 13 2 13 14
M  V30 14 1 14 15
M  V30 15 2 15 16
M  V30 16 1 16 17
M  V30 17 1 16 18
M  V30 18 2 18 19
M  V30 19 1 19 20
M  V30 20 1 20 21
M  V30 21 1 21 22
M  V30 22 1 21 23
M  V30 23 2 23 24
M  V30 24 1 23 25
M  V30 25 1 25 26
M  V30 26 1 26 27
M  V30 27 1 27 28
M  V30 28 1 28 29
M  V30 29 1 28 30
M  V30 30 2 11 31
M  V30 31 1 31 32
M  V30 32 1 32 33
M  V30 33 2 32 5
M  V30 34 1 31 7
M  V30 35 1 19 13
M  V30 36 1 1 34
M  V30 37 1 1 35
M  V30 38 1 1 36
M  V30 39 1 9 37
M  V30 40 1 12 38
M  V30 41 1 14 39
M  V30 42 1 15 40
M  V30 43 1 18 41
M  V30 44 1 21 42
M  V30 45 1 22 43
M  V30 46 1 22 44
M  V30 47 1 22 45
M  V30 48 1 25 46
M  V30 49 1 26 47
M  V30 50 1 26 48
M  V30 51 1 27 49
M  V30 52 1 27 50
M  V30 53 1 29 51
M  V30 54 1 29 52
M  V30 55 1 29 53
M  V30 56 1 30 54
M  V30 57 1 30 55
M  V30 58 1 30 56
M  V30 59 1 33 57
M  V30 60 1 33 58
M  V30 61 1 33 59
M  V30 END BOND
M  V30 END CTAB
M  END
>  <Dataset>  (526) 
ChEMBL_Kinases

>  <Ligand_Instance>  (526) 
nan

>  <PDB_ID>  (526) 
nan

>  <Standardized_SMILES>  (526) 
COC(=O)c1sc2ncnc(Nc3ccc(F)cc3OC(C)C(=O)NCCN(C)C)c2c1C

>  <Name>  (526) 
nan

>  <Pocket>  (526) 
nan

>  <ATP_Site>  (526) 
nan

>  <Peripheral>  (526) 
nan

>  <Num_H_Atoms_ProtBoundConf>  (526) 
nan

>  <Num_Resolved_Atoms>  (526) 
nan

>  <Num_Not_Resolved_Atoms>  (526) 
nan

$$$$
CHEMBL3702273
     RDKit          3D

  0  0  0  0  0  0  0  0  0  0999 V3000
M  V30 BEGIN CTAB
M  V30 COUNTS 48 51 0 0 0
M  V30 BEGIN ATOM
M  V30 1 C -1.910879 -5.419021 -2.164589 0
M  V30 2 O -1.503772 -4.092883 -1.878149 0
M  V30 3 C -1.323464 -3.240658 -2.933072 0
M  V30 4 O -1.549330 -3.763919 -4.050722 0
M  V30 5 C -0.917563 -1.858955 -2.899805 0
M  V30 6 S -0.747056 -0.949346 -4.372200 0
M  V30 7 C -0.233266 0.634241 -3.553366 0
M  V30 8 N 0.106826 1.903736 -4.029017 0
M  V30 9 C 0.439691 2.852539 -3.163612 0
M  V30 10 N 0.429156 2.533378 -1.884020 0
M  V30 11 C 0.111093 1.334238 -1.386152 0
M  V30 12 N 0.197624 1.299510 0.031682 0
M  V30 13 C 1.470527 0.942024 0.611724 0
M  V30 14 C 2.517821 0.671253 -0.266535 0
M  V30 15 C 3.708270 0.328333 0.340578 0
M  V30 16 C 3.887436 0.249059 1.703276 0
M  V30 17 N 2.822160 0.527714 2.445811 0
M  V30 18 C 1.606001 0.874394 1.990140 0
M  V30 19 O 0.590356 1.140196 2.723367 0
M  V30 20 C -0.340808 1.378569 3.604199 0
M  V30 21 C -0.619192 0.145016 4.465810 0
M  V30 22 C 0.568943 -0.336218 5.240366 0
M  V30 23 C 0.168773 -1.510987 6.016680 0
M  V30 24 N -0.137771 -2.440480 6.642744 0
M  V30 25 C -1.950851 -0.103385 5.020531 0
M  V30 26 C -1.523001 -0.860536 3.798449 0
M  V30 27 C -0.247620 0.284194 -2.190191 0
M  V30 28 C -0.597352 -0.984149 -1.878928 0
M  V30 29 C -0.676989 -1.553236 -0.511555 0
M  V30 30 H -1.095338 -5.981939 -2.669634 0
M  V30 31 H -2.194058 -5.901224 -1.222109 0
M  V30 32 H -2.825122 -5.363132 -2.803488 0
M  V30 33 H 0.670647 3.758569 -3.688378 0
M  V30 34 H -0.610757 1.522809 0.655295 0
M  V30 35 H 2.463629 0.710469 -1.336417 0
M  V30 36 H 4.542651 0.111544 -0.306012 0
M  V30 37 H 4.810477 -0.017560 2.197054 0
M  V30 38 H -0.171345 2.268210 4.285543 0
M  V30 39 H -1.345750 1.565285 3.094613 0
M  V30 40 H 1.465075 -0.513477 4.636647 0
M  V30 41 H 0.851198 0.468177 5.976376 0
M  V30 42 H -2.768583 0.638147 4.957836 0
M  V30 43 H -2.014928 -0.731622 5.935573 0
M  V30 44 H -1.200917 -1.902578 3.875719 0
M  V30 45 H -2.061350 -0.550589 2.876657 0
M  V30 46 H -1.574138 -2.225820 -0.411932 0
M  V30 47 H 0.238932 -2.184119 -0.322242 0
M  V30 48 H -0.782063 -0.822984 0.290178 0
M  V30 END ATOM
M  V30 BEGIN BOND
M  V30 1 1 1 2
M  V30 2 1 2 3
M  V30 3 2 3 4
M  V30 4 1 3 5
M  V30 5 1 5 6
M  V30 6 1 6 7
M  V30 7 2 7 8
M  V30 8 1 8 9
M  V30 9 2 9 10
M  V30 10 1 10 11
M  V30 11 1 11 12
M  V30 12 1 12 13
M  V30 13 2 13 14
M  V30 14 1 14 15
M  V30 15 2 15 16
M  V30 16 1 16 17
M  V30 17 2 17 18
M  V30 18 1 18 19
M  V30 19 1 19 20
M  V30 20 1 20 21
M  V30 21 1 21 22
M  V30 22 1 22 23
M  V30 23 3 23 24
M  V30 24 1 21 25
M  V30 25 1 25 26
M  V30 26 2 11 27
M  V30 27 1 27 28
M  V30 28 1 28 29
M  V30 29 2 28 5
M  V30 30 1 27 7
M  V30 31 1 18 13
M  V30 32 1 26 21
M  V30 33 1 1 30
M  V30 34 1 1 31
M  V30 35 1 1 32
M  V30 36 1 9 33
M  V30 37 1 12 34
M  V30 38 1 14 35
M  V30 39 1 15 36
M  V30 40 1 16 37
M  V30 41 1 20 38
M  V30 42 1 20 39
M  V30 43 1 22 40
M  V30 44 1 22 41
M  V30 45 1 25 42
M  V30 46 1 25 43
M  V30 47 1 26 44
M  V30 48 1 26 45
M  V30 49 1 29 46
M  V30 50 1 29 47
M  V30 51 1 29 48
M  V30 END BOND
M  V30 END CTAB
M  END
>  <Dataset>  (527) 
ChEMBL_Kinases

>  <Ligand_Instance>  (527) 
nan

>  <PDB_ID>  (527) 
nan

>  <Standardized_SMILES>  (527) 
COC(=O)c1sc2ncnc(Nc3cccnc3OCC3(CC#N)CC3)c2c1C

>  <Name>  (527) 
nan

>  <Pocket>  (527) 
nan

>  <ATP_Site>  (527) 
nan

>  <Peripheral>  (527) 
nan

>  <Num_H_Atoms_ProtBoundConf>  (527) 
nan

>  <Num_Resolved_Atoms>  (527) 
nan

>  <Num_Not_Resolved_Atoms>  (527) 
nan

$$$$
CHEMBL3702274
     RDKit          3D

  0  0  0  0  0  0  0  0  0  0999 V3000
M  V30 BEGIN CTAB
M  V30 COUNTS 46 49 0 0 0
M  V30 BEGIN ATOM
M  V30 1 C 2.006337 -1.553326 0.391259 0
M  V30 2 C 3.209586 -0.712221 0.160308 0
M  V30 3 C 4.420440 -1.381199 0.032587 0
M  V30 4 C 4.838605 -2.720242 0.073550 0
M  V30 5 N 4.028071 -3.855857 0.300810 0
M  V30 6 O 6.018722 -3.109658 -0.089208 0
M  V30 7 S 5.620696 -0.085110 -0.235358 0
M  V30 8 C 4.452721 1.289172 -0.164216 0
M  V30 9 N 4.574183 2.616521 -0.273330 0
M  V30 10 C 3.523009 3.447918 -0.175398 0
M  V30 11 N 2.369376 2.840660 0.036311 0
M  V30 12 C 2.160281 1.526767 0.157067 0
M  V30 13 N 0.815684 1.189289 0.380877 0
M  V30 14 C 0.079918 0.946216 1.552384 0
M  V30 15 C 0.809005 1.050491 2.718067 0
M  V30 16 C 0.191552 0.831233 3.923966 0
M  V30 17 C -1.144797 0.514549 3.890087 0
M  V30 18 N -1.788482 0.430322 2.733140 0
M  V30 19 C -1.261742 0.628544 1.515410 0
M  V30 20 O -1.787033 0.579317 0.253331 0
M  V30 21 C -3.056493 0.303392 -0.194945 0
M  V30 22 C -3.463540 -1.087410 0.229294 0
M  V30 23 C -2.526840 -2.181749 -0.301123 0
M  V30 24 C -2.996963 -3.493881 0.157581 0
M  V30 25 N -3.366424 -4.526447 0.499200 0
M  V30 26 C -4.927549 -1.415696 0.266435 0
M  V30 27 C -4.113329 -1.249981 1.527186 0
M  V30 28 C 3.213429 0.649938 0.062212 0
M  V30 29 H 2.098074 -2.553172 -0.023258 0
M  V30 30 H 1.755865 -1.629941 1.469447 0
M  V30 31 H 1.177238 -1.066309 -0.206457 0
M  V30 32 H 3.657797 -4.330640 -0.568422 0
M  V30 33 H 3.466620 -4.651425 0.639545 0
M  V30 34 H 3.723845 4.499591 -0.277361 0
M  V30 35 H 0.364358 1.139064 -0.560277 0
M  V30 36 H 1.863791 1.298987 2.767152 0
M  V30 37 H 0.622038 0.873897 4.916100 0
M  V30 38 H -1.764771 0.313217 4.781682 0
M  V30 39 H -3.811658 1.063813 0.099255 0
M  V30 40 H -3.032839 0.298825 -1.326681 0
M  V30 41 H -1.492264 -1.996105 0.020699 0
M  V30 42 H -2.598227 -2.138083 -1.398501 0
M  V30 43 H -5.592146 -0.587010 -0.066969 0
M  V30 44 H -5.184834 -2.435623 -0.067472 0
M  V30 45 H -4.358339 -0.406555 2.192082 0
M  V30 46 H -3.904674 -2.210550 2.069851 0
M  V30 END ATOM
M  V30 BEGIN BOND
M  V30 1 1 1 2
M  V30 2 2 2 3
M  V30 3 1 3 4
M  V30 4 1 4 5
M  V30 5 2 4 6
M  V30 6 1 3 7
M  V30 7 1 7 8
M  V30 8 2 8 9
M  V30 9 1 9 10
M  V30 10 2 10 11
M  V30 11 1 11 12
M  V30 12 1 12 13
M  V30 13 1 13 14
M  V30 14 2 14 15
M  V30 15 1 15 16
M  V30 16 2 16 17
M  V30 17 1 17 18
M  V30 18 2 18 19
M  V30 19 1 19 20
M  V30 20 1 20 21
M  V30 21 1 21 22
M  V30 22 1 22 23
M  V30 23 1 23 24
M  V30 24 3 24 25
M  V30 25 1 22 26
M  V30 26 1 26 27
M  V30 27 2 12 28
M  V30 28 1 28 2
M  V30 29 1 28 8
M  V30 30 1 19 14
M  V30 31 1 27 22
M  V30 32 1 1 29
M  V30 33 1 1 30
M  V30 34 1 1 31
M  V30 35 1 5 32
M  V30 36 1 5 33
M  V30 37 1 10 34
M  V30 38 1 13 35
M  V30 39 1 15 36
M  V30 40 1 16 37
M  V30 41 1 17 38
M  V30 42 1 21 39
M  V30 43 1 21 40
M  V30 44 1 23 41
M  V30 45 1 23 42
M  V30 46 1 26 43
M  V30 47 1 26 44
M  V30 48 1 27 45
M  V30 49 1 27 46
M  V30 END BOND
M  V30 END CTAB
M  END
>  <Dataset>  (528) 
ChEMBL_Kinases

>  <Ligand_Instance>  (528) 
nan

>  <PDB_ID>  (528) 
nan

>  <Standardized_SMILES>  (528) 
Cc1c(C(N)=O)sc2ncnc(Nc3cccnc3OCC3(CC#N)CC3)c12

>  <Name>  (528) 
nan

>  <Pocket>  (528) 
nan

>  <ATP_Site>  (528) 
nan

>  <Peripheral>  (528) 
nan

>  <Num_H_Atoms_ProtBoundConf>  (528) 
nan

>  <Num_Resolved_Atoms>  (528) 
nan

>  <Num_Not_Resolved_Atoms>  (528) 
nan

$$$$
CHEMBL3702275
     RDKit          3D

  0  0  0  0  0  0  0  0  0  0999 V3000
M  V30 BEGIN CTAB
M  V30 COUNTS 44 47 0 0 0
M  V30 BEGIN ATOM
M  V30 1 C 2.517971 -5.583675 0.731199 0
M  V30 2 O 2.355408 -4.376208 0.058429 0
M  V30 3 C 2.974696 -3.852923 -1.021017 0
M  V30 4 O 3.357518 -4.942203 -0.685872 0
M  V30 5 C 2.594236 -2.546635 -1.512172 0
M  V30 6 S 3.407484 -1.854781 -2.898178 0
M  V30 7 C 2.483120 -0.320413 -2.899601 0
M  V30 8 N 2.510701 0.764471 -3.647522 0
M  V30 9 C 1.691145 1.794775 -3.398936 0
M  V30 10 N 0.886783 1.590205 -2.352046 0
M  V30 11 C 0.835002 0.506520 -1.578416 0
M  V30 12 N -0.165438 0.787700 -0.584524 0
M  V30 13 C 0.260664 1.273082 0.694834 0
M  V30 14 C 1.658753 1.360231 0.795083 0
M  V30 15 C 2.193362 1.814296 2.003039 0
M  V30 16 C 1.372729 2.158094 3.042312 0
M  V30 17 N 0.045355 2.054211 2.883676 0
M  V30 18 C -0.570926 1.631234 1.769639 0
M  V30 19 O -1.843380 1.451166 1.384126 0
M  V30 20 C -3.104170 1.566128 1.827590 0
M  V30 21 C -3.554458 0.738398 2.982858 0
M  V30 22 C -2.884931 0.869478 4.296617 0
M  V30 23 C -2.725199 -0.395562 3.451028 0
M  V30 24 F -1.544022 -0.639562 2.815004 0
M  V30 25 F -3.344694 -1.546110 3.916201 0
M  V30 26 C 1.673343 -0.563777 -1.823207 0
M  V30 27 C 1.667597 -1.686329 -1.056141 0
M  V30 28 C 0.813014 -2.037043 0.107021 0
M  V30 29 H 3.479753 -5.698736 1.280548 0
M  V30 30 H 1.752348 -5.557221 1.574484 0
M  V30 31 H 2.235618 -6.498052 0.168319 0
M  V30 32 H 1.803746 2.621438 -4.071806 0
M  V30 33 H -1.205588 0.648049 -0.765259 0
M  V30 34 H 2.406975 1.127368 0.072059 0
M  V30 35 H 3.253417 1.918919 2.188700 0
M  V30 36 H 1.684398 2.519034 4.017510 0
M  V30 37 H -3.876915 1.433031 0.984210 0
M  V30 38 H -3.237993 2.654378 2.189071 0
M  V30 39 H -4.673914 0.579401 3.059817 0
M  V30 40 H -1.992341 1.461988 4.492451 0
M  V30 41 H -3.477859 0.695296 5.239590 0
M  V30 42 H 0.479918 -3.110988 -0.014356 0
M  V30 43 H 1.357862 -1.995567 1.059474 0
M  V30 44 H -0.153204 -1.483929 0.101753 0
M  V30 END ATOM
M  V30 BEGIN BOND
M  V30 1 1 1 2
M  V30 2 1 2 3
M  V30 3 2 3 4
M  V30 4 1 3 5
M  V30 5 1 5 6
M  V30 6 1 6 7
M  V30 7 2 7 8
M  V30 8 1 8 9
M  V30 9 2 9 10
M  V30 10 1 10 11
M  V30 11 1 11 12
M  V30 12 1 12 13
M  V30 13 2 13 14
M  V30 14 1 14 15
M  V30 15 2 15 16
M  V30 16 1 16 17
M  V30 17 2 17 18
M  V30 18 1 18 19
M  V30 19 1 19 20
M  V30 20 1 20 21
M  V30 21 1 21 22
M  V30 22 1 22 23
M  V30 23 1 23 24
M  V30 24 1 23 25
M  V30 25 2 11 26
M  V30 26 1 26 27
M  V30 27 1 27 28
M  V30 28 2 27 5
M  V30 29 1 26 7
M  V30 30 1 18 13
M  V30 31 1 23 21
M  V30 32 1 1 29
M  V30 33 1 1 30
M  V30 34 1 1 31
M  V30 35 1 9 32
M  V30 36 1 12 33
M  V30 37 1 14 34
M  V30 38 1 15 35
M  V30 39 1 16 36
M  V30 40 1 20 37
M  V30 41 1 20 38
M  V30 42 1 21 39
M  V30 43 1 22 40
M  V30 44 1 22 41
M  V30 45 1 28 42
M  V30 46 1 28 43
M  V30 47 1 28 44
M  V30 END BOND
M  V30 END CTAB
M  END
>  <Dataset>  (529) 
ChEMBL_Kinases

>  <Ligand_Instance>  (529) 
nan

>  <PDB_ID>  (529) 
nan

>  <Standardized_SMILES>  (529) 
COC(=O)c1sc2ncnc(Nc3cccnc3OCC3CC3(F)F)c2c1C

>  <Name>  (529) 
nan

>  <Pocket>  (529) 
nan

>  <ATP_Site>  (529) 
nan

>  <Peripheral>  (529) 
nan

>  <Num_H_Atoms_ProtBoundConf>  (529) 
nan

>  <Num_Resolved_Atoms>  (529) 
nan

>  <Num_Not_Resolved_Atoms>  (529) 
nan

$$$$
CHEMBL3702276
     RDKit          3D

  0  0  0  0  0  0  0  0  0  0999 V3000
M  V30 BEGIN CTAB
M  V30 COUNTS 42 45 0 0 0
M  V30 BEGIN ATOM
M  V30 1 C 2.506949 -0.628138 1.863879 0
M  V30 2 C 2.438829 -1.105040 0.434880 0
M  V30 3 C 3.070003 -2.257917 0.150958 0
M  V30 4 C 3.830101 -3.224232 1.020381 0
M  V30 5 N 4.375061 -4.391320 0.441293 0
M  V30 6 O 4.158855 -3.318540 2.222046 0
M  V30 7 S 2.858404 -2.498859 -1.530385 0
M  V30 8 C 1.913459 -1.019169 -1.796224 0
M  V30 9 N 1.380759 -0.530650 -2.946833 0
M  V30 10 C 0.694929 0.621398 -2.934501 0
M  V30 11 N 0.616563 1.166794 -1.742550 0
M  V30 12 C 1.134361 0.700989 -0.591699 0
M  V30 13 N 0.787415 1.570925 0.464590 0
M  V30 14 C 0.405770 1.664772 1.828266 0
M  V30 15 C 0.988071 2.292574 2.926849 0
M  V30 16 C 0.355870 2.170204 4.155639 0
M  V30 17 C -0.810989 1.452009 4.290599 0
M  V30 18 N -1.360988 0.852873 3.223125 0
M  V30 19 C -0.787842 0.935026 1.983652 0
M  V30 20 O -1.415709 0.292265 0.943128 0
M  V30 21 C -2.605967 -0.421970 1.163055 0
M  V30 22 C -3.019182 -0.995379 -0.184187 0
M  V30 23 C -1.961758 -1.924419 -0.763381 0
M  V30 24 C -3.315669 -2.418794 -0.371776 0
M  V30 25 F -3.388699 -3.262799 0.724670 0
M  V30 26 F -4.186259 -2.776145 -1.398778 0
M  V30 27 C 1.845982 -0.481627 -0.587749 0
M  V30 28 H 3.227012 -1.217026 2.470535 0
M  V30 29 H 2.874244 0.401943 1.913496 0
M  V30 30 H 1.526011 -0.842523 2.309859 0
M  V30 31 H 3.931933 -5.355187 0.522471 0
M  V30 32 H 5.282339 -4.250286 -0.098329 0
M  V30 33 H 0.301062 0.960395 -3.860087 0
M  V30 34 H 0.766684 2.628715 0.333623 0
M  V30 35 H 1.885136 2.798860 2.618652 0
M  V30 36 H 0.901055 2.696925 4.925792 0
M  V30 37 H -1.233397 1.410022 5.285548 0
M  V30 38 H -3.413119 0.154053 1.631597 0
M  V30 39 H -2.441702 -1.334840 1.807490 0
M  V30 40 H -3.449093 -0.227865 -0.849478 0
M  V30 41 H -1.121478 -2.267504 -0.128354 0
M  V30 42 H -1.680114 -1.813060 -1.840045 0
M  V30 END ATOM
M  V30 BEGIN BOND
M  V30 1 1 1 2
M  V30 2 2 2 3
M  V30 3 1 3 4
M  V30 4 1 4 5
M  V30 5 2 4 6
M  V30 6 1 3 7
M  V30 7 1 7 8
M  V30 8 2 8 9
M  V30 9 1 9 10
M  V30 10 2 10 11
M  V30 11 1 11 12
M  V30 12 1 12 13
M  V30 13 1 13 14
M  V30 14 2 14 15
M  V30 15 1 15 16
M  V30 16 2 16 17
M  V30 17 1 17 18
M  V30 18 2 18 19
M  V30 19 1 19 20
M  V30 20 1 20 21
M  V30 21 1 21 22
M  V30 22 1 22 23
M  V30 23 1 23 24
M  V30 24 1 24 25
M  V30 25 1 24 26
M  V30 26 2 12 27
M  V30 27 1 27 2
M  V30 28 1 27 8
M  V30 29 1 19 14
M  V30 30 1 24 22
M  V30 31 1 1 28
M  V30 32 1 1 29
M  V30 33 1 1 30
M  V30 34 1 5 31
M  V30 35 1 5 32
M  V30 36 1 10 33
M  V30 37 1 13 34
M  V30 38 1 15 35
M  V30 39 1 16 36
M  V30 40 1 17 37
M  V30 41 1 21 38
M  V30 42 1 21 39
M  V30 43 1 22 40
M  V30 44 1 23 41
M  V30 45 1 23 42
M  V30 END BOND
M  V30 END CTAB
M  END
>  <Dataset>  (530) 
ChEMBL_Kinases

>  <Ligand_Instance>  (530) 
nan

>  <PDB_ID>  (530) 
nan

>  <Standardized_SMILES>  (530) 
Cc1c(C(N)=O)sc2ncnc(Nc3cccnc3OCC3CC3(F)F)c12

>  <Name>  (530) 
nan

>  <Pocket>  (530) 
nan

>  <ATP_Site>  (530) 
nan

>  <Peripheral>  (530) 
nan

>  <Num_H_Atoms_ProtBoundConf>  (530) 
nan

>  <Num_Resolved_Atoms>  (530) 
nan

>  <Num_Not_Resolved_Atoms>  (530) 
nan

$$$$
CHEMBL3702277
     RDKit          3D

  0  0  0  0  0  0  0  0  0  0999 V3000
M  V30 BEGIN CTAB
M  V30 COUNTS 43 45 0 0 0
M  V30 BEGIN ATOM
M  V30 1 C 3.069812 -5.840148 2.212830 0
M  V30 2 O 2.818552 -4.587521 1.574047 0
M  V30 3 C 3.458994 -4.192188 0.431056 0
M  V30 4 O 4.301870 -4.957780 -0.077894 0
M  V30 5 C 3.199816 -2.934453 -0.203300 0
M  V30 6 S 4.027361 -2.422299 -1.678188 0
M  V30 7 C 3.255228 -0.858473 -1.883496 0
M  V30 8 N 3.332601 0.133023 -2.743056 0
M  V30 9 C 2.606084 1.258302 -2.659128 0
M  V30 10 N 1.774927 1.303301 -1.612587 0
M  V30 11 C 1.636329 0.341434 -0.696280 0
M  V30 12 N 0.669625 0.730165 0.265557 0
M  V30 13 C -0.705041 0.599945 -0.081368 0
M  V30 14 C -1.020570 0.097394 -1.324708 0
M  V30 15 C -2.363868 -0.034518 -1.692081 0
M  V30 16 C -3.295241 0.367746 -0.735563 0
M  V30 17 N -2.954846 0.854642 0.470240 0
M  V30 18 C -1.662979 0.992919 0.851198 0
M  V30 19 O -1.226233 1.482384 2.062526 0
M  V30 20 C -2.111178 1.918185 3.078203 0
M  V30 21 C -1.973296 1.151566 4.355335 0
M  V30 22 C -2.004395 3.386732 3.339633 0
M  V30 23 C 2.373498 -0.808987 -0.773772 0
M  V30 24 C 2.329137 -1.857004 0.096469 0
M  V30 25 C 1.535176 -2.083061 1.319866 0
M  V30 26 H 2.289093 -6.543653 1.800619 0
M  V30 27 H 4.053959 -6.267533 1.947942 0
M  V30 28 H 2.869918 -5.734983 3.279578 0
M  V30 29 H 2.770423 1.976391 -3.421309 0
M  V30 30 H 0.988112 1.095710 1.187038 0
M  V30 31 H -0.272007 -0.201793 -2.036110 0
M  V30 32 H -2.695947 -0.420632 -2.650177 0
M  V30 33 H -4.324654 0.260357 -1.029529 0
M  V30 34 H -3.139618 1.749391 2.658605 0
M  V30 35 H -1.258920 0.304153 4.281691 0
M  V30 36 H -1.591579 1.853828 5.138108 0
M  V30 37 H -2.970447 0.765392 4.660864 0
M  V30 38 H -2.862877 3.965965 2.930945 0
M  V30 39 H -1.910275 3.546470 4.432115 0
M  V30 40 H -1.037794 3.741652 2.900131 0
M  V30 41 H 2.199189 -2.108175 2.210305 0
M  V30 42 H 1.041860 -3.086584 1.312949 0
M  V30 43 H 0.755168 -1.316643 1.389487 0
M  V30 END ATOM
M  V30 BEGIN BOND
M  V30 1 1 1 2
M  V30 2 1 2 3
M  V30 3 2 3 4
M  V30 4 1 3 5
M  V30 5 1 5 6
M  V30 6 1 6 7
M  V30 7 2 7 8
M  V30 8 1 8 9
M  V30 9 2 9 10
M  V30 10 1 10 11
M  V30 11 1 11 12
M  V30 12 1 12 13
M  V30 13 2 13 14
M  V30 14 1 14 15
M  V30 15 2 15 16
M  V30 16 1 16 17
M  V30 17 2 17 18
M  V30 18 1 18 19
M  V30 19 1 19 20
M  V30 20 1 20 21
M  V30 21 1 20 22
M  V30 22 2 11 23
M  V30 23 1 23 24
M  V30 24 1 24 25
M  V30 25 2 24 5
M  V30 26 1 23 7
M  V30 27 1 18 13
M  V30 28 1 1 26
M  V30 29 1 1 27
M  V30 30 1 1 28
M  V30 31 1 9 29
M  V30 32 1 12 30
M  V30 33 1 14 31
M  V30 34 1 15 32
M  V30 35 1 16 33
M  V30 36 1 20 34
M  V30 37 1 21 35
M  V30 38 1 21 36
M  V30 39 1 21 37
M  V30 40 1 22 38
M  V30 41 1 22 39
M  V30 42 1 22 40
M  V30 43 1 25 41
M  V30 44 1 25 42
M  V30 45 1 25 43
M  V30 END BOND
M  V30 END CTAB
M  END
>  <Dataset>  (531) 
ChEMBL_Kinases

>  <Ligand_Instance>  (531) 
nan

>  <PDB_ID>  (531) 
nan

>  <Standardized_SMILES>  (531) 
COC(=O)c1sc2ncnc(Nc3cccnc3OC(C)C)c2c1C

>  <Name>  (531) 
nan

>  <Pocket>  (531) 
nan

>  <ATP_Site>  (531) 
nan

>  <Peripheral>  (531) 
nan

>  <Num_H_Atoms_ProtBoundConf>  (531) 
nan

>  <Num_Resolved_Atoms>  (531) 
nan

>  <Num_Not_Resolved_Atoms>  (531) 
nan

$$$$
CHEMBL3702269
     RDKit          3D

  0  0  0  0  0  0  0  0  0  0999 V3000
M  V30 BEGIN CTAB
M  V30 COUNTS 49 51 0 0 0
M  V30 BEGIN ATOM
M  V30 1 C 0.498401 0.725597 7.008079 0
M  V30 2 C 1.264108 1.275309 5.823778 0
M  V30 3 N 1.033778 0.429907 4.668192 0
M  V30 4 C 1.683196 0.773680 3.451661 0
M  V30 5 O 2.435479 1.781579 3.382169 0
M  V30 6 C 1.383459 -0.159571 2.321149 0
M  V30 7 C 1.778923 -1.561109 2.837760 0
M  V30 8 O 2.015056 0.105150 1.173277 0
M  V30 9 C 1.933148 0.313751 -0.116332 0
M  V30 10 C 3.250886 0.521078 -0.563343 0
M  V30 11 C 3.547412 0.775094 -1.913540 0
M  V30 12 F 4.769567 0.987604 -2.454263 0
M  V30 13 C 2.464678 0.814194 -2.803061 0
M  V30 14 C 1.176588 0.615235 -2.382849 0
M  V30 15 C 0.955431 0.373901 -1.063679 0
M  V30 16 N -0.342541 0.171134 -0.577322 0
M  V30 17 C -1.407155 0.190944 -1.521189 0
M  V30 18 N -1.577835 1.369560 -2.122245 0
M  V30 19 C -2.508706 1.617768 -3.033557 0
M  V30 20 N -3.302503 0.599810 -3.339803 0
M  V30 21 C -3.209358 -0.647913 -2.779889 0
M  V30 22 S -4.094381 -2.110473 -2.969303 0
M  V30 23 C -3.113170 -3.037386 -1.741297 0
M  V30 24 C -3.428498 -4.445146 -1.440467 0
M  V30 25 N -2.795743 -5.251705 -0.504135 0
M  V30 26 O -4.344220 -5.031790 -2.050144 0
M  V30 27 C -2.160898 -2.120270 -1.276724 0
M  V30 28 C -1.192861 -2.611822 -0.246080 0
M  V30 29 C -2.239618 -0.897585 -1.833421 0
M  V30 30 H 1.203109 0.451874 7.840196 0
M  V30 31 H -0.032069 -0.209904 6.759185 0
M  V30 32 H -0.233933 1.415690 7.429047 0
M  V30 33 H 0.870102 2.304013 5.653434 0
M  V30 34 H 2.346823 1.296962 6.101455 0
M  V30 35 H 0.396605 -0.409908 4.761789 0
M  V30 36 H 0.285748 -0.232678 2.206417 0
M  V30 37 H 2.750184 -1.530023 3.325468 0
M  V30 38 H 1.724241 -2.223110 1.939742 0
M  V30 39 H 0.987301 -1.918599 3.523829 0
M  V30 40 H 4.212400 0.528289 -0.021230 0
M  V30 41 H 2.655173 1.008943 -3.852076 0
M  V30 42 H 0.415519 0.659184 -3.135993 0
M  V30 43 H -0.907955 -0.004223 0.267182 0
M  V30 44 H -2.783986 2.487361 -3.608449 0
M  V30 45 H -2.841899 -5.019955 0.513209 0
M  V30 46 H -2.219836 -6.103434 -0.421048 0
M  V30 47 H -1.508053 -2.304597 0.771455 0
M  V30 48 H -1.036835 -3.685349 -0.288436 0
M  V30 49 H -0.162358 -2.184513 -0.452997 0
M  V30 END ATOM
M  V30 BEGIN BOND
M  V30 1 1 1 2
M  V30 2 1 2 3
M  V30 3 1 3 4
M  V30 4 2 4 5
M  V30 5 1 4 6
M  V30 6 1 6 7
M  V30 7 1 6 8
M  V30 8 1 8 9
M  V30 9 2 9 10
M  V30 10 1 10 11
M  V30 11 1 11 12
M  V30 12 2 11 13
M  V30 13 1 13 14
M  V30 14 2 14 15
M  V30 15 1 15 16
M  V30 16 1 16 17
M  V30 17 2 17 18
M  V30 18 1 18 19
M  V30 19 2 19 20
M  V30 20 1 20 21
M  V30 21 1 21 22
M  V30 22 1 22 23
M  V30 23 1 23 24
M  V30 24 1 24 25
M  V30 25 2 24 26
M  V30 26 2 23 27
M  V30 27 1 27 28
M  V30 28 1 27 29
M  V30 29 1 15 9
M  V30 30 1 29 17
M  V30 31 2 29 21
M  V30 32 1 1 30
M  V30 33 1 1 31
M  V30 34 1 1 32
M  V30 35 1 2 33
M  V30 36 1 2 34
M  V30 37 1 3 35
M  V30 38 1 6 36
M  V30 39 1 7 37
M  V30 40 1 7 38
M  V30 41 1 7 39
M  V30 42 1 10 40
M  V30 43 1 13 41
M  V30 44 1 14 42
M  V30 45 1 16 43
M  V30 46 1 19 44
M  V30 47 1 25 45
M  V30 48 1 25 46
M  V30 49 1 28 47
M  V30 50 1 28 48
M  V30 51 1 28 49
M  V30 END BOND
M  V30 END CTAB
M  END
>  <Dataset>  (532) 
ChEMBL_Kinases

>  <Ligand_Instance>  (532) 
nan

>  <PDB_ID>  (532) 
nan

>  <Standardized_SMILES>  (532) 
CCNC(=O)C(C)Oc1cc(F)ccc1Nc1ncnc2sc(C(N)=O)c(C)c12

>  <Name>  (532) 
nan

>  <Pocket>  (532) 
nan

>  <ATP_Site>  (532) 
nan

>  <Peripheral>  (532) 
nan

>  <Num_H_Atoms_ProtBoundConf>  (532) 
nan

>  <Num_Resolved_Atoms>  (532) 
nan

>  <Num_Not_Resolved_Atoms>  (532) 
nan

$$$$
CHEMBL5073237
     RDKit          3D

  0  0  0  0  0  0  0  0  0  0999 V3000
M  V30 BEGIN CTAB
M  V30 COUNTS 63 67 0 0 0
M  V30 BEGIN ATOM
M  V30 1 O 2.479813 2.963097 3.441192 0
M  V30 2 C 1.408682 2.351246 3.333598 0
M  V30 3 N 0.634753 2.202545 4.515009 0
M  V30 4 C 1.048263 2.720811 5.768024 0
M  V30 5 C 2.337833 2.244814 6.320238 0
M  V30 6 C 2.493787 0.800660 6.599069 0
M  V30 7 C 2.344717 -0.039027 5.392262 0
M  V30 8 C 1.227577 -0.662497 4.880156 0
M  V30 9 C 1.247200 -1.412830 3.740917 0
M  V30 10 C 2.402332 -1.600652 3.014829 0
M  V30 11 C 3.562390 -1.011530 3.458722 0
M  V30 12 C 3.490077 -0.264065 4.613793 0
M  V30 13 C 1.032530 1.839240 2.020495 0
M  V30 14 C 1.910956 2.078477 0.983504 0
M  V30 15 C 1.634393 1.625069 -0.311983 0
M  V30 16 C 0.475667 0.927010 -0.584985 0
M  V30 17 C -0.385891 0.701407 0.470803 0
M  V30 18 C -0.130271 1.141986 1.760461 0
M  V30 19 C -1.671777 -0.011916 0.431049 0
M  V30 20 O -2.433555 0.117348 1.404212 0
M  V30 21 C -2.128828 -0.874398 -0.682933 0
M  V30 22 C -3.432181 -1.276155 -0.513363 0
M  V30 23 C -4.086599 -2.086859 -1.418676 0
M  V30 24 C -3.361682 -2.484321 -2.522845 0
M  V30 25 N -3.955301 -3.317966 -3.503323 0
M  V30 26 C -3.448081 -3.859085 -4.717323 0
M  V30 27 C -3.348617 -5.205567 -5.001433 0
M  V30 28 C -2.846510 -5.673879 -6.201633 0
M  V30 29 C -2.441700 -4.706018 -7.119493 0
M  V30 30 F -1.944441 -5.154630 -8.307531 0
M  V30 31 C -2.527057 -3.351807 -6.868346 0
M  V30 32 C -3.036346 -2.932594 -5.653071 0
M  V30 33 F -3.063088 -1.569945 -5.540950 0
M  V30 34 C -2.049500 -2.089924 -2.709900 0
M  V30 35 C -1.409503 -1.277520 -1.792750 0
M  V30 36 C -0.003281 -0.947917 -2.144466 0
M  V30 37 C 0.321314 0.511628 -2.003911 0
M  V30 38 H -0.288164 1.685374 4.401153 0
M  V30 39 H 0.240686 2.500780 6.530749 0
M  V30 40 H 1.074610 3.833843 5.720934 0
M  V30 41 H 2.589309 2.810591 7.263052 0
M  V30 42 H 3.185733 2.534079 5.624985 0
M  V30 43 H 3.539020 0.651036 6.973724 0
M  V30 44 H 1.824519 0.425854 7.410132 0
M  V30 45 H 0.332462 -0.493101 5.478834 0
M  V30 46 H 0.279354 -1.842980 3.463256 0
M  V30 47 H 2.391246 -2.189491 2.130973 0
M  V30 48 H 4.477865 -1.127651 2.932688 0
M  V30 49 H 4.430686 0.189400 4.937175 0
M  V30 50 H 2.846089 2.613054 1.080273 0
M  V30 51 H 2.289247 1.789599 -1.144400 0
M  V30 52 H -0.813564 0.957132 2.572330 0
M  V30 53 H -3.976187 -0.947242 0.365016 0
M  V30 54 H -5.091653 -2.424124 -1.332607 0
M  V30 55 H -4.922257 -3.674090 -3.460588 0
M  V30 56 H -3.682412 -5.902539 -4.240797 0
M  V30 57 H -2.778102 -6.736424 -6.402045 0
M  V30 58 H -2.184795 -2.704540 -7.650721 0
M  V30 59 H -1.421054 -2.364079 -3.552173 0
M  V30 60 H 0.218755 -1.273729 -3.178207 0
M  V30 61 H 0.644259 -1.526834 -1.464024 0
M  V30 62 H -0.463470 1.144118 -2.462352 0
M  V30 63 H 1.254281 0.725155 -2.526482 0
M  V30 END ATOM
M  V30 BEGIN BOND
M  V30 1 2 1 2
M  V30 2 1 2 3
M  V30 3 1 3 4
M  V30 4 1 4 5
M  V30 5 1 5 6
M  V30 6 1 6 7
M  V30 7 2 7 8
M  V30 8 1 8 9
M  V30 9 2 9 10
M  V30 10 1 10 11
M  V30 11 2 11 12
M  V30 12 1 2 13
M  V30 13 2 13 14
M  V30 14 1 14 15
M  V30 15 2 15 16
M  V30 16 1 16 17
M  V30 17 2 17 18
M  V30 18 1 17 19
M  V30 19 2 19 20
M  V30 20 1 19 21
M  V30 21 2 21 22
M  V30 22 1 22 23
M  V30 23 2 23 24
M  V30 24 1 24 25
M  V30 25 1 25 26
M  V30 26 2 26 27
M  V30 27 1 27 28
M  V30 28 2 28 29
M  V30 29 1 29 30
M  V30 30 1 29 31
M  V30 31 2 31 32
M  V30 32 1 32 33
M  V30 33 1 24 34
M  V30 34 2 34 35
M  V30 35 1 35 36
M  V30 36 1 36 37
M  V30 37 1 12 7
M  V30 38 1 18 13
M  V30 39 1 35 21
M  V30 40 1 37 16
M  V30 41 1 32 26
M  V30 42 1 3 38
M  V30 43 1 4 39
M  V30 44 1 4 40
M  V30 45 1 5 41
M  V30 46 1 5 42
M  V30 47 1 6 43
M  V30 48 1 6 44
M  V30 49 1 8 45
M  V30 50 1 9 46
M  V30 51 1 10 47
M  V30 52 1 11 48
M  V30 53 1 12 49
M  V30 54 1 14 50
M  V30 55 1 15 51
M  V30 56 1 18 52
M  V30 57 1 22 53
M  V30 58 1 23 54
M  V30 59 1 25 55
M  V30 60 1 27 56
M  V30 61 1 28 57
M  V30 62 1 31 58
M  V30 63 1 34 59
M  V30 64 1 36 60
M  V30 65 1 36 61
M  V30 66 1 37 62
M  V30 67 1 37 63
M  V30 END BOND
M  V30 END CTAB
M  END
>  <Dataset>  (533) 
ChEMBL_Kinases

>  <Ligand_Instance>  (533) 
nan

>  <PDB_ID>  (533) 
nan

>  <Standardized_SMILES>  (533) 
O=C(NCCCc1ccccc1)c1ccc2c(c1)C(=O)c1ccc(Nc3ccc(F)cc3F)cc1CC2

>  <Name>  (533) 
nan

>  <Pocket>  (533) 
nan

>  <ATP_Site>  (533) 
nan

>  <Peripheral>  (533) 
nan

>  <Num_H_Atoms_ProtBoundConf>  (533) 
nan

>  <Num_Resolved_Atoms>  (533) 
nan

>  <Num_Not_Resolved_Atoms>  (533) 
nan

$$$$
CHEMBL3702264
     RDKit          3D

  0  0  0  0  0  0  0  0  0  0999 V3000
M  V30 BEGIN CTAB
M  V30 COUNTS 38 40 0 0 0
M  V30 BEGIN ATOM
M  V30 1 C -0.369352 -2.705033 0.775380 0
M  V30 2 C 0.855311 -2.319091 0.030786 0
M  V30 3 C 1.942017 -3.133812 0.210818 0
M  V30 4 C 2.145137 -4.335840 0.988599 0
M  V30 5 N 3.393456 -5.005233 0.964296 0
M  V30 6 O 1.288420 -4.864926 1.711476 0
M  V30 7 S 3.240948 -2.429926 -0.774430 0
M  V30 8 C 2.220993 -1.037015 -1.393825 0
M  V30 9 N 2.555196 -0.033840 -2.250007 0
M  V30 10 C 1.623125 0.869985 -2.568881 0
M  V30 11 N 0.423958 0.703780 -2.007641 0
M  V30 12 C 0.103845 -0.279589 -1.170907 0
M  V30 13 N -1.256901 -0.186762 -0.782637 0
M  V30 14 C -1.516668 1.014078 -0.015999 0
M  V30 15 C -2.422379 1.966458 -0.463643 0
M  V30 16 C -2.715351 3.141318 0.233824 0
M  V30 17 C -2.028276 3.288353 1.418290 0
M  V30 18 N -1.148999 2.376580 1.864741 0
M  V30 19 C -0.869342 1.238530 1.182510 0
M  V30 20 O 0.048007 0.356089 1.711705 0
M  V30 21 C 0.737397 0.514371 2.915094 0
M  V30 22 C -0.183271 0.601320 4.104954 0
M  V30 23 F -0.895766 -0.588607 4.130116 0
M  V30 24 F 0.554295 0.666323 5.276797 0
M  V30 25 C 0.998052 -1.245067 -0.791614 0
M  V30 26 H -1.159373 -1.955834 0.782972 0
M  V30 27 H -0.784387 -3.611319 0.245743 0
M  V30 28 H -0.116552 -3.044250 1.812493 0
M  V30 29 H 4.389630 -5.199897 1.183565 0
M  V30 30 H 3.201736 -5.823584 0.319705 0
M  V30 31 H 1.989920 1.611534 -3.245509 0
M  V30 32 H -2.186694 -0.609211 -0.784803 0
M  V30 33 H -2.936764 1.782302 -1.422129 0
M  V30 34 H -3.423123 3.871873 -0.128625 0
M  V30 35 H -2.179989 4.175906 2.050897 0
M  V30 36 H 1.459809 1.359680 2.892363 0
M  V30 37 H 1.375550 -0.393210 3.058783 0
M  V30 38 H -0.878896 1.442436 4.016924 0
M  V30 END ATOM
M  V30 BEGIN BOND
M  V30 1 1 1 2
M  V30 2 2 2 3
M  V30 3 1 3 4
M  V30 4 1 4 5
M  V30 5 2 4 6
M  V30 6 1 3 7
M  V30 7 1 7 8
M  V30 8 2 8 9
M  V30 9 1 9 10
M  V30 10 2 10 11
M  V30 11 1 11 12
M  V30 12 1 12 13
M  V30 13 1 13 14
M  V30 14 2 14 15
M  V30 15 1 15 16
M  V30 16 2 16 17
M  V30 17 1 17 18
M  V30 18 2 18 19
M  V30 19 1 19 20
M  V30 20 1 20 21
M  V30 21 1 21 22
M  V30 22 1 22 23
M  V30 23 1 22 24
M  V30 24 2 12 25
M  V30 25 1 25 2
M  V30 26 1 25 8
M  V30 27 1 19 14
M  V30 28 1 1 26
M  V30 29 1 1 27
M  V30 30 1 1 28
M  V30 31 1 5 29
M  V30 32 1 5 30
M  V30 33 1 10 31
M  V30 34 1 13 32
M  V30 35 1 15 33
M  V30 36 1 16 34
M  V30 37 1 17 35
M  V30 38 1 21 36
M  V30 39 1 21 37
M  V30 40 1 22 38
M  V30 END BOND
M  V30 END CTAB
M  END
>  <Dataset>  (534) 
ChEMBL_Kinases

>  <Ligand_Instance>  (534) 
nan

>  <PDB_ID>  (534) 
nan

>  <Standardized_SMILES>  (534) 
Cc1c(C(N)=O)sc2ncnc(Nc3cccnc3OCC(F)F)c12

>  <Name>  (534) 
nan

>  <Pocket>  (534) 
nan

>  <ATP_Site>  (534) 
nan

>  <Peripheral>  (534) 
nan

>  <Num_H_Atoms_ProtBoundConf>  (534) 
nan

>  <Num_Resolved_Atoms>  (534) 
nan

>  <Num_Not_Resolved_Atoms>  (534) 
nan

$$$$
CHEMBL379342
     RDKit          3D

  0  0  0  0  0  0  0  0  0  0999 V3000
M  V30 BEGIN CTAB
M  V30 COUNTS 73 79 0 0 0
M  V30 BEGIN ATOM
M  V30 1 N 4.462416 -5.240970 2.555520 0
M  V30 2 C 4.657995 -4.649563 1.585134 0
M  V30 3 C 4.904092 -3.897354 0.368114 0
M  V30 4 N 5.945711 -2.898593 0.553505 0
M  V30 5 C 7.237539 -3.193835 0.348293 0
M  V30 6 O 7.824874 -4.387529 -0.038849 0
M  V30 7 N 7.914062 -2.057164 0.596887 0
M  V30 8 C 7.063308 -1.082770 0.947463 0
M  V30 9 C 7.166925 0.242321 1.296486 0
M  V30 10 C 6.062766 0.988653 1.601714 0
M  V30 11 C 4.772291 0.505841 1.591193 0
M  V30 12 N 3.657013 1.320685 1.919515 0
M  V30 13 C 2.229939 0.957866 1.907347 0 CFG=2
M  V30 14 C 1.794312 0.725077 0.510378 0
M  V30 15 O 0.450803 0.290111 0.411052 0
M  V30 16 C -0.206229 -0.017935 -0.754037 0
M  V30 17 C 0.245219 0.018596 -2.065288 0
M  V30 18 N -0.587988 -0.335252 -3.061527 0
M  V30 19 C -1.851129 -0.724875 -2.816091 0
M  V30 20 C -2.393176 -0.793368 -1.538161 0
M  V30 21 C -3.754937 -1.227896 -1.254196 0
M  V30 22 C -4.521883 -0.766575 -0.204443 0
M  V30 23 C -5.807238 -1.196440 0.064343 0
M  V30 24 C -6.368328 -2.146351 -0.763602 0
M  V30 25 N -7.542548 -2.797361 -0.834435 0
M  V30 26 C -7.558322 -3.650501 -1.881499 0
M  V30 27 O -8.552477 -4.512837 -2.328306 0
M  V30 28 N -6.362284 -3.568467 -2.527899 0
M  V30 29 C -5.894980 -4.285328 -3.703486 0
M  V30 30 C -5.224341 -5.522839 -3.308943 0
M  V30 31 N -4.696321 -6.510558 -3.010821 0
M  V30 32 C -5.639860 -2.650973 -1.844536 0
M  V30 33 C -4.353289 -2.188905 -2.073772 0
M  V30 34 C -1.520569 -0.423551 -0.512296 0
M  V30 35 C 1.539067 2.054320 2.652151 0
M  V30 36 C 0.090596 1.988221 2.778373 0
M  V30 37 C -0.553854 1.409966 3.867092 0
M  V30 38 N -1.909847 1.456731 3.703012 0
M  V30 39 C -2.175527 2.051089 2.535482 0
M  V30 40 C -3.375518 2.360948 1.900637 0
M  V30 41 C -3.395884 3.011386 0.674212 0
M  V30 42 C -2.156816 3.329934 0.126970 0
M  V30 43 C -0.973814 3.021484 0.755770 0
M  V30 44 C -0.958588 2.374950 1.972917 0
M  V30 45 C 4.689778 -0.834284 1.237513 0
M  V30 46 C 5.788114 -1.598418 0.928148 0
M  V30 47 H 3.943680 -3.337960 0.146064 0
M  V30 48 H 5.069948 -4.519953 -0.511562 0
M  V30 49 H 8.817529 -4.536245 0.091591 0
M  V30 50 H 8.142108 0.702150 1.329312 0
M  V30 51 H 6.227669 2.029523 1.867493 0
M  V30 52 H 3.926839 2.297895 2.199361 0
M  V30 53 H 2.188878 -0.011038 2.476337 0
M  V30 54 H 2.484820 0.096719 -0.039694 0
M  V30 55 H 1.823725 1.750506 0.006389 0
M  V30 56 H 1.268241 0.343546 -2.131673 0
M  V30 57 H -2.464259 -0.995657 -3.651076 0
M  V30 58 H -4.066496 -0.033445 0.424200 0
M  V30 59 H -6.387198 -0.821497 0.891189 0
M  V30 60 H -8.376773 -5.499843 -2.165189 0
M  V30 61 H -6.750028 -4.544995 -4.373505 0
M  V30 62 H -5.169300 -3.636842 -4.235058 0
M  V30 63 H -3.783634 -2.563348 -2.893853 0
M  V30 64 H -1.985151 -0.489004 0.486612 0
M  V30 65 H 2.013231 2.119960 3.663663 0
M  V30 66 H 1.869719 3.019821 2.151315 0
M  V30 67 H -0.101652 0.963518 4.763009 0
M  V30 68 H -2.623053 1.089327 4.377444 0
M  V30 69 H -4.302500 2.086023 2.376559 0
M  V30 70 H -4.310813 3.259173 0.171505 0
M  V30 71 H -2.138515 3.845729 -0.843179 0
M  V30 72 H -0.002209 3.276894 0.315646 0
M  V30 73 H 3.764855 -1.344272 1.203193 0
M  V30 END ATOM
M  V30 BEGIN BOND
M  V30 1 3 1 2
M  V30 2 1 2 3
M  V30 3 1 3 4
M  V30 4 1 4 5
M  V30 5 1 5 6
M  V30 6 2 5 7
M  V30 7 1 7 8
M  V30 8 2 8 9
M  V30 9 1 9 10
M  V30 10 2 10 11
M  V30 11 1 11 12
M  V30 12 1 12 13
M  V30 13 1 13 14
M  V30 14 1 14 15
M  V30 15 1 15 16
M  V30 16 2 16 17
M  V30 17 1 17 18
M  V30 18 2 18 19
M  V30 19 1 19 20
M  V30 20 1 20 21
M  V30 21 2 21 22
M  V30 22 1 22 23
M  V30 23 2 23 24
M  V30 24 1 24 25
M  V30 25 2 25 26
M  V30 26 1 26 27
M  V30 27 1 26 28
M  V30 28 1 28 29
M  V30 29 1 29 30
M  V30 30 3 30 31
M  V30 31 1 28 32
M  V30 32 2 32 33
M  V30 33 2 20 34
M  V30 34 1 13 35
M  V30 35 1 35 36
M  V30 36 2 36 37
M  V30 37 1 37 38
M  V30 38 1 38 39
M  V30 39 2 39 40
M  V30 40 1 40 41
M  V30 41 2 41 42
M  V30 42 1 42 43
M  V30 43 2 43 44
M  V30 44 1 11 45
M  V30 45 2 45 46
M  V30 46 1 46 4
M  V30 47 1 46 8
M  V30 48 1 34 16
M  V30 49 1 44 36
M  V30 50 1 33 21
M  V30 51 1 44 39
M  V30 52 1 32 24
M  V30 53 1 3 47
M  V30 54 1 3 48
M  V30 55 1 6 49
M  V30 56 1 9 50
M  V30 57 1 10 51
M  V30 58 1 12 52
M  V30 59 1 13 53 CFG=1
M  V30 60 1 14 54
M  V30 61 1 14 55
M  V30 62 1 17 56
M  V30 63 1 19 57
M  V30 64 1 22 58
M  V30 65 1 23 59
M  V30 66 1 27 60
M  V30 67 1 29 61
M  V30 68 1 29 62
M  V30 69 1 33 63
M  V30 70 1 34 64
M  V30 71 1 35 65
M  V30 72 1 35 66
M  V30 73 1 37 67
M  V30 74 1 38 68
M  V30 75 1 40 69
M  V30 76 1 41 70
M  V30 77 1 42 71
M  V30 78 1 43 72
M  V30 79 1 45 73
M  V30 END BOND
M  V30 END CTAB
M  END
>  <Dataset>  (535) 
ChEMBL_Kinases

>  <Ligand_Instance>  (535) 
nan

>  <PDB_ID>  (535) 
nan

>  <Standardized_SMILES>  (535) 
N#CCn1c(O)nc2ccc(N[C@H](COc3cncc(-c4ccc5nc(O)n(CC#N)c5c4)c3)Cc3c[nH]c4ccccc34)cc21

>  <Name>  (535) 
nan

>  <Pocket>  (535) 
nan

>  <ATP_Site>  (535) 
nan

>  <Peripheral>  (535) 
nan

>  <Num_H_Atoms_ProtBoundConf>  (535) 
nan

>  <Num_Resolved_Atoms>  (535) 
nan

>  <Num_Not_Resolved_Atoms>  (535) 
nan

$$$$
CHEMBL5073246
     RDKit          3D

  0  0  0  0  0  0  0  0  0  0999 V3000
M  V30 BEGIN CTAB
M  V30 COUNTS 59 63 0 0 0
M  V30 BEGIN ATOM
M  V30 1 C 4.326364 -2.747846 2.614616 0
M  V30 2 O 3.156492 -2.615445 3.394504 0
M  V30 3 C 2.291629 -1.541304 3.243309 0
M  V30 4 C 1.185074 -1.530101 4.066808 0
M  V30 5 C 0.303533 -0.464150 3.934200 0
M  V30 6 C 0.545759 0.529630 3.010564 0
M  V30 7 C 1.656906 0.505081 2.193513 0
M  V30 8 C 1.828703 1.597518 1.249464 0
M  V30 9 N 2.920833 2.357732 1.431156 0
M  V30 10 C 2.900626 3.306618 0.467054 0
M  V30 11 S 3.780146 4.795460 -0.261229 0
M  V30 12 C 2.574203 5.032750 -1.536188 0
M  V30 13 C 1.646211 4.041113 -1.345781 0
M  V30 14 N 1.821683 3.182695 -0.338212 0
M  V30 15 C 1.169823 2.120564 0.160283 0
M  V30 16 C -0.068548 1.481942 -0.270022 0
M  V30 17 C 0.027155 1.018646 -1.587206 0
M  V30 18 C -1.057957 0.379278 -2.175633 0
M  V30 19 N -2.167893 0.236492 -1.430527 0
M  V30 20 C -2.249091 0.685336 -0.165632 0
M  V30 21 N -3.366359 0.591595 0.720128 0
M  V30 22 C -3.462729 -0.584114 1.560952 0
M  V30 23 C -3.580204 -1.872552 0.801240 0
M  V30 24 N -2.463991 -2.146617 -0.082630 0
M  V30 25 C -3.012152 -2.934016 -1.170276 0
M  V30 26 C -2.039366 -3.316432 -2.220879 0
M  V30 27 C -0.619870 -3.407422 -1.748207 0
M  V30 28 N -0.490724 -4.053586 -0.458131 0
M  V30 29 C 0.957652 -4.130139 -0.213197 0
M  V30 30 S -1.203764 -3.012651 0.721490 0
M  V30 31 O -0.156933 -2.010091 1.113978 0
M  V30 32 O -1.669813 -3.719758 1.937765 0
M  V30 33 N -1.197154 1.303861 0.401172 0
M  V30 34 C 2.549213 -0.557016 2.315232 0
M  V30 35 H 4.920452 -1.789335 2.614916 0
M  V30 36 H 4.104640 -2.994980 1.563200 0
M  V30 37 H 4.943242 -3.575126 3.058862 0
M  V30 38 H 1.001953 -2.320434 4.794227 0
M  V30 39 H -0.561150 -0.491754 4.604789 0
M  V30 40 H -0.223508 1.288702 3.023101 0
M  V30 41 H 2.684152 5.824702 -2.232685 0
M  V30 42 H 0.837778 4.059846 -2.060609 0
M  V30 43 H 0.902995 1.104400 -2.245998 0
M  V30 44 H -1.074209 -0.008555 -3.180975 0
M  V30 45 H -4.072272 1.384661 0.721786 0
M  V30 46 H -2.564236 -0.584030 2.201308 0
M  V30 47 H -4.358445 -0.455838 2.173693 0
M  V30 48 H -4.537252 -1.906884 0.240673 0
M  V30 49 H -3.657983 -2.679025 1.581888 0
M  V30 50 H -3.817839 -2.304816 -1.638399 0
M  V30 51 H -3.554071 -3.802479 -0.723622 0
M  V30 52 H -2.348258 -4.302138 -2.646002 0
M  V30 53 H -2.045793 -2.604531 -3.088970 0
M  V30 54 H -0.081666 -4.071088 -2.483979 0
M  V30 55 H -0.088776 -2.441905 -1.769517 0
M  V30 56 H 1.404751 -4.930689 -0.815129 0
M  V30 57 H 1.182880 -4.202141 0.869721 0
M  V30 58 H 1.409422 -3.161222 -0.554608 0
M  V30 59 H 3.426603 -0.573350 1.668194 0
M  V30 END ATOM
M  V30 BEGIN BOND
M  V30 1 1 1 2
M  V30 2 1 2 3
M  V30 3 2 3 4
M  V30 4 1 4 5
M  V30 5 2 5 6
M  V30 6 1 6 7
M  V30 7 1 7 8
M  V30 8 1 8 9
M  V30 9 2 9 10
M  V30 10 1 10 11
M  V30 11 1 11 12
M  V30 12 2 12 13
M  V30 13 1 13 14
M  V30 14 1 14 15
M  V30 15 1 15 16
M  V30 16 2 16 17
M  V30 17 1 17 18
M  V30 18 2 18 19
M  V30 19 1 19 20
M  V30 20 1 20 21
M  V30 21 1 21 22
M  V30 22 1 22 23
M  V30 23 1 23 24
M  V30 24 1 24 25
M  V30 25 1 25 26
M  V30 26 1 26 27
M  V30 27 1 27 28
M  V30 28 1 28 29
M  V30 29 1 28 30
M  V30 30 2 30 31
M  V30 31 2 30 32
M  V30 32 2 20 33
M  V30 33 2 7 34
M  V30 34 1 34 3
M  V30 35 2 15 8
M  V30 36 1 33 16
M  V30 37 1 14 10
M  V30 38 1 30 24
M  V30 39 1 1 35
M  V30 40 1 1 36
M  V30 41 1 1 37
M  V30 42 1 4 38
M  V30 43 1 5 39
M  V30 44 1 6 40
M  V30 45 1 12 41
M  V30 46 1 13 42
M  V30 47 1 17 43
M  V30 48 1 18 44
M  V30 49 1 21 45
M  V30 50 1 22 46
M  V30 51 1 22 47
M  V30 52 1 23 48
M  V30 53 1 23 49
M  V30 54 1 25 50
M  V30 55 1 25 51
M  V30 56 1 26 52
M  V30 57 1 26 53
M  V30 58 1 27 54
M  V30 59 1 27 55
M  V30 60 1 29 56
M  V30 61 1 29 57
M  V30 62 1 29 58
M  V30 63 1 34 59
M  V30 END BOND
M  V30 END CTAB
M  END
>  <Dataset>  (536) 
ChEMBL_Kinases

>  <Ligand_Instance>  (536) 
nan

>  <PDB_ID>  (536) 
nan

>  <Standardized_SMILES>  (536) 
COc1cccc(-c2nc3sccn3c2-c2ccnc(NCCN3CCCN(C)S3(=O)=O)n2)c1

>  <Name>  (536) 
nan

>  <Pocket>  (536) 
nan

>  <ATP_Site>  (536) 
nan

>  <Peripheral>  (536) 
nan

>  <Num_H_Atoms_ProtBoundConf>  (536) 
nan

>  <Num_Resolved_Atoms>  (536) 
nan

>  <Num_Not_Resolved_Atoms>  (536) 
nan

$$$$
CHEMBL3793404
     RDKit          3D

  0  0  0  0  0  0  0  0  0  0999 V3000
M  V30 BEGIN CTAB
M  V30 COUNTS 39 41 0 0 0
M  V30 BEGIN ATOM
M  V30 1 N -0.874911 -4.253416 3.433316 0
M  V30 2 C -0.138382 -3.830604 2.255726 0
M  V30 3 C -0.192603 -2.315265 2.158339 0
M  V30 4 C 0.558543 -1.930703 0.964347 0
M  V30 5 O 1.154375 -2.599240 0.060894 0
M  V30 6 N 0.585834 -0.512142 0.858692 0
M  V30 7 C 1.145664 0.415008 -0.059115 0
M  V30 8 C 0.458178 0.873116 -1.163931 0
M  V30 9 C 1.061504 1.789650 -2.036176 0
M  V30 10 C 2.342214 2.185494 -1.722744 0
M  V30 11 C 2.948619 3.100895 -2.591493 0
M  V30 12 N 4.208491 3.556823 -2.376461 0
M  V30 13 C 4.906216 3.117361 -1.290579 0
M  V30 14 C 4.375235 2.212804 -0.386078 0
M  V30 15 C 3.094159 1.776904 -0.643439 0
M  V30 16 C 2.446011 0.870685 0.183912 0
M  V30 17 C -1.597164 -1.884576 2.194212 0
M  V30 18 C -2.238981 -1.578679 3.388674 0
M  V30 19 C -3.568269 -1.169169 3.439061 0
M  V30 20 C -4.212088 -1.085072 2.227977 0
M  V30 21 Cl -5.880380 -0.574475 2.250586 0
M  V30 22 C -3.637849 -1.373536 1.001193 0
M  V30 23 C -2.319072 -1.773191 1.022793 0
M  V30 24 Cl -1.606265 -2.136142 -0.542906 0
M  V30 25 H -0.199444 -4.501601 4.215183 0
M  V30 26 H -1.500878 -5.056404 3.224342 0
M  V30 27 H -0.546590 -4.282647 1.330615 0
M  V30 28 H 0.907191 -4.198782 2.369941 0
M  V30 29 H 0.301616 -1.852597 3.061086 0
M  V30 30 H 0.162575 0.225333 1.487700 0
M  V30 31 H -0.537372 0.540282 -1.371813 0
M  V30 32 H 0.580565 2.186820 -2.916919 0
M  V30 33 H 2.479186 3.514353 -3.486509 0
M  V30 34 H 5.923969 3.453266 -1.071519 0
M  V30 35 H 4.917723 1.858669 0.475445 0
M  V30 36 H 2.964727 0.493427 1.061802 0
M  V30 37 H -1.624923 -1.681986 4.295423 0
M  V30 38 H -4.035518 -0.941130 4.368350 0
M  V30 39 H -4.224942 -1.280337 0.076186 0
M  V30 END ATOM
M  V30 BEGIN BOND
M  V30 1 1 1 2
M  V30 2 1 2 3
M  V30 3 1 3 4
M  V30 4 2 4 5
M  V30 5 1 4 6
M  V30 6 1 6 7
M  V30 7 2 7 8
M  V30 8 1 8 9
M  V30 9 2 9 10
M  V30 10 1 10 11
M  V30 11 2 11 12
M  V30 12 1 12 13
M  V30 13 2 13 14
M  V30 14 1 14 15
M  V30 15 2 15 16
M  V30 16 1 3 17
M  V30 17 2 17 18
M  V30 18 1 18 19
M  V30 19 2 19 20
M  V30 20 1 20 21
M  V30 21 1 20 22
M  V30 22 2 22 23
M  V30 23 1 23 24
M  V30 24 1 16 7
M  V30 25 1 23 17
M  V30 26 1 15 10
M  V30 27 1 1 25
M  V30 28 1 1 26
M  V30 29 1 2 27
M  V30 30 1 2 28
M  V30 31 1 3 29
M  V30 32 1 6 30
M  V30 33 1 8 31
M  V30 34 1 9 32
M  V30 35 1 11 33
M  V30 36 1 13 34
M  V30 37 1 14 35
M  V30 38 1 16 36
M  V30 39 1 18 37
M  V30 40 1 19 38
M  V30 41 1 22 39
M  V30 END BOND
M  V30 END CTAB
M  END
>  <Dataset>  (537) 
ChEMBL_Kinases

>  <Ligand_Instance>  (537) 
nan

>  <PDB_ID>  (537) 
nan

>  <Standardized_SMILES>  (537) 
NCC(C(=O)Nc1ccc2cnccc2c1)c1ccc(Cl)cc1Cl

>  <Name>  (537) 
nan

>  <Pocket>  (537) 
nan

>  <ATP_Site>  (537) 
nan

>  <Peripheral>  (537) 
nan

>  <Num_H_Atoms_ProtBoundConf>  (537) 
nan

>  <Num_Resolved_Atoms>  (537) 
nan

>  <Num_Not_Resolved_Atoms>  (537) 
nan

$$$$
CHEMBL3793381
     RDKit          3D

  0  0  0  0  0  0  0  0  0  0999 V3000
M  V30 BEGIN CTAB
M  V30 COUNTS 51 53 0 0 0
M  V30 BEGIN ATOM
M  V30 1 C -0.894607 3.459177 -6.545083 0
M  V30 2 C -1.891757 2.308925 -6.649819 0
M  V30 3 C -3.076795 2.828973 -7.432834 0
M  V30 4 C -2.388254 1.915618 -5.301535 0
M  V30 5 O -3.575369 1.914085 -4.846052 0
M  V30 6 O -1.345610 1.503395 -4.482122 0
M  V30 7 C -1.537731 1.083572 -3.171356 0
M  V30 8 C -1.776486 -0.248885 -2.907767 0
M  V30 9 C -1.968076 -0.673646 -1.610985 0
M  V30 10 C -1.936242 0.170236 -0.521650 0
M  V30 11 C -2.126092 -0.213684 0.898917 0
M  V30 12 C -3.342589 -1.036616 1.158497 0
M  V30 13 N -3.451692 -1.369952 2.583821 0
M  V30 14 C -0.891619 -0.834922 1.481391 0
M  V30 15 O -0.261200 -0.338513 2.471383 0
M  V30 16 N -0.254713 -2.026109 1.041452 0
M  V30 17 C 0.913306 -2.498437 1.689674 0
M  V30 18 C 0.892357 -3.368434 2.763044 0
M  V30 19 C 2.115064 -3.756972 3.311087 0
M  V30 20 C 3.307657 -3.283444 2.792707 0
M  V30 21 C 4.498689 -3.700354 3.374085 0
M  V30 22 N 5.698190 -3.273254 2.913500 0
M  V30 23 C 5.688490 -2.428280 1.869330 0
M  V30 24 C 4.537665 -1.981409 1.253188 0
M  V30 25 C 3.312417 -2.413752 1.718814 0
M  V30 26 C 2.105490 -2.020339 1.165624 0
M  V30 27 C -1.688684 1.501365 -0.881154 0
M  V30 28 C -1.487156 2.006982 -2.147507 0
M  V30 29 H -1.295085 4.090223 -5.703114 0
M  V30 30 H 0.101537 3.121070 -6.263087 0
M  V30 31 H -0.908428 4.106854 -7.443549 0
M  V30 32 H -1.446503 1.452239 -7.193260 0
M  V30 33 H -3.573972 3.595504 -6.777109 0
M  V30 34 H -3.780614 2.026553 -7.730814 0
M  V30 35 H -2.704286 3.410727 -8.309962 0
M  V30 36 H -1.815986 -0.973516 -3.713365 0
M  V30 37 H -2.158923 -1.720467 -1.424515 0
M  V30 38 H -2.234811 0.754308 1.474464 0
M  V30 39 H -4.240091 -0.483855 0.886763 0
M  V30 40 H -3.258184 -2.007279 0.598866 0
M  V30 41 H -3.136048 -0.510060 3.112051 0
M  V30 42 H -4.428470 -1.615325 2.844793 0
M  V30 43 H -0.677548 -2.531227 0.234759 0
M  V30 44 H -0.062617 -3.719680 3.143646 0
M  V30 45 H 2.076477 -4.444639 4.158290 0
M  V30 46 H 4.522647 -4.386829 4.223299 0
M  V30 47 H 6.630024 -2.049772 1.454402 0
M  V30 48 H 4.561673 -1.299922 0.412847 0
M  V30 49 H 2.160857 -1.340408 0.328899 0
M  V30 50 H -1.651086 2.227439 -0.053378 0
M  V30 51 H -1.307806 3.045143 -2.283816 0
M  V30 END ATOM
M  V30 BEGIN BOND
M  V30 1 1 1 2
M  V30 2 1 2 3
M  V30 3 1 2 4
M  V30 4 2 4 5
M  V30 5 1 4 6
M  V30 6 1 6 7
M  V30 7 2 7 8
M  V30 8 1 8 9
M  V30 9 2 9 10
M  V30 10 1 10 11
M  V30 11 1 11 12
M  V30 12 1 12 13
M  V30 13 1 11 14
M  V30 14 2 14 15
M  V30 15 1 14 16
M  V30 16 1 16 17
M  V30 17 2 17 18
M  V30 18 1 18 19
M  V30 19 2 19 20
M  V30 20 1 20 21
M  V30 21 2 21 22
M  V30 22 1 22 23
M  V30 23 2 23 24
M  V30 24 1 24 25
M  V30 25 2 25 26
M  V30 26 1 10 27
M  V30 27 2 27 28
M  V30 28 1 28 7
M  V30 29 1 26 17
M  V30 30 1 25 20
M  V30 31 1 1 29
M  V30 32 1 1 30
M  V30 33 1 1 31
M  V30 34 1 2 32
M  V30 35 1 3 33
M  V30 36 1 3 34
M  V30 37 1 3 35
M  V30 38 1 8 36
M  V30 39 1 9 37
M  V30 40 1 11 38
M  V30 41 1 12 39
M  V30 42 1 12 40
M  V30 43 1 13 41
M  V30 44 1 13 42
M  V30 45 1 16 43
M  V30 46 1 18 44
M  V30 47 1 19 45
M  V30 48 1 21 46
M  V30 49 1 23 47
M  V30 50 1 24 48
M  V30 51 1 26 49
M  V30 52 1 27 50
M  V30 53 1 28 51
M  V30 END BOND
M  V30 END CTAB
M  END
>  <Dataset>  (538) 
ChEMBL_Kinases

>  <Ligand_Instance>  (538) 
nan

>  <PDB_ID>  (538) 
nan

>  <Standardized_SMILES>  (538) 
CC(C)C(=O)Oc1ccc(C(CN)C(=O)Nc2ccc3cnccc3c2)cc1

>  <Name>  (538) 
nan

>  <Pocket>  (538) 
nan

>  <ATP_Site>  (538) 
nan

>  <Peripheral>  (538) 
nan

>  <Num_H_Atoms_ProtBoundConf>  (538) 
nan

>  <Num_Resolved_Atoms>  (538) 
nan

>  <Num_Not_Resolved_Atoms>  (538) 
nan

$$$$
CHEMBL3793368
     RDKit          3D

  0  0  0  0  0  0  0  0  0  0999 V3000
M  V30 BEGIN CTAB
M  V30 COUNTS 44 46 0 0 0
M  V30 BEGIN ATOM
M  V30 1 C 1.732217 -6.172559 1.609304 0
M  V30 2 O 0.388010 -5.751711 1.681056 0
M  V30 3 C -0.063381 -4.589412 1.112390 0
M  V30 4 C 0.682592 -3.666582 0.387971 0
M  V30 5 C 0.137951 -2.497159 -0.164494 0
M  V30 6 C 1.097356 -1.663115 -0.908502 0
M  V30 7 C 0.609143 -1.558848 -2.335304 0
M  V30 8 N -0.687446 -0.964588 -2.442811 0
M  V30 9 C 1.289241 -0.379629 -0.259482 0
M  V30 10 O 2.455986 -0.116200 0.219792 0
M  V30 11 N 0.424718 0.682775 -0.038609 0
M  V30 12 C 0.579251 1.946459 0.588495 0
M  V30 13 C 0.985807 3.036909 -0.195077 0
M  V30 14 C 1.160223 4.304350 0.313782 0
M  V30 15 C 0.912884 4.469223 1.668453 0
M  V30 16 C 1.092964 5.755859 2.165797 0
M  V30 17 N 0.861878 5.954896 3.475883 0
M  V30 18 C 0.473783 4.963368 4.278911 0
M  V30 19 C 0.283257 3.684041 3.835180 0
M  V30 20 C 0.511428 3.444470 2.499614 0
M  V30 21 C 0.355602 2.202405 1.925863 0
M  V30 22 C -1.197426 -2.355320 0.080573 0
M  V30 23 C -1.991512 -3.224739 0.786083 0
M  V30 24 C -1.420475 -4.365601 1.314788 0
M  V30 25 O -2.239688 -5.224910 2.020501 0
M  V30 26 H 2.017643 -6.265076 0.528682 0
M  V30 27 H 2.399923 -5.425984 2.078921 0
M  V30 28 H 1.862738 -7.137793 2.143677 0
M  V30 29 H 1.731686 -3.972851 0.312974 0
M  V30 30 H 2.062404 -2.215603 -0.960657 0
M  V30 31 H 0.513093 -2.618047 -2.714175 0
M  V30 32 H 1.368588 -1.083507 -2.974238 0
M  V30 33 H -0.709839 -0.070931 -2.980577 0
M  V30 34 H -1.455781 -1.615230 -2.710008 0
M  V30 35 H -0.548165 0.579149 -0.394615 0
M  V30 36 H 1.165510 2.849941 -1.241630 0
M  V30 37 H 1.472654 5.122134 -0.319885 0
M  V30 38 H 1.411240 6.573525 1.522871 0
M  V30 39 H 0.284406 5.120116 5.337879 0
M  V30 40 H -0.031717 2.858759 4.460532 0
M  V30 41 H 0.044555 1.392015 2.539949 0
M  V30 42 H -1.643853 -1.479790 -0.327303 0
M  V30 43 H -3.039021 -2.985022 0.901712 0
M  V30 44 H -1.942541 -6.211003 2.053318 0
M  V30 END ATOM
M  V30 BEGIN BOND
M  V30 1 1 1 2
M  V30 2 1 2 3
M  V30 3 2 3 4
M  V30 4 1 4 5
M  V30 5 1 5 6
M  V30 6 1 6 7
M  V30 7 1 7 8
M  V30 8 1 6 9
M  V30 9 2 9 10
M  V30 10 1 9 11
M  V30 11 1 11 12
M  V30 12 2 12 13
M  V30 13 1 13 14
M  V30 14 2 14 15
M  V30 15 1 15 16
M  V30 16 2 16 17
M  V30 17 1 17 18
M  V30 18 2 18 19
M  V30 19 1 19 20
M  V30 20 2 20 21
M  V30 21 2 5 22
M  V30 22 1 22 23
M  V30 23 2 23 24
M  V30 24 1 24 25
M  V30 25 1 24 3
M  V30 26 1 21 12
M  V30 27 1 20 15
M  V30 28 1 1 26
M  V30 29 1 1 27
M  V30 30 1 1 28
M  V30 31 1 4 29
M  V30 32 1 6 30
M  V30 33 1 7 31
M  V30 34 1 7 32
M  V30 35 1 8 33
M  V30 36 1 8 34
M  V30 37 1 11 35
M  V30 38 1 13 36
M  V30 39 1 14 37
M  V30 40 1 16 38
M  V30 41 1 18 39
M  V30 42 1 19 40
M  V30 43 1 21 41
M  V30 44 1 22 42
M  V30 45 1 23 43
M  V30 46 1 25 44
M  V30 END BOND
M  V30 END CTAB
M  END
>  <Dataset>  (539) 
ChEMBL_Kinases

>  <Ligand_Instance>  (539) 
nan

>  <PDB_ID>  (539) 
nan

>  <Standardized_SMILES>  (539) 
COc1cc(C(CN)C(=O)Nc2ccc3cnccc3c2)ccc1O

>  <Name>  (539) 
nan

>  <Pocket>  (539) 
nan

>  <ATP_Site>  (539) 
nan

>  <Peripheral>  (539) 
nan

>  <Num_H_Atoms_ProtBoundConf>  (539) 
nan

>  <Num_Resolved_Atoms>  (539) 
nan

>  <Num_Not_Resolved_Atoms>  (539) 
nan

$$$$
CHEMBL5073277
     RDKit          3D

  0  0  0  0  0  0  0  0  0  0999 V3000
M  V30 BEGIN CTAB
M  V30 COUNTS 67 71 0 0 0
M  V30 BEGIN ATOM
M  V30 1 C 6.058199 -3.590712 4.114976 0
M  V30 2 C 5.309512 -2.326136 3.894900 0
M  V30 3 N 5.180368 -1.852721 2.626355 0
M  V30 4 C 4.501728 -0.704029 2.382643 0
M  V30 5 C 4.416785 -0.298811 1.068966 0
M  V30 6 C 3.710002 0.881948 0.846983 0
M  V30 7 C 3.142859 1.573996 1.918718 0
M  V30 8 C 2.450700 2.771249 1.471709 0
M  V30 9 N 1.626767 2.785829 0.376796 0
M  V30 10 C 1.003429 3.938748 0.019172 0
M  V30 11 N 0.230182 3.657810 -1.160462 0
M  V30 12 C -0.910628 2.817027 -1.139830 0
M  V30 13 C -1.332626 2.221146 0.024206 0
M  V30 14 C -2.438507 1.376335 0.053229 0
M  V30 15 C -3.084047 1.177324 -1.168928 0
M  V30 16 C -4.234459 0.254628 -1.066180 0
M  V30 17 N -3.837406 -1.122376 -1.307191 0
M  V30 18 C -2.771282 -1.556613 -0.404774 0
M  V30 19 C -2.335748 -2.936658 -0.855251 0
M  V30 20 N -3.397350 -3.691959 -1.432651 0
M  V30 21 C -3.467418 -3.714567 -2.855371 0
M  V30 22 C -4.686340 -4.500884 -3.352232 0
M  V30 23 C -2.278172 -4.452228 -3.476629 0
M  V30 24 C -4.658620 -3.369359 -0.802704 0
M  V30 25 C -5.004250 -1.921601 -0.887045 0
M  V30 26 C -2.653915 1.780489 -2.331508 0
M  V30 27 N -1.562036 2.606836 -2.326066 0
M  V30 28 N 1.127005 5.104927 0.665040 0
M  V30 29 C 1.920367 5.154778 1.745700 0
M  V30 30 C 2.568967 3.971071 2.124882 0
M  V30 31 F 3.350312 4.102375 3.225344 0
M  V30 32 C 3.264253 1.116001 3.212228 0
M  V30 33 C 3.957967 -0.049505 3.462750 0
M  V30 34 N 4.072474 -0.501326 4.737865 0
M  V30 35 C 4.759545 -1.663590 4.985536 0
M  V30 36 C 4.920619 -2.205813 6.358048 0
M  V30 37 H 6.375395 -4.003132 3.125683 0
M  V30 38 H 5.351537 -4.323403 4.562225 0
M  V30 39 H 6.964655 -3.462787 4.733253 0
M  V30 40 H 4.873991 -0.880803 0.307605 0
M  V30 41 H 3.658110 1.179303 -0.198119 0
M  V30 42 H 0.622772 4.148778 -1.986799 0
M  V30 43 H -0.780270 2.419165 0.953233 0
M  V30 44 H -2.744808 0.923584 0.984921 0
M  V30 45 H -4.739288 0.284194 -0.085137 0
M  V30 46 H -5.016169 0.484953 -1.815538 0
M  V30 47 H -3.156290 -1.515727 0.621113 0
M  V30 48 H -1.867108 -0.935223 -0.465242 0
M  V30 49 H -1.966269 -3.451668 0.068553 0
M  V30 50 H -1.492541 -2.888096 -1.570556 0
M  V30 51 H -3.509086 -2.703746 -3.309411 0
M  V30 52 H -4.601681 -5.494528 -2.911114 0
M  V30 53 H -5.629507 -3.966538 -3.190114 0
M  V30 54 H -4.536188 -4.629869 -4.450688 0
M  V30 55 H -2.475956 -4.467829 -4.586199 0
M  V30 56 H -2.361892 -5.503566 -3.130054 0
M  V30 57 H -1.314524 -4.005217 -3.244425 0
M  V30 58 H -5.473082 -3.996632 -1.160345 0
M  V30 59 H -4.515987 -3.669141 0.280292 0
M  V30 60 H -5.898697 -1.709637 -1.482828 0
M  V30 61 H -5.234758 -1.539459 0.151739 0
M  V30 62 H -3.214788 1.573970 -3.235195 0
M  V30 63 H 2.046925 6.079435 2.291772 0
M  V30 64 H 2.803683 1.704203 3.961335 0
M  V30 65 H 5.067220 -3.299102 6.302960 0
M  V30 66 H 5.805274 -1.732396 6.833268 0
M  V30 67 H 4.050850 -1.952928 6.999363 0
M  V30 END ATOM
M  V30 BEGIN BOND
M  V30 1 1 1 2
M  V30 2 2 2 3
M  V30 3 1 3 4
M  V30 4 2 4 5
M  V30 5 1 5 6
M  V30 6 2 6 7
M  V30 7 1 7 8
M  V30 8 2 8 9
M  V30 9 1 9 10
M  V30 10 1 10 11
M  V30 11 1 11 12
M  V30 12 2 12 13
M  V30 13 1 13 14
M  V30 14 2 14 15
M  V30 15 1 15 16
M  V30 16 1 16 17
M  V30 17 1 17 18
M  V30 18 1 18 19
M  V30 19 1 19 20
M  V30 20 1 20 21
M  V30 21 1 21 22
M  V30 22 1 21 23
M  V30 23 1 20 24
M  V30 24 1 24 25
M  V30 25 1 15 26
M  V30 26 2 26 27
M  V30 27 2 10 28
M  V30 28 1 28 29
M  V30 29 2 29 30
M  V30 30 1 30 31
M  V30 31 1 7 32
M  V30 32 2 32 33
M  V30 33 1 33 34
M  V30 34 2 34 35
M  V30 35 1 35 36
M  V30 36 1 35 2
M  V30 37 1 33 4
M  V30 38 1 30 8
M  V30 39 1 27 12
M  V30 40 1 25 17
M  V30 41 1 1 37
M  V30 42 1 1 38
M  V30 43 1 1 39
M  V30 44 1 5 40
M  V30 45 1 6 41
M  V30 46 1 11 42
M  V30 47 1 13 43
M  V30 48 1 14 44
M  V30 49 1 16 45
M  V30 50 1 16 46
M  V30 51 1 18 47
M  V30 52 1 18 48
M  V30 53 1 19 49
M  V30 54 1 19 50
M  V30 55 1 21 51
M  V30 56 1 22 52
M  V30 57 1 22 53
M  V30 58 1 22 54
M  V30 59 1 23 55
M  V30 60 1 23 56
M  V30 61 1 23 57
M  V30 62 1 24 58
M  V30 63 1 24 59
M  V30 64 1 25 60
M  V30 65 1 25 61
M  V30 66 1 26 62
M  V30 67 1 29 63
M  V30 68 1 32 64
M  V30 69 1 36 65
M  V30 70 1 36 66
M  V30 71 1 36 67
M  V30 END BOND
M  V30 END CTAB
M  END
>  <Dataset>  (540) 
ChEMBL_Kinases

>  <Ligand_Instance>  (540) 
nan

>  <PDB_ID>  (540) 
nan

>  <Standardized_SMILES>  (540) 
Cc1nc2ccc(-c3nc(Nc4ccc(CN5CCN(C(C)C)CC5)cn4)ncc3F)cc2nc1C

>  <Name>  (540) 
nan

>  <Pocket>  (540) 
nan

>  <ATP_Site>  (540) 
nan

>  <Peripheral>  (540) 
nan

>  <Num_H_Atoms_ProtBoundConf>  (540) 
nan

>  <Num_Resolved_Atoms>  (540) 
nan

>  <Num_Not_Resolved_Atoms>  (540) 
nan

$$$$
CHEMBL3793352
     RDKit          3D

  0  0  0  0  0  0  0  0  0  0999 V3000
M  V30 BEGIN CTAB
M  V30 COUNTS 53 56 0 0 0
M  V30 BEGIN ATOM
M  V30 1 C 4.808767 -1.110458 7.396012 0
M  V30 2 O 5.158666 -0.560458 6.123593 0
M  V30 3 C 4.158508 -0.379634 5.198432 0
M  V30 4 O 3.078589 -0.768193 5.718914 0
M  V30 5 C 4.330035 0.166816 3.854178 0
M  V30 6 C 5.515906 0.597506 3.272199 0
M  V30 7 C 5.497746 1.089306 1.983971 0
M  V30 8 C 4.306251 1.148924 1.287309 0
M  V30 9 C 3.129407 0.731780 1.838136 0
M  V30 10 N 1.909805 0.799859 1.106681 0
M  V30 11 C 1.053990 1.925388 1.125559 0
M  V30 12 O 1.422711 2.884156 1.830264 0
M  V30 13 C -0.200460 2.026384 0.388491 0
M  V30 14 C -0.669109 1.004877 -0.409887 0
M  V30 15 C -1.870844 1.092729 -1.120382 0
M  V30 16 N -2.281796 -0.015244 -1.925269 0
M  V30 17 C -3.541112 -0.333066 -2.275127 0
M  V30 18 C -3.416792 -1.470954 -3.044783 0
M  V30 19 C -4.474309 -2.273499 -3.706981 0
M  V30 20 N -4.929079 -3.311647 -2.778859 0
M  V30 21 C -4.066492 -4.308205 -2.245248 0
M  V30 22 C -3.466883 -3.915511 -1.049152 0
M  V30 23 C -2.593624 -4.737427 -0.366789 0
M  V30 24 C -2.312609 -5.987688 -0.896600 0
M  V30 25 C -2.931068 -6.338253 -2.088886 0
M  V30 26 N -3.785156 -5.533559 -2.755645 0
M  V30 27 N -2.103972 -1.814368 -3.144135 0
M  V30 28 N -1.421861 -0.904386 -2.447167 0
M  V30 29 C -2.637824 2.254969 -1.027651 0
M  V30 30 C -2.175180 3.268437 -0.237008 0
M  V30 31 C -0.980379 3.173962 0.465866 0
M  V30 32 O -0.574899 4.243891 1.248524 0
M  V30 33 C 3.145779 0.239118 3.127790 0
M  V30 34 H 5.721000 -1.543928 7.846067 0
M  V30 35 H 4.314628 -0.364502 8.049293 0
M  V30 36 H 4.064909 -1.930054 7.274309 0
M  V30 37 H 6.396968 0.500217 3.925819 0
M  V30 38 H 6.445590 1.411092 1.577242 0
M  V30 39 H 4.349428 1.547654 0.269179 0
M  V30 40 H 1.636377 -0.024922 0.527911 0
M  V30 41 H -0.112893 0.083661 -0.515821 0
M  V30 42 H -4.455614 0.169866 -2.024547 0
M  V30 43 H -5.368989 -1.686665 -3.957896 0
M  V30 44 H -4.110843 -2.754414 -4.636896 0
M  V30 45 H -5.873360 -3.490973 -2.380413 0
M  V30 46 H -3.635283 -2.944906 -0.563367 0
M  V30 47 H -2.118699 -4.439202 0.570849 0
M  V30 48 H -1.632212 -6.646528 -0.378956 0
M  V30 49 H -2.750991 -7.284042 -2.538324 0
M  V30 50 H -3.569137 2.335368 -1.572178 0
M  V30 51 H -2.755235 4.177037 -0.152252 0
M  V30 52 H -0.218943 5.068323 0.776530 0
M  V30 53 H 2.176652 -0.082616 3.524706 0
M  V30 END ATOM
M  V30 BEGIN BOND
M  V30 1 1 1 2
M  V30 2 1 2 3
M  V30 3 2 3 4
M  V30 4 1 3 5
M  V30 5 2 5 6
M  V30 6 1 6 7
M  V30 7 2 7 8
M  V30 8 1 8 9
M  V30 9 1 9 10
M  V30 10 1 10 11
M  V30 11 2 11 12
M  V30 12 1 11 13
M  V30 13 2 13 14
M  V30 14 1 14 15
M  V30 15 1 15 16
M  V30 16 1 16 17
M  V30 17 2 17 18
M  V30 18 1 18 19
M  V30 19 1 19 20
M  V30 20 1 20 21
M  V30 21 2 21 22
M  V30 22 1 22 23
M  V30 23 2 23 24
M  V30 24 1 24 25
M  V30 25 2 25 26
M  V30 26 1 18 27
M  V30 27 2 27 28
M  V30 28 2 15 29
M  V30 29 1 29 30
M  V30 30 2 30 31
M  V30 31 1 31 32
M  V30 32 2 9 33
M  V30 33 1 33 5
M  V30 34 1 31 13
M  V30 35 1 28 16
M  V30 36 1 26 21
M  V30 37 1 1 34
M  V30 38 1 1 35
M  V30 39 1 1 36
M  V30 40 1 6 37
M  V30 41 1 7 38
M  V30 42 1 8 39
M  V30 43 1 10 40
M  V30 44 1 14 41
M  V30 45 1 17 42
M  V30 46 1 19 43
M  V30 47 1 19 44
M  V30 48 1 20 45
M  V30 49 1 22 46
M  V30 50 1 23 47
M  V30 51 1 24 48
M  V30 52 1 25 49
M  V30 53 1 29 50
M  V30 54 1 30 51
M  V30 55 1 32 52
M  V30 56 1 33 53
M  V30 END BOND
M  V30 END CTAB
M  END
>  <Dataset>  (541) 
ChEMBL_Kinases

>  <Ligand_Instance>  (541) 
nan

>  <PDB_ID>  (541) 
nan

>  <Standardized_SMILES>  (541) 
COC(=O)c1cccc(NC(=O)c2cc(-n3cc(CNc4ccccn4)nn3)ccc2O)c1

>  <Name>  (541) 
nan

>  <Pocket>  (541) 
nan

>  <ATP_Site>  (541) 
nan

>  <Peripheral>  (541) 
nan

>  <Num_H_Atoms_ProtBoundConf>  (541) 
nan

>  <Num_Resolved_Atoms>  (541) 
nan

>  <Num_Not_Resolved_Atoms>  (541) 
nan

$$$$
CHEMBL3793296
     RDKit          3D

  0  0  0  0  0  0  0  0  0  0999 V3000
M  V30 BEGIN CTAB
M  V30 COUNTS 45 48 0 0 0
M  V30 BEGIN ATOM
M  V30 1 N 0.712488 -3.063625 1.920951 0
M  V30 2 C -0.233354 -2.203984 2.595686 0
M  V30 3 C -0.738898 -1.073916 1.694985 0
M  V30 4 C 0.431157 -0.257938 1.289082 0
M  V30 5 O 0.357569 0.995275 1.472753 0
M  V30 6 N 1.655412 -0.614467 0.720296 0
M  V30 7 C 2.446217 0.571955 0.516978 0
M  V30 8 C 2.324141 1.241032 -0.697368 0
M  V30 9 C 3.066549 2.382130 -0.926621 0
M  V30 10 C 3.929478 2.843401 0.071260 0
M  V30 11 C 4.657493 3.987581 -0.189769 0
M  V30 12 N 5.491068 4.437583 0.768285 0
M  V30 13 C 5.616867 3.796291 1.949308 0
M  V30 14 C 4.892019 2.659824 2.205206 0
M  V30 15 C 4.011552 2.140951 1.256914 0
M  V30 16 C 3.285796 0.996796 1.522810 0
M  V30 17 C -1.426011 -1.653554 0.524230 0
M  V30 18 C -0.927194 -1.850884 -0.738488 0
M  V30 19 C -1.598450 -2.387108 -1.812449 0
M  V30 20 C -2.903764 -2.775996 -1.641158 0
M  V30 21 C -3.483121 -2.612008 -0.402518 0
M  V30 22 C -4.793304 -3.021409 -0.306261 0
M  V30 23 C -5.440712 -2.888773 0.892791 0
M  V30 24 C -4.780703 -2.353734 1.974528 0
M  V30 25 C -3.470539 -1.966132 1.803494 0
M  V30 26 C -2.746759 -2.063745 0.637913 0
M  V30 27 H 0.200886 -3.868740 1.495021 0
M  V30 28 H 1.400937 -3.419540 2.614259 0
M  V30 29 H 0.334726 -1.724703 3.449112 0
M  V30 30 H -1.038314 -2.763429 3.088532 0
M  V30 31 H -1.412762 -0.474113 2.344571 0
M  V30 32 H 1.835127 -1.620458 0.535329 0
M  V30 33 H 1.630182 0.830913 -1.442489 0
M  V30 34 H 2.947949 2.880822 -1.885074 0
M  V30 35 H 4.544645 4.487972 -1.139771 0
M  V30 36 H 6.295003 4.168375 2.720075 0
M  V30 37 H 4.972367 2.118850 3.151732 0
M  V30 38 H 3.371052 0.469517 2.458320 0
M  V30 39 H 0.087050 -1.560657 -0.952776 0
M  V30 40 H -1.132051 -2.509598 -2.776868 0
M  V30 41 H -3.443549 -3.198945 -2.475579 0
M  V30 42 H -5.326227 -3.442812 -1.143492 0
M  V30 43 H -6.470826 -3.207477 0.979606 0
M  V30 44 H -5.296572 -2.249714 2.923304 0
M  V30 45 H -3.005787 -1.554812 2.673497 0
M  V30 END ATOM
M  V30 BEGIN BOND
M  V30 1 1 1 2
M  V30 2 1 2 3
M  V30 3 1 3 4
M  V30 4 2 4 5
M  V30 5 1 4 6
M  V30 6 1 6 7
M  V30 7 2 7 8
M  V30 8 1 8 9
M  V30 9 2 9 10
M  V30 10 1 10 11
M  V30 11 2 11 12
M  V30 12 1 12 13
M  V30 13 2 13 14
M  V30 14 1 14 15
M  V30 15 2 15 16
M  V30 16 1 3 17
M  V30 17 2 17 18
M  V30 18 1 18 19
M  V30 19 2 19 20
M  V30 20 1 20 21
M  V30 21 2 21 22
M  V30 22 1 22 23
M  V30 23 2 23 24
M  V30 24 1 24 25
M  V30 25 2 25 26
M  V30 26 1 16 7
M  V30 27 1 26 17
M  V30 28 1 15 10
M  V30 29 1 26 21
M  V30 30 1 1 27
M  V30 31 1 1 28
M  V30 32 1 2 29
M  V30 33 1 2 30
M  V30 34 1 3 31
M  V30 35 1 6 32
M  V30 36 1 8 33
M  V30 37 1 9 34
M  V30 38 1 11 35
M  V30 39 1 13 36
M  V30 40 1 14 37
M  V30 41 1 16 38
M  V30 42 1 18 39
M  V30 43 1 19 40
M  V30 44 1 20 41
M  V30 45 1 22 42
M  V30 46 1 23 43
M  V30 47 1 24 44
M  V30 48 1 25 45
M  V30 END BOND
M  V30 END CTAB
M  END
>  <Dataset>  (542) 
ChEMBL_Kinases

>  <Ligand_Instance>  (542) 
nan

>  <PDB_ID>  (542) 
nan

>  <Standardized_SMILES>  (542) 
NCC(C(=O)Nc1ccc2cnccc2c1)c1cccc2ccccc12

>  <Name>  (542) 
nan

>  <Pocket>  (542) 
nan

>  <ATP_Site>  (542) 
nan

>  <Peripheral>  (542) 
nan

>  <Num_H_Atoms_ProtBoundConf>  (542) 
nan

>  <Num_Resolved_Atoms>  (542) 
nan

>  <Num_Not_Resolved_Atoms>  (542) 
nan

$$$$
CHEMBL379327
     RDKit          3D

  0  0  0  0  0  0  0  0  0  0999 V3000
M  V30 BEGIN CTAB
M  V30 COUNTS 21 22 0 0 0
M  V30 BEGIN ATOM
M  V30 1 N 1.550155 -1.048354 4.145431 0
M  V30 2 C 0.688945 0.006358 3.739660 0
M  V30 3 O 0.150481 0.703856 4.630292 0
M  V30 4 C 0.446552 0.260044 2.326917 0
M  V30 5 N 0.977142 -0.432046 1.306313 0
M  V30 6 C 0.547840 0.061672 0.140503 0
M  V30 7 C 0.912300 -0.434278 -1.178267 0
M  V30 8 C 0.378339 0.191972 -2.261114 0
M  V30 9 C 0.829715 -0.411027 -3.556835 0
M  V30 10 S 1.984080 -1.826542 -3.067413 0
M  V30 11 C 1.801379 -1.543202 -1.363383 0
M  V30 12 O -0.227655 1.034733 0.475437 0
M  V30 13 C -0.341130 1.218091 1.756143 0
M  V30 14 N -1.116148 2.201602 2.422890 0
M  V30 15 H 2.197890 -1.016991 4.962787 0
M  V30 16 H 1.737469 -2.007251 3.780646 0
M  V30 17 H -0.291349 1.020257 -2.332143 0
M  V30 18 H 0.406171 0.080836 -4.562573 0
M  V30 19 H 2.255450 -2.080698 -0.591057 0
M  V30 20 H -0.816098 3.203127 2.436102 0
M  V30 21 H -2.023688 2.103003 2.958220 0
M  V30 END ATOM
M  V30 BEGIN BOND
M  V30 1 1 1 2
M  V30 2 2 2 3
M  V30 3 1 2 4
M  V30 4 1 4 5
M  V30 5 2 5 6
M  V30 6 1 6 7
M  V30 7 1 7 8
M  V30 8 2 8 9
M  V30 9 1 9 10
M  V30 10 1 10 11
M  V30 11 1 6 12
M  V30 12 1 12 13
M  V30 13 1 13 14
M  V30 14 2 13 4
M  V30 15 2 11 7
M  V30 16 1 1 15
M  V30 17 1 1 16
M  V30 18 1 8 17
M  V30 19 1 9 18
M  V30 20 1 11 19
M  V30 21 1 14 20
M  V30 22 1 14 21
M  V30 END BOND
M  V30 END CTAB
M  END
>  <Dataset>  (543) 
ChEMBL_Kinases

>  <Ligand_Instance>  (543) 
nan

>  <PDB_ID>  (543) 
nan

>  <Standardized_SMILES>  (543) 
NC(=O)c1nc(-c2ccsc2)oc1N

>  <Name>  (543) 
nan

>  <Pocket>  (543) 
nan

>  <ATP_Site>  (543) 
nan

>  <Peripheral>  (543) 
nan

>  <Num_H_Atoms_ProtBoundConf>  (543) 
nan

>  <Num_Resolved_Atoms>  (543) 
nan

>  <Num_Not_Resolved_Atoms>  (543) 
nan

$$$$
CHEMBL3702265
     RDKit          3D

  0  0  0  0  0  0  0  0  0  0999 V3000
M  V30 BEGIN CTAB
M  V30 COUNTS 45 47 0 0 0
M  V30 BEGIN ATOM
M  V30 1 C 0.840133 -1.234738 1.218471 0
M  V30 2 C 1.396610 0.028765 1.758635 0
M  V30 3 C 2.743152 0.083913 1.795593 0
M  V30 4 C 3.916688 -0.667924 1.475807 0
M  V30 5 O 5.059942 -0.137499 1.722170 0
M  V30 6 N 4.121638 -1.948786 0.911299 0
M  V30 7 C 5.273779 -2.729202 0.574494 0
M  V30 8 C 6.186899 -2.137728 -0.451649 0
M  V30 9 O 6.703822 -0.919878 -0.051312 0
M  V30 10 S 3.081489 1.691623 2.503738 0
M  V30 11 C 1.397327 2.218621 2.718182 0
M  V30 12 N 0.780954 3.311966 3.192633 0
M  V30 13 C -0.558124 3.418794 3.226885 0
M  V30 14 N -1.244810 2.371888 2.760410 0
M  V30 15 C -0.647766 1.286271 2.289196 0
M  V30 16 N -1.684037 0.402375 1.886325 0
M  V30 17 C -2.291117 0.523365 0.579924 0
M  V30 18 C -1.791538 1.536077 -0.210900 0
M  V30 19 C -2.355425 1.671220 -1.460057 0
M  V30 20 C -3.361929 0.814909 -1.850052 0
M  V30 21 N -3.788423 -0.145129 -1.014891 0
M  V30 22 C -3.294437 -0.344815 0.215264 0
M  V30 23 O -3.664117 -1.289341 1.128448 0
M  V30 24 C -4.638841 -2.268346 1.001820 0
M  V30 25 C -4.454292 -3.248277 -0.104447 0
M  V30 26 F -4.419909 -2.669636 -1.351655 0
M  V30 27 F -3.372167 -4.083733 0.128467 0
M  V30 28 C 0.709531 1.107805 2.224247 0
M  V30 29 H -0.260381 -1.322073 1.284135 0
M  V30 30 H 1.200930 -2.118413 1.817560 0
M  V30 31 H 1.129921 -1.419260 0.179460 0
M  V30 32 H 3.191217 -2.417133 0.691138 0
M  V30 33 H 5.848162 -2.988327 1.520751 0
M  V30 34 H 4.924424 -3.726203 0.171686 0
M  V30 35 H 7.029304 -2.845636 -0.673817 0
M  V30 36 H 5.676761 -1.960403 -1.426376 0
M  V30 37 H 6.817695 -0.259669 -0.761200 0
M  V30 38 H -0.848492 4.371569 3.642919 0
M  V30 39 H -1.988284 -0.337318 2.584024 0
M  V30 40 H -1.010930 2.190849 0.105786 0
M  V30 41 H -2.016292 2.443652 -2.138813 0
M  V30 42 H -3.850146 0.863252 -2.814692 0
M  V30 43 H -4.682718 -2.840990 1.960780 0
M  V30 44 H -5.613735 -1.747915 0.865134 0
M  V30 45 H -5.363633 -3.901549 -0.105374 0
M  V30 END ATOM
M  V30 BEGIN BOND
M  V30 1 1 1 2
M  V30 2 2 2 3
M  V30 3 1 3 4
M  V30 4 2 4 5
M  V30 5 1 4 6
M  V30 6 1 6 7
M  V30 7 1 7 8
M  V30 8 1 8 9
M  V30 9 1 3 10
M  V30 10 1 10 11
M  V30 11 2 11 12
M  V30 12 1 12 13
M  V30 13 2 13 14
M  V30 14 1 14 15
M  V30 15 1 15 16
M  V30 16 1 16 17
M  V30 17 2 17 18
M  V30 18 1 18 19
M  V30 19 2 19 20
M  V30 20 1 20 21
M  V30 21 2 21 22
M  V30 22 1 22 23
M  V30 23 1 23 24
M  V30 24 1 24 25
M  V30 25 1 25 26
M  V30 26 1 25 27
M  V30 27 2 15 28
M  V30 28 1 28 2
M  V30 29 1 28 11
M  V30 30 1 22 17
M  V30 31 1 1 29
M  V30 32 1 1 30
M  V30 33 1 1 31
M  V30 34 1 6 32
M  V30 35 1 7 33
M  V30 36 1 7 34
M  V30 37 1 8 35
M  V30 38 1 8 36
M  V30 39 1 9 37
M  V30 40 1 13 38
M  V30 41 1 16 39
M  V30 42 1 18 40
M  V30 43 1 19 41
M  V30 44 1 20 42
M  V30 45 1 24 43
M  V30 46 1 24 44
M  V30 47 1 25 45
M  V30 END BOND
M  V30 END CTAB
M  END
>  <Dataset>  (544) 
ChEMBL_Kinases

>  <Ligand_Instance>  (544) 
nan

>  <PDB_ID>  (544) 
nan

>  <Standardized_SMILES>  (544) 
Cc1c(C(=O)NCCO)sc2ncnc(Nc3cccnc3OCC(F)F)c12

>  <Name>  (544) 
nan

>  <Pocket>  (544) 
nan

>  <ATP_Site>  (544) 
nan

>  <Peripheral>  (544) 
nan

>  <Num_H_Atoms_ProtBoundConf>  (544) 
nan

>  <Num_Resolved_Atoms>  (544) 
nan

>  <Num_Not_Resolved_Atoms>  (544) 
nan

$$$$
CHEMBL3793245
     RDKit          3D

  0  0  0  0  0  0  0  0  0  0999 V3000
M  V30 BEGIN CTAB
M  V30 COUNTS 39 41 0 0 0
M  V30 BEGIN ATOM
M  V30 1 N -0.167461 -3.750312 3.889216 0
M  V30 2 C 0.516675 -2.616357 3.251011 0
M  V30 3 C 0.197487 -2.659899 1.779484 0 CFG=2
M  V30 4 C 0.829276 -1.563426 1.010560 0
M  V30 5 O -0.139760 -0.950890 0.443837 0
M  V30 6 N 2.165226 -1.144985 0.830720 0
M  V30 7 C 2.137230 0.002138 -0.045196 0
M  V30 8 C 2.215010 -0.054911 -1.421798 0
M  V30 9 C 2.177915 1.105760 -2.144526 0
M  V30 10 C 2.062692 2.283261 -1.435253 0
M  V30 11 C 2.022611 3.477340 -2.142957 0
M  V30 12 N 1.912838 4.693617 -1.582018 0
M  V30 13 C 1.834485 4.783435 -0.234670 0
M  V30 14 C 1.868057 3.651341 0.518629 0
M  V30 15 C 1.980571 2.410744 -0.063649 0
M  V30 16 C 2.021698 1.203049 0.641340 0
M  V30 17 C -1.266683 -2.527926 1.527016 0
M  V30 18 C -2.035159 -3.515179 0.944501 0
M  V30 19 C -3.388013 -3.339955 0.733949 0
M  V30 20 C -4.030484 -2.160306 1.100976 0
M  V30 21 C -3.234126 -1.176955 1.687706 0
M  V30 22 C -1.869199 -1.339478 1.906215 0
M  V30 23 H -1.060530 -3.923443 3.354011 0
M  V30 24 H 0.415756 -4.601654 3.761944 0
M  V30 25 H 0.167011 -1.692899 3.745448 0
M  V30 26 H 1.596418 -2.705761 3.376780 0
M  V30 27 H 0.494543 -3.663970 1.414439 0
M  V30 28 H 2.799337 -1.783212 1.382205 0
M  V30 29 H 2.302089 -1.016561 -1.870417 0
M  V30 30 H 2.235890 1.107853 -3.224823 0
M  V30 31 H 2.076325 3.554198 -3.235157 0
M  V30 32 H 1.744039 5.708555 0.321234 0
M  V30 33 H 1.811993 3.616770 1.603178 0
M  V30 34 H 1.958838 1.279079 1.717596 0
M  V30 35 H -1.535536 -4.429103 0.660535 0
M  V30 36 H -3.964223 -4.124054 0.278495 0
M  V30 37 H -5.090319 -2.010584 0.941327 0
M  V30 38 H -3.777323 -0.263672 1.962219 0
M  V30 39 H -1.398231 -0.502452 2.362006 0
M  V30 END ATOM
M  V30 BEGIN BOND
M  V30 1 1 1 2
M  V30 2 1 2 3
M  V30 3 1 3 4
M  V30 4 2 4 5
M  V30 5 1 4 6
M  V30 6 1 6 7
M  V30 7 2 7 8
M  V30 8 1 8 9
M  V30 9 2 9 10
M  V30 10 1 10 11
M  V30 11 2 11 12
M  V30 12 1 12 13
M  V30 13 2 13 14
M  V30 14 1 14 15
M  V30 15 2 15 16
M  V30 16 1 3 17
M  V30 17 2 17 18
M  V30 18 1 18 19
M  V30 19 2 19 20
M  V30 20 1 20 21
M  V30 21 2 21 22
M  V30 22 1 16 7
M  V30 23 1 22 17
M  V30 24 1 15 10
M  V30 25 1 1 23
M  V30 26 1 1 24
M  V30 27 1 2 25
M  V30 28 1 2 26
M  V30 29 1 3 27 CFG=3
M  V30 30 1 6 28
M  V30 31 1 8 29
M  V30 32 1 9 30
M  V30 33 1 11 31
M  V30 34 1 13 32
M  V30 35 1 14 33
M  V30 36 1 16 34
M  V30 37 1 18 35
M  V30 38 1 19 36
M  V30 39 1 20 37
M  V30 40 1 21 38
M  V30 41 1 22 39
M  V30 END BOND
M  V30 END CTAB
M  END
>  <Dataset>  (545) 
ChEMBL_Kinases

>  <Ligand_Instance>  (545) 
nan

>  <PDB_ID>  (545) 
nan

>  <Standardized_SMILES>  (545) 
NC[C@H](C(=O)Nc1ccc2cnccc2c1)c1ccccc1

>  <Name>  (545) 
nan

>  <Pocket>  (545) 
nan

>  <ATP_Site>  (545) 
nan

>  <Peripheral>  (545) 
nan

>  <Num_H_Atoms_ProtBoundConf>  (545) 
nan

>  <Num_Resolved_Atoms>  (545) 
nan

>  <Num_Not_Resolved_Atoms>  (545) 
nan

$$$$
CHEMBL3793243
     RDKit          3D

  0  0  0  0  0  0  0  0  0  0999 V3000
M  V30 BEGIN CTAB
M  V30 COUNTS 57 59 0 0 0
M  V30 BEGIN ATOM
M  V30 1 C 2.266688 -0.511314 3.501117 0
M  V30 2 C 3.350923 -1.298548 2.828118 0
M  V30 3 C 4.422816 -1.531277 3.904454 0
M  V30 4 C 2.733954 -2.618669 2.412496 0
M  V30 5 C 3.931909 -0.678491 1.629639 0
M  V30 6 O 3.049991 0.039807 2.114302 0
M  V30 7 O 4.468242 -0.115542 0.530872 0
M  V30 8 C 4.188705 1.088757 -0.102305 0
M  V30 9 C 2.795728 1.223922 -0.590853 0
M  V30 10 C 1.714304 1.799423 0.040154 0
M  V30 11 C 0.465886 1.840470 -0.540547 0
M  V30 12 C 0.223159 1.308393 -1.788631 0
M  V30 13 C -1.161145 1.408305 -2.319410 0
M  V30 14 C -1.606580 2.810001 -2.556869 0
M  V30 15 N -2.980185 2.731944 -3.074836 0
M  V30 16 C -2.110663 0.642714 -1.469566 0
M  V30 17 O -3.036640 1.301806 -0.938777 0
M  V30 18 N -2.016696 -0.749097 -1.242823 0
M  V30 19 C -2.851084 -1.579836 -0.462970 0
M  V30 20 C -3.955478 -1.194645 0.255903 0
M  V30 21 C -4.737961 -2.049050 1.002843 0
M  V30 22 C -4.421178 -3.382141 1.054351 0
M  V30 23 C -5.118766 -4.335493 1.760657 0
M  V30 24 N -4.785270 -5.622832 1.790414 0
M  V30 25 C -3.696349 -6.024563 1.086241 0
M  V30 26 C -2.944787 -5.120508 0.351223 0
M  V30 27 C -3.323261 -3.795079 0.346037 0
M  V30 28 C -2.566357 -2.908159 -0.389248 0
M  V30 29 C 1.269000 0.724317 -2.457502 0
M  V30 30 C 2.509156 0.695379 -1.855338 0
M  V30 31 H 1.363758 -0.337580 2.880807 0
M  V30 32 H 2.627968 0.450913 3.911094 0
M  V30 33 H 1.980575 -1.126235 4.411694 0
M  V30 34 H 5.142007 -0.703780 3.857526 0
M  V30 35 H 3.966920 -1.492857 4.919726 0
M  V30 36 H 4.885725 -2.526352 3.796292 0
M  V30 37 H 1.790277 -2.377950 1.888807 0
M  V30 38 H 2.448644 -3.134231 3.362551 0
M  V30 39 H 3.420383 -3.265337 1.867827 0
M  V30 40 H 4.481001 1.979548 0.520520 0
M  V30 41 H 4.858182 1.119948 -1.000089 0
M  V30 42 H 1.905454 2.221626 1.010195 0
M  V30 43 H -0.321163 2.308342 0.022342 0
M  V30 44 H -1.116937 0.915847 -3.331397 0
M  V30 45 H -1.001245 3.235254 -3.365821 0
M  V30 46 H -1.648639 3.430737 -1.650578 0
M  V30 47 H -3.292758 1.771251 -3.259355 0
M  V30 48 H -3.656292 3.251380 -2.482195 0
M  V30 49 H -1.201828 -1.159399 -1.745721 0
M  V30 50 H -4.260576 -0.174693 0.261982 0
M  V30 51 H -5.595102 -1.704440 1.551189 0
M  V30 52 H -5.989471 -3.952010 2.310612 0
M  V30 53 H -3.433783 -7.077815 1.118047 0
M  V30 54 H -2.089026 -5.489654 -0.190832 0
M  V30 55 H -1.695270 -3.300176 -0.937689 0
M  V30 56 H 1.096415 0.304333 -3.432785 0
M  V30 57 H 3.318735 0.219585 -2.422806 0
M  V30 END ATOM
M  V30 BEGIN BOND
M  V30 1 1 1 2
M  V30 2 1 2 3
M  V30 3 1 2 4
M  V30 4 1 2 5
M  V30 5 2 5 6
M  V30 6 1 5 7
M  V30 7 1 7 8
M  V30 8 1 8 9
M  V30 9 2 9 10
M  V30 10 1 10 11
M  V30 11 2 11 12
M  V30 12 1 12 13
M  V30 13 1 13 14
M  V30 14 1 14 15
M  V30 15 1 13 16
M  V30 16 2 16 17
M  V30 17 1 16 18
M  V30 18 1 18 19
M  V30 19 2 19 20
M  V30 20 1 20 21
M  V30 21 2 21 22
M  V30 22 1 22 23
M  V30 23 2 23 24
M  V30 24 1 24 25
M  V30 25 2 25 26
M  V30 26 1 26 27
M  V30 27 2 27 28
M  V30 28 1 12 29
M  V30 29 2 29 30
M  V30 30 1 30 9
M  V30 31 1 28 19
M  V30 32 1 27 22
M  V30 33 1 1 31
M  V30 34 1 1 32
M  V30 35 1 1 33
M  V30 36 1 3 34
M  V30 37 1 3 35
M  V30 38 1 3 36
M  V30 39 1 4 37
M  V30 40 1 4 38
M  V30 41 1 4 39
M  V30 42 1 8 40
M  V30 43 1 8 41
M  V30 44 1 10 42
M  V30 45 1 11 43
M  V30 46 1 13 44
M  V30 47 1 14 45
M  V30 48 1 14 46
M  V30 49 1 15 47
M  V30 50 1 15 48
M  V30 51 1 18 49
M  V30 52 1 20 50
M  V30 53 1 21 51
M  V30 54 1 23 52
M  V30 55 1 25 53
M  V30 56 1 26 54
M  V30 57 1 28 55
M  V30 58 1 29 56
M  V30 59 1 30 57
M  V30 END BOND
M  V30 END CTAB
M  END
>  <Dataset>  (546) 
ChEMBL_Kinases

>  <Ligand_Instance>  (546) 
nan

>  <PDB_ID>  (546) 
nan

>  <Standardized_SMILES>  (546) 
CC(C)(C)C(=O)OCc1ccc(C(CN)C(=O)Nc2ccc3cnccc3c2)cc1

>  <Name>  (546) 
nan

>  <Pocket>  (546) 
nan

>  <ATP_Site>  (546) 
nan

>  <Peripheral>  (546) 
nan

>  <Num_H_Atoms_ProtBoundConf>  (546) 
nan

>  <Num_Resolved_Atoms>  (546) 
nan

>  <Num_Not_Resolved_Atoms>  (546) 
nan

$$$$
CHEMBL3793235
     RDKit          3D

  0  0  0  0  0  0  0  0  0  0999 V3000
M  V30 BEGIN CTAB
M  V30 COUNTS 42 44 0 0 0
M  V30 BEGIN ATOM
M  V30 1 N 0.335858 -4.426963 3.217014 0
M  V30 2 C 1.128069 -3.364459 2.627071 0
M  V30 3 C 0.283137 -2.156525 2.303298 0
M  V30 4 C 1.167774 -1.125163 1.707631 0
M  V30 5 O 2.356878 -1.387581 1.429369 0
M  V30 6 N 0.716247 0.176871 1.432423 0
M  V30 7 C 1.392447 1.289621 0.874611 0
M  V30 8 C 0.715592 2.481011 0.702897 0
M  V30 9 C 1.302970 3.604906 0.168572 0
M  V30 10 C 2.604300 3.603952 -0.226374 0
M  V30 11 C 3.158969 4.749192 -0.757497 0
M  V30 12 N 4.463174 4.718288 -1.143804 0
M  V30 13 C 5.194984 3.575933 -1.004308 0
M  V30 14 C 4.631546 2.418160 -0.466557 0
M  V30 15 C 3.297206 2.439931 -0.068203 0
M  V30 16 C 2.687798 1.328885 0.468738 0
M  V30 17 C -0.895071 -2.475453 1.501003 0
M  V30 18 C -0.783680 -3.005528 0.233651 0
M  V30 19 C -1.873717 -3.319874 -0.554813 0
M  V30 20 C -3.157367 -3.103365 -0.076680 0
M  V30 21 C -4.426064 -3.387690 -0.798843 0
M  V30 22 F -5.337706 -2.372908 -0.493459 0
M  V30 23 F -4.180025 -3.343388 -2.159681 0
M  V30 24 F -5.018405 -4.560213 -0.437781 0
M  V30 25 C -3.310631 -2.571508 1.193607 0
M  V30 26 C -2.195052 -2.262645 1.969741 0
M  V30 27 H -0.000647 -5.030447 2.428814 0
M  V30 28 H 0.909840 -4.985780 3.887051 0
M  V30 29 H 1.919713 -3.135381 3.364037 0
M  V30 30 H 1.645213 -3.791116 1.744968 0
M  V30 31 H -0.064071 -1.746955 3.274402 0
M  V30 32 H -0.304674 0.320091 1.697191 0
M  V30 33 H -0.338238 2.556544 0.999043 0
M  V30 34 H 0.708206 4.500570 0.065581 0
M  V30 35 H 2.542027 5.641036 -0.852546 0
M  V30 36 H 6.234959 3.523548 -1.303564 0
M  V30 37 H 5.190545 1.501560 -0.346059 0
M  V30 38 H 3.306451 0.474432 0.551432 0
M  V30 39 H 0.178862 -3.206640 -0.217814 0
M  V30 40 H -1.809989 -3.733745 -1.545084 0
M  V30 41 H -4.245655 -2.354456 1.684155 0
M  V30 42 H -2.266881 -1.849295 2.958479 0
M  V30 END ATOM
M  V30 BEGIN BOND
M  V30 1 1 1 2
M  V30 2 1 2 3
M  V30 3 1 3 4
M  V30 4 2 4 5
M  V30 5 1 4 6
M  V30 6 1 6 7
M  V30 7 2 7 8
M  V30 8 1 8 9
M  V30 9 2 9 10
M  V30 10 1 10 11
M  V30 11 2 11 12
M  V30 12 1 12 13
M  V30 13 2 13 14
M  V30 14 1 14 15
M  V30 15 2 15 16
M  V30 16 1 3 17
M  V30 17 2 17 18
M  V30 18 1 18 19
M  V30 19 2 19 20
M  V30 20 1 20 21
M  V30 21 1 21 22
M  V30 22 1 21 23
M  V30 23 1 21 24
M  V30 24 1 20 25
M  V30 25 2 25 26
M  V30 26 1 16 7
M  V30 27 1 26 17
M  V30 28 1 15 10
M  V30 29 1 1 27
M  V30 30 1 1 28
M  V30 31 1 2 29
M  V30 32 1 2 30
M  V30 33 1 3 31
M  V30 34 1 6 32
M  V30 35 1 8 33
M  V30 36 1 9 34
M  V30 37 1 11 35
M  V30 38 1 13 36
M  V30 39 1 14 37
M  V30 40 1 16 38
M  V30 41 1 18 39
M  V30 42 1 19 40
M  V30 43 1 25 41
M  V30 44 1 26 42
M  V30 END BOND
M  V30 END CTAB
M  END
>  <Dataset>  (547) 
ChEMBL_Kinases

>  <Ligand_Instance>  (547) 
nan

>  <PDB_ID>  (547) 
nan

>  <Standardized_SMILES>  (547) 
NCC(C(=O)Nc1ccc2cnccc2c1)c1ccc(C(F)(F)F)cc1

>  <Name>  (547) 
nan

>  <Pocket>  (547) 
nan

>  <ATP_Site>  (547) 
nan

>  <Peripheral>  (547) 
nan

>  <Num_H_Atoms_ProtBoundConf>  (547) 
nan

>  <Num_Resolved_Atoms>  (547) 
nan

>  <Num_Not_Resolved_Atoms>  (547) 
nan

$$$$
CHEMBL5073457
     RDKit          3D

  0  0  0  0  0  0  0  0  0  0999 V3000
M  V30 BEGIN CTAB
M  V30 COUNTS 48 51 0 0 0
M  V30 BEGIN ATOM
M  V30 1 C 3.544633 -3.993126 0.405007 0
M  V30 2 C 2.095644 -3.714623 0.169138 0 CFG=2
M  V30 3 C 1.452826 -4.621948 -0.845074 0
M  V30 4 C 1.589730 -3.867779 -2.162906 0
M  V30 5 C 2.152727 -2.527088 -1.779510 0
M  V30 6 N 1.845371 -2.378214 -0.361391 0
M  V30 7 C 1.405732 -1.232162 0.355356 0
M  V30 8 C 2.136396 -0.064232 0.539302 0
M  V30 9 C 3.454526 0.238128 0.054248 0
M  V30 10 N 4.519422 0.493296 -0.357218 0
M  V30 11 C 1.341711 0.805712 1.302246 0
M  V30 12 C 1.462856 2.083707 1.801955 0
M  V30 13 N 2.690189 2.774041 1.556976 0
M  V30 14 N 0.459160 2.660655 2.502536 0
M  V30 15 C -0.697754 2.046003 2.752939 0
M  V30 16 N -1.830240 2.613057 3.464719 0
M  V30 17 C -3.059880 2.149939 2.820396 0
M  V30 18 C -4.126338 1.332062 3.059576 0
M  V30 19 C -4.921804 1.333087 1.942128 0
M  V30 20 N -4.368809 2.133766 1.021395 0
M  V30 21 C -4.682376 2.561673 -0.338884 0
M  V30 22 N -3.272765 2.608949 1.554156 0
M  V30 23 C -0.744963 0.769951 2.227274 0
M  V30 24 C 0.201861 0.071819 1.503175 0
M  V30 25 N 0.197813 -1.149623 0.957941 0
M  V30 26 C -0.921792 -2.050238 1.098445 0
M  V30 27 H 4.128636 -4.198964 -0.499564 0
M  V30 28 H 4.002300 -3.076903 0.882511 0
M  V30 29 H 3.618040 -4.808935 1.145723 0
M  V30 30 H 1.568914 -3.748220 1.161692 0
M  V30 31 H 1.982890 -5.591553 -0.855927 0
M  V30 32 H 0.367010 -4.788297 -0.655943 0
M  V30 33 H 2.272855 -4.454703 -2.825703 0
M  V30 34 H 0.584386 -3.792137 -2.665608 0
M  V30 35 H 1.746012 -1.699815 -2.380665 0
M  V30 36 H 3.274433 -2.611041 -1.836007 0
M  V30 37 H 3.317752 3.364442 2.189195 0
M  V30 38 H 3.208319 2.816008 0.650751 0
M  V30 39 H -1.691255 3.232019 4.299946 0
M  V30 40 H -4.190898 0.844740 4.017382 0
M  V30 41 H -5.833979 0.803007 1.752502 0
M  V30 42 H -4.664668 3.669167 -0.366493 0
M  V30 43 H -5.574291 2.084133 -0.730610 0
M  V30 44 H -3.845583 2.254813 -1.030226 0
M  V30 45 H -1.696618 0.262042 2.457876 0
M  V30 46 H -1.227951 -2.017906 2.194163 0
M  V30 47 H -0.689302 -3.076349 0.784864 0
M  V30 48 H -1.836853 -1.709572 0.560942 0
M  V30 END ATOM
M  V30 BEGIN BOND
M  V30 1 1 1 2
M  V30 2 1 2 3
M  V30 3 1 3 4
M  V30 4 1 4 5
M  V30 5 1 5 6
M  V30 6 1 6 7
M  V30 7 2 7 8
M  V30 8 1 8 9
M  V30 9 3 9 10
M  V30 10 1 8 11
M  V30 11 2 11 12
M  V30 12 1 12 13
M  V30 13 1 12 14
M  V30 14 2 14 15
M  V30 15 1 15 16
M  V30 16 1 16 17
M  V30 17 1 17 18
M  V30 18 2 18 19
M  V30 19 1 19 20
M  V30 20 1 20 21
M  V30 21 1 20 22
M  V30 22 1 15 23
M  V30 23 2 23 24
M  V30 24 1 24 25
M  V30 25 1 25 26
M  V30 26 1 6 2
M  V30 27 1 25 7
M  V30 28 1 24 11
M  V30 29 2 22 17
M  V30 30 1 1 27
M  V30 31 1 1 28
M  V30 32 1 1 29
M  V30 33 1 2 30 CFG=1
M  V30 34 1 3 31
M  V30 35 1 3 32
M  V30 36 1 4 33
M  V30 37 1 4 34
M  V30 38 1 5 35
M  V30 39 1 5 36
M  V30 40 1 13 37
M  V30 41 1 13 38
M  V30 42 1 16 39
M  V30 43 1 18 40
M  V30 44 1 19 41
M  V30 45 1 21 42
M  V30 46 1 21 43
M  V30 47 1 21 44
M  V30 48 1 23 45
M  V30 49 1 26 46
M  V30 50 1 26 47
M  V30 51 1 26 48
M  V30 END BOND
M  V30 END CTAB
M  END
>  <Dataset>  (548) 
ChEMBL_Kinases

>  <Ligand_Instance>  (548) 
nan

>  <PDB_ID>  (548) 
nan

>  <Standardized_SMILES>  (548) 
C[C@@H]1CCCN1c1c(C#N)c2c(N)nc(Nc3ccn(C)n3)cc2n1C

>  <Name>  (548) 
nan

>  <Pocket>  (548) 
nan

>  <ATP_Site>  (548) 
nan

>  <Peripheral>  (548) 
nan

>  <Num_H_Atoms_ProtBoundConf>  (548) 
nan

>  <Num_Resolved_Atoms>  (548) 
nan

>  <Num_Not_Resolved_Atoms>  (548) 
nan

$$$$
CHEMBL379322
     RDKit          3D

  0  0  0  0  0  0  0  0  0  0999 V3000
M  V30 BEGIN CTAB
M  V30 COUNTS 42 46 0 0 0
M  V30 BEGIN ATOM
M  V30 1 C 2.730143 -4.531762 4.164130 0
M  V30 2 C 3.901081 -4.103286 3.359448 0
M  V30 3 O 5.047742 -4.576986 3.574771 0
M  V30 4 C 3.774366 -3.120187 2.290295 0
M  V30 5 C 4.892310 -2.757495 1.575154 0
M  V30 6 C 4.793874 -1.830448 0.561163 0
M  V30 7 C 3.539927 -1.309148 0.320608 0
M  V30 8 C 2.371507 -1.642829 1.016658 0
M  V30 9 C 1.152010 -0.960643 0.606401 0
M  V30 10 C 1.326273 0.430750 0.585158 0
M  V30 11 C 0.262447 1.242233 0.238389 0
M  V30 12 N 0.157551 2.601708 0.139093 0
M  V30 13 C -1.113656 2.830309 -0.237239 0
M  V30 14 C -1.666425 4.087330 -0.459624 0
M  V30 15 C -2.985789 4.210728 -0.844199 0
M  V30 16 C -3.740474 3.040986 -1.001146 0
M  V30 17 O -5.068199 3.159704 -1.387877 0
M  V30 18 C -3.119262 1.837301 -0.761843 0
M  V30 19 C -1.823815 1.659855 -0.381390 0
M  V30 20 C -0.945794 0.662227 -0.078754 0
M  V30 21 C -1.131866 -0.684619 -0.063711 0
M  V30 22 C -0.077650 -1.497438 0.280292 0
M  V30 23 C -0.423642 -2.908885 0.245113 0
M  V30 24 O 0.289754 -3.911478 0.497270 0
M  V30 25 N -1.807249 -2.913476 -0.155579 0
M  V30 26 C -2.225514 -1.571175 -0.339224 0
M  V30 27 O -3.387521 -1.402708 -0.683683 0
M  V30 28 C 2.539173 -2.574856 2.017913 0
M  V30 29 H 3.057158 -4.927222 5.167115 0
M  V30 30 H 2.152365 -5.356079 3.700154 0
M  V30 31 H 2.022305 -3.683213 4.377104 0
M  V30 32 H 5.883359 -3.166533 1.761721 0
M  V30 33 H 5.644702 -1.516099 -0.025884 0
M  V30 34 H 3.486796 -0.578599 -0.485267 0
M  V30 35 H 2.248686 0.946413 0.823401 0
M  V30 36 H 0.927425 3.291754 0.324791 0
M  V30 37 H -1.117673 4.998141 -0.348583 0
M  V30 38 H -3.424025 5.176367 -1.018941 0
M  V30 39 H -5.849190 3.207339 -0.723801 0
M  V30 40 H -3.760856 1.006932 -0.903322 0
M  V30 41 H -2.312625 -3.827134 -0.259502 0
M  V30 42 H 1.645160 -2.830327 2.565140 0
M  V30 END ATOM
M  V30 BEGIN BOND
M  V30 1 1 1 2
M  V30 2 2 2 3
M  V30 3 1 2 4
M  V30 4 2 4 5
M  V30 5 1 5 6
M  V30 6 2 6 7
M  V30 7 1 7 8
M  V30 8 1 8 9
M  V30 9 2 9 10
M  V30 10 1 10 11
M  V30 11 1 11 12
M  V30 12 1 12 13
M  V30 13 2 13 14
M  V30 14 1 14 15
M  V30 15 2 15 16
M  V30 16 1 16 17
M  V30 17 1 16 18
M  V30 18 2 18 19
M  V30 19 1 19 20
M  V30 20 1 20 21
M  V30 21 2 21 22
M  V30 22 1 22 23
M  V30 23 2 23 24
M  V30 24 1 23 25
M  V30 25 1 25 26
M  V30 26 2 26 27
M  V30 27 2 8 28
M  V30 28 1 28 4
M  V30 29 1 22 9
M  V30 30 2 20 11
M  V30 31 1 26 21
M  V30 32 1 19 13
M  V30 33 1 1 29
M  V30 34 1 1 30
M  V30 35 1 1 31
M  V30 36 1 5 32
M  V30 37 1 6 33
M  V30 38 1 7 34
M  V30 39 1 10 35
M  V30 40 1 12 36
M  V30 41 1 14 37
M  V30 42 1 15 38
M  V30 43 1 17 39
M  V30 44 1 18 40
M  V30 45 1 25 41
M  V30 46 1 28 42
M  V30 END BOND
M  V30 END CTAB
M  END
>  <Dataset>  (549) 
ChEMBL_Kinases

>  <Ligand_Instance>  (549) 
nan

>  <PDB_ID>  (549) 
nan

>  <Standardized_SMILES>  (549) 
CC(=O)c1cccc(-c2cc3[nH]c4ccc(O)cc4c3c3c2C(=O)NC3=O)c1

>  <Name>  (549) 
nan

>  <Pocket>  (549) 
nan

>  <ATP_Site>  (549) 
nan

>  <Peripheral>  (549) 
nan

>  <Num_H_Atoms_ProtBoundConf>  (549) 
nan

>  <Num_Resolved_Atoms>  (549) 
nan

>  <Num_Not_Resolved_Atoms>  (549) 
nan

$$$$
CHEMBL3793203
     RDKit          3D

  0  0  0  0  0  0  0  0  0  0999 V3000
M  V30 BEGIN CTAB
M  V30 COUNTS 42 44 0 0 0
M  V30 BEGIN ATOM
M  V30 1 N 0.846083 -4.154576 3.160556 0
M  V30 2 C 1.296371 -2.892936 2.575330 0
M  V30 3 C 0.148653 -1.977751 2.267778 0
M  V30 4 C 0.710108 -0.714711 1.673055 0
M  V30 5 O 0.592749 0.371020 2.314646 0
M  V30 6 N 1.384437 -0.555363 0.439559 0
M  V30 7 C 1.835169 0.741946 0.068304 0
M  V30 8 C 0.870101 1.424697 -0.649328 0
M  V30 9 C 1.088894 2.723664 -1.122067 0
M  V30 10 C 2.319110 3.276256 -0.829229 0
M  V30 11 C 2.652581 4.551269 -1.241687 0
M  V30 12 N 3.852339 5.109062 -0.964356 0
M  V30 13 C 4.793820 4.434086 -0.260367 0
M  V30 14 C 4.530314 3.137551 0.191890 0
M  V30 15 C 3.300465 2.619139 -0.115727 0
M  V30 16 C 3.050209 1.338516 0.335327 0
M  V30 17 C -0.897138 -2.555453 1.420354 0
M  V30 18 C -0.724085 -3.251203 0.254588 0
M  V30 19 C -1.720003 -3.777027 -0.527665 0
M  V30 20 C -3.028489 -3.609401 -0.135147 0
M  V30 21 C -3.302052 -2.921001 1.027860 0
M  V30 22 C -4.704207 -2.755472 1.425457 0
M  V30 23 F -5.386084 -2.035861 0.453809 0
M  V30 24 F -4.816840 -2.113585 2.646687 0
M  V30 25 F -5.280373 -4.026363 1.510937 0
M  V30 26 C -2.255707 -2.430111 1.747622 0
M  V30 27 H 1.134558 -4.967598 2.546684 0
M  V30 28 H 1.265454 -4.312293 4.102715 0
M  V30 29 H 1.906497 -2.366975 3.360677 0
M  V30 30 H 1.981651 -3.033260 1.725127 0
M  V30 31 H -0.347662 -1.716057 3.245850 0
M  V30 32 H 1.512604 -1.417813 -0.129697 0
M  V30 33 H -0.127379 1.048211 -0.918048 0
M  V30 34 H 0.351104 3.279067 -1.685311 0
M  V30 35 H 1.898441 5.109391 -1.813223 0
M  V30 36 H 5.732732 4.956182 -0.080734 0
M  V30 37 H 5.277090 2.620089 0.742458 0
M  V30 38 H 3.724733 0.710462 0.902847 0
M  V30 39 H 0.272490 -3.422842 -0.104064 0
M  V30 40 H -1.507471 -4.320986 -1.446313 0
M  V30 41 H -3.818108 -4.016325 -0.738872 0
M  V30 42 H -2.548269 -1.898193 2.653431 0
M  V30 END ATOM
M  V30 BEGIN BOND
M  V30 1 1 1 2
M  V30 2 1 2 3
M  V30 3 1 3 4
M  V30 4 2 4 5
M  V30 5 1 4 6
M  V30 6 1 6 7
M  V30 7 2 7 8
M  V30 8 1 8 9
M  V30 9 2 9 10
M  V30 10 1 10 11
M  V30 11 2 11 12
M  V30 12 1 12 13
M  V30 13 2 13 14
M  V30 14 1 14 15
M  V30 15 2 15 16
M  V30 16 1 3 17
M  V30 17 2 17 18
M  V30 18 1 18 19
M  V30 19 2 19 20
M  V30 20 1 20 21
M  V30 21 1 21 22
M  V30 22 1 22 23
M  V30 23 1 22 24
M  V30 24 1 22 25
M  V30 25 2 21 26
M  V30 26 1 16 7
M  V30 27 1 26 17
M  V30 28 1 15 10
M  V30 29 1 1 27
M  V30 30 1 1 28
M  V30 31 1 2 29
M  V30 32 1 2 30
M  V30 33 1 3 31
M  V30 34 1 6 32
M  V30 35 1 8 33
M  V30 36 1 9 34
M  V30 37 1 11 35
M  V30 38 1 13 36
M  V30 39 1 14 37
M  V30 40 1 16 38
M  V30 41 1 18 39
M  V30 42 1 19 40
M  V30 43 1 20 41
M  V30 44 1 26 42
M  V30 END BOND
M  V30 END CTAB
M  END
>  <Dataset>  (550) 
ChEMBL_Kinases

>  <Ligand_Instance>  (550) 
nan

>  <PDB_ID>  (550) 
nan

>  <Standardized_SMILES>  (550) 
NCC(C(=O)Nc1ccc2cnccc2c1)c1cccc(C(F)(F)F)c1

>  <Name>  (550) 
nan

>  <Pocket>  (550) 
nan

>  <ATP_Site>  (550) 
nan

>  <Peripheral>  (550) 
nan

>  <Num_H_Atoms_ProtBoundConf>  (550) 
nan

>  <Num_Resolved_Atoms>  (550) 
nan

>  <Num_Not_Resolved_Atoms>  (550) 
nan

$$$$
CHEMBL3793153
     RDKit          3D

  0  0  0  0  0  0  0  0  0  0999 V3000
M  V30 BEGIN CTAB
M  V30 COUNTS 43 45 0 0 0
M  V30 BEGIN ATOM
M  V30 1 C 1.336887 -5.904699 -1.371437 0
M  V30 2 O 2.312795 -5.377639 -0.523388 0
M  V30 3 C 2.567764 -4.061252 -0.264339 0
M  V30 4 C 3.582637 -3.752366 0.610160 0
M  V30 5 C 3.868664 -2.435056 0.895360 0
M  V30 6 C 3.126335 -1.444197 0.294161 0
M  V30 7 C 2.094234 -1.645047 -0.591250 0
M  V30 8 C 1.266022 -0.620361 -1.250217 0
M  V30 9 C 2.062665 0.470529 -1.877805 0
M  V30 10 N 2.895222 1.229773 -1.010949 0
M  V30 11 C 0.197126 -0.131886 -0.338668 0
M  V30 12 O -1.023615 -0.312432 -0.672067 0
M  V30 13 N 0.384938 0.523203 0.879123 0
M  V30 14 C -0.521576 1.034868 1.837342 0
M  V30 15 C -0.035350 1.648023 2.971745 0
M  V30 16 C -0.848594 2.170728 3.950596 0
M  V30 17 C -2.218325 2.096019 3.825037 0
M  V30 18 C -3.053345 2.612471 4.793335 0
M  V30 19 N -4.396720 2.524963 4.644429 0
M  V30 20 C -4.958685 1.943915 3.570434 0
M  V30 21 C -4.125633 1.415347 2.579623 0
M  V30 22 C -2.754469 1.491374 2.706907 0
M  V30 23 C -1.889056 0.986512 1.760676 0
M  V30 24 C 1.879454 -3.011369 -0.817600 0
M  V30 25 H 0.928549 -6.851821 -0.946763 0
M  V30 26 H 0.473015 -5.246261 -1.545655 0
M  V30 27 H 1.795374 -6.139863 -2.376208 0
M  V30 28 H 4.160956 -4.530849 1.078426 0
M  V30 29 H 4.664931 -2.217516 1.580707 0
M  V30 30 H 3.411876 -0.446105 0.560361 0
M  V30 31 H 0.740805 -1.175052 -2.092734 0
M  V30 32 H 2.753344 -0.034331 -2.616536 0
M  V30 33 H 1.438764 1.133908 -2.525951 0
M  V30 34 H 2.476299 2.063564 -0.592082 0
M  V30 35 H 3.786682 1.486073 -1.464374 0
M  V30 36 H 1.403652 0.640726 1.082716 0
M  V30 37 H 1.050650 1.737096 3.126548 0
M  V30 38 H -0.396464 2.637907 4.813845 0
M  V30 39 H -2.627618 3.094883 5.684682 0
M  V30 40 H -6.026468 1.852848 3.412121 0
M  V30 41 H -4.519330 0.930819 1.683873 0
M  V30 42 H -2.371206 0.537910 0.932067 0
M  V30 43 H 1.081779 -3.304737 -1.507461 0
M  V30 END ATOM
M  V30 BEGIN BOND
M  V30 1 1 1 2
M  V30 2 1 2 3
M  V30 3 2 3 4
M  V30 4 1 4 5
M  V30 5 2 5 6
M  V30 6 1 6 7
M  V30 7 1 7 8
M  V30 8 1 8 9
M  V30 9 1 9 10
M  V30 10 1 8 11
M  V30 11 2 11 12
M  V30 12 1 11 13
M  V30 13 1 13 14
M  V30 14 2 14 15
M  V30 15 1 15 16
M  V30 16 2 16 17
M  V30 17 1 17 18
M  V30 18 2 18 19
M  V30 19 1 19 20
M  V30 20 2 20 21
M  V30 21 1 21 22
M  V30 22 2 22 23
M  V30 23 2 7 24
M  V30 24 1 24 3
M  V30 25 1 23 14
M  V30 26 1 22 17
M  V30 27 1 1 25
M  V30 28 1 1 26
M  V30 29 1 1 27
M  V30 30 1 4 28
M  V30 31 1 5 29
M  V30 32 1 6 30
M  V30 33 1 8 31
M  V30 34 1 9 32
M  V30 35 1 9 33
M  V30 36 1 10 34
M  V30 37 1 10 35
M  V30 38 1 13 36
M  V30 39 1 15 37
M  V30 40 1 16 38
M  V30 41 1 18 39
M  V30 42 1 20 40
M  V30 43 1 21 41
M  V30 44 1 23 42
M  V30 45 1 24 43
M  V30 END BOND
M  V30 END CTAB
M  END
>  <Dataset>  (551) 
ChEMBL_Kinases

>  <Ligand_Instance>  (551) 
nan

>  <PDB_ID>  (551) 
nan

>  <Standardized_SMILES>  (551) 
COc1cccc(C(CN)C(=O)Nc2ccc3cnccc3c2)c1

>  <Name>  (551) 
nan

>  <Pocket>  (551) 
nan

>  <ATP_Site>  (551) 
nan

>  <Peripheral>  (551) 
nan

>  <Num_H_Atoms_ProtBoundConf>  (551) 
nan

>  <Num_Resolved_Atoms>  (551) 
nan

>  <Num_Not_Resolved_Atoms>  (551) 
nan

$$$$
CHEMBL3793029
     RDKit          3D

  0  0  0  0  0  0  0  0  0  0999 V3000
M  V30 BEGIN CTAB
M  V30 COUNTS 58 61 0 0 0
M  V30 BEGIN ATOM
M  V30 1 N 1.514354 -0.520455 5.358716 0
M  V30 2 C 0.417625 -1.041954 4.589798 0
M  V30 3 C -0.426672 0.135607 4.120066 0
M  V30 4 C 0.470850 0.968608 3.289903 0
M  V30 5 O 0.966831 2.110581 3.574856 0
M  V30 6 N 0.795435 0.383866 2.015583 0
M  V30 7 C 1.555173 0.681176 0.879121 0
M  V30 8 C 2.612413 0.009539 0.274762 0
M  V30 9 C 3.252430 0.541457 -0.820979 0
M  V30 10 C 2.896354 1.765500 -1.391593 0
M  V30 11 C 3.567147 2.268362 -2.471423 0
M  V30 12 N 3.196744 3.449612 -2.977015 0
M  V30 13 C 2.183638 4.179233 -2.466938 0
M  V30 14 C 1.501032 3.651958 -1.359493 0
M  V30 15 C 1.834292 2.433544 -0.788805 0
M  V30 16 C 1.185854 1.915756 0.303343 0
M  V30 17 C -1.535487 -0.314763 3.257491 0
M  V30 18 C -2.310653 -1.397052 3.618606 0
M  V30 19 C -3.297654 -1.923592 2.816486 0
M  V30 20 C -3.557255 -1.358569 1.562508 0
M  V30 21 C -4.442710 -1.832034 0.409579 0
M  V30 22 O -3.588179 -2.338520 -0.620084 0
M  V30 23 C -2.694444 -3.340446 -0.395878 0
M  V30 24 O -2.911726 -3.565613 0.788124 0
M  V30 25 C -1.632670 -4.232150 -0.912767 0
M  V30 26 C -0.642252 -3.563181 -1.791721 0
M  V30 27 C 0.070410 -4.517394 -2.540655 0
M  V30 28 C 1.048251 -4.193851 -3.450042 0
M  V30 29 C 1.371209 -2.894619 -3.670380 0
M  V30 30 C 0.707452 -1.905434 -2.962192 0
M  V30 31 C -0.285787 -2.261404 -2.038958 0
M  V30 32 C -2.796520 -0.237054 1.150251 0
M  V30 33 C -1.830744 0.221200 2.017408 0
M  V30 34 H 1.937238 0.351629 5.102828 0
M  V30 35 H 2.120871 -1.166582 5.846029 0
M  V30 36 H 0.794991 -1.658235 3.732294 0
M  V30 37 H -0.229307 -1.743337 5.210598 0
M  V30 38 H -0.836595 0.647117 4.994653 0
M  V30 39 H 0.426565 -0.560744 1.697509 0
M  V30 40 H 2.814891 -0.909674 0.760536 0
M  V30 41 H 4.061774 -0.011525 -1.275263 0
M  V30 42 H 4.393711 1.730487 -2.936148 0
M  V30 43 H 1.892845 5.137260 -2.883561 0
M  V30 44 H 0.673258 4.227050 -0.925119 0
M  V30 45 H 0.401627 2.545188 0.639601 0
M  V30 46 H -2.182641 -1.901427 4.555525 0
M  V30 47 H -3.942443 -2.750205 3.053070 0
M  V30 48 H -5.212944 -2.523712 0.714504 0
M  V30 49 H -4.883376 -0.924629 -0.012879 0
M  V30 50 H -2.039335 -5.141387 -1.347435 0
M  V30 51 H -1.062191 -4.610630 0.023214 0
M  V30 52 H -0.062790 -5.596684 -2.478625 0
M  V30 53 H 1.616631 -4.871220 -4.034036 0
M  V30 54 H 2.116481 -2.547730 -4.356770 0
M  V30 55 H 0.850202 -0.819738 -3.032274 0
M  V30 56 H -0.887734 -1.592725 -1.427042 0
M  V30 57 H -2.929573 0.270759 0.216361 0
M  V30 58 H -1.282290 1.104933 1.682017 0
M  V30 END ATOM
M  V30 BEGIN BOND
M  V30 1 1 1 2
M  V30 2 1 2 3
M  V30 3 1 3 4
M  V30 4 2 4 5
M  V30 5 1 4 6
M  V30 6 1 6 7
M  V30 7 2 7 8
M  V30 8 1 8 9
M  V30 9 2 9 10
M  V30 10 1 10 11
M  V30 11 2 11 12
M  V30 12 1 12 13
M  V30 13 2 13 14
M  V30 14 1 14 15
M  V30 15 2 15 16
M  V30 16 1 3 17
M  V30 17 2 17 18
M  V30 18 1 18 19
M  V30 19 2 19 20
M  V30 20 1 20 21
M  V30 21 1 21 22
M  V30 22 1 22 23
M  V30 23 2 23 24
M  V30 24 1 23 25
M  V30 25 1 25 26
M  V30 26 2 26 27
M  V30 27 1 27 28
M  V30 28 2 28 29
M  V30 29 1 29 30
M  V30 30 2 30 31
M  V30 31 1 20 32
M  V30 32 2 32 33
M  V30 33 1 16 7
M  V30 34 1 33 17
M  V30 35 1 15 10
M  V30 36 1 31 26
M  V30 37 1 1 34
M  V30 38 1 1 35
M  V30 39 1 2 36
M  V30 40 1 2 37
M  V30 41 1 3 38
M  V30 42 1 6 39
M  V30 43 1 8 40
M  V30 44 1 9 41
M  V30 45 1 11 42
M  V30 46 1 13 43
M  V30 47 1 14 44
M  V30 48 1 16 45
M  V30 49 1 18 46
M  V30 50 1 19 47
M  V30 51 1 21 48
M  V30 52 1 21 49
M  V30 53 1 25 50
M  V30 54 1 25 51
M  V30 55 1 27 52
M  V30 56 1 28 53
M  V30 57 1 29 54
M  V30 58 1 30 55
M  V30 59 1 31 56
M  V30 60 1 32 57
M  V30 61 1 33 58
M  V30 END BOND
M  V30 END CTAB
M  END
>  <Dataset>  (552) 
ChEMBL_Kinases

>  <Ligand_Instance>  (552) 
nan

>  <PDB_ID>  (552) 
nan

>  <Standardized_SMILES>  (552) 
NCC(C(=O)Nc1ccc2cnccc2c1)c1ccc(COC(=O)Cc2ccccc2)cc1

>  <Name>  (552) 
nan

>  <Pocket>  (552) 
nan

>  <ATP_Site>  (552) 
nan

>  <Peripheral>  (552) 
nan

>  <Num_H_Atoms_ProtBoundConf>  (552) 
nan

>  <Num_Resolved_Atoms>  (552) 
nan

>  <Num_Not_Resolved_Atoms>  (552) 
nan

$$$$
CHEMBL3793004
     RDKit          3D

  0  0  0  0  0  0  0  0  0  0999 V3000
M  V30 BEGIN CTAB
M  V30 COUNTS 39 41 0 0 0
M  V30 BEGIN ATOM
M  V30 1 N 0.447063 -4.436304 1.494923 0
M  V30 2 C 1.179575 -3.726978 2.504301 0
M  V30 3 C 0.839732 -2.250101 2.566100 0 CFG=1
M  V30 4 C 1.158586 -1.650044 1.253098 0
M  V30 5 O 1.669679 -2.346626 0.342393 0
M  V30 6 N 0.912239 -0.291243 0.955502 0
M  V30 7 C 1.148976 0.447336 -0.230488 0
M  V30 8 C 1.689472 -0.015384 -1.391238 0
M  V30 9 C 1.899887 0.742701 -2.518499 0
M  V30 10 C 1.550086 2.076802 -2.512066 0
M  V30 11 C 1.713579 2.934400 -3.581280 0
M  V30 12 N 1.359760 4.229892 -3.535956 0
M  V30 13 C 0.816913 4.723319 -2.390815 0
M  V30 14 C 0.631751 3.908908 -1.292797 0
M  V30 15 C 0.998901 2.578858 -1.350087 0
M  V30 16 C 0.804702 1.783074 -0.240508 0
M  V30 17 C -0.617006 -2.155009 2.898419 0
M  V30 18 C -1.674142 -2.565451 2.112074 0
M  V30 19 C -2.973284 -2.418038 2.546085 0
M  V30 20 C -3.273984 -1.863857 3.763730 0
M  V30 21 C -2.260442 -1.434296 4.594963 0
M  V30 22 C -0.978700 -1.596542 4.130719 0
M  V30 23 H 1.090765 -4.894303 0.803409 0
M  V30 24 H -0.201539 -5.151213 1.858270 0
M  V30 25 H 0.920643 -4.176322 3.473543 0
M  V30 26 H 2.279589 -3.880333 2.352943 0
M  V30 27 H 1.450211 -1.796314 3.388873 0
M  V30 28 H 0.481797 0.215452 1.780155 0
M  V30 29 H 1.982237 -1.027321 -1.471970 0
M  V30 30 H 2.333110 0.330777 -3.419328 0
M  V30 31 H 2.159768 2.436938 -4.456371 0
M  V30 32 H 0.550135 5.777334 -2.412228 0
M  V30 33 H 0.196221 4.345773 -0.403539 0
M  V30 34 H 0.362280 2.257420 0.640808 0
M  V30 35 H -1.407226 -2.995101 1.162520 0
M  V30 36 H -3.754513 -2.761858 1.878057 0
M  V30 37 H -4.292486 -1.745399 4.110185 0
M  V30 38 H -2.428854 -0.989203 5.566265 0
M  V30 39 H -0.178514 -1.262547 4.775945 0
M  V30 END ATOM
M  V30 BEGIN BOND
M  V30 1 1 1 2
M  V30 2 1 2 3
M  V30 3 1 3 4
M  V30 4 2 4 5
M  V30 5 1 4 6
M  V30 6 1 6 7
M  V30 7 2 7 8
M  V30 8 1 8 9
M  V30 9 2 9 10
M  V30 10 1 10 11
M  V30 11 2 11 12
M  V30 12 1 12 13
M  V30 13 2 13 14
M  V30 14 1 14 15
M  V30 15 2 15 16
M  V30 16 1 3 17
M  V30 17 2 17 18
M  V30 18 1 18 19
M  V30 19 2 19 20
M  V30 20 1 20 21
M  V30 21 2 21 22
M  V30 22 1 16 7
M  V30 23 1 22 17
M  V30 24 1 15 10
M  V30 25 1 1 23
M  V30 26 1 1 24
M  V30 27 1 2 25
M  V30 28 1 2 26
M  V30 29 1 3 27 CFG=1
M  V30 30 1 6 28
M  V30 31 1 8 29
M  V30 32 1 9 30
M  V30 33 1 11 31
M  V30 34 1 13 32
M  V30 35 1 14 33
M  V30 36 1 16 34
M  V30 37 1 18 35
M  V30 38 1 19 36
M  V30 39 1 20 37
M  V30 40 1 21 38
M  V30 41 1 22 39
M  V30 END BOND
M  V30 END CTAB
M  END
>  <Dataset>  (553) 
ChEMBL_Kinases

>  <Ligand_Instance>  (553) 
nan

>  <PDB_ID>  (553) 
nan

>  <Standardized_SMILES>  (553) 
NC[C@@H](C(=O)Nc1ccc2cnccc2c1)c1ccccc1

>  <Name>  (553) 
nan

>  <Pocket>  (553) 
nan

>  <ATP_Site>  (553) 
nan

>  <Peripheral>  (553) 
nan

>  <Num_H_Atoms_ProtBoundConf>  (553) 
nan

>  <Num_Resolved_Atoms>  (553) 
nan

>  <Num_Not_Resolved_Atoms>  (553) 
nan

$$$$
CHEMBL379300
     RDKit          3D

  0  0  0  0  0  0  0  0  0  0999 V3000
M  V30 BEGIN CTAB
M  V30 COUNTS 53 57 0 0 0
M  V30 BEGIN ATOM
M  V30 1 C 0.683227 -3.652806 2.967173 0
M  V30 2 C 2.142205 -3.443296 2.836367 0
M  V30 3 N 3.107697 -4.180068 3.378014 0
M  V30 4 N 4.262337 -3.655992 3.017022 0
M  V30 5 C 4.080723 -2.565968 2.232171 0
M  V30 6 C 4.965609 -1.704329 1.625719 0
M  V30 7 C 4.475873 -0.654966 0.866481 0
M  V30 8 C 3.111013 -0.474931 0.719457 0
M  V30 9 C 2.610092 0.649349 -0.091928 0
M  V30 10 C 3.271792 1.154206 -1.188711 0
M  V30 11 N 2.681064 2.203131 -1.839983 0
M  V30 12 C 1.484637 2.686324 -1.374537 0
M  V30 13 C 0.791502 2.182275 -0.252904 0
M  V30 14 O -0.335241 2.953616 -0.157115 0
M  V30 15 C -1.321569 2.807951 0.793984 0
M  V30 16 C -2.077787 1.528681 0.825657 0 CFG=1
M  V30 17 N -3.054774 1.653631 1.925462 0
M  V30 18 C -2.897976 1.316399 -0.428848 0
M  V30 19 C -3.633386 0.052766 -0.382390 0
M  V30 20 C -4.933375 -0.327192 -0.157796 0
M  V30 21 N -5.040402 -1.664005 -0.238629 0
M  V30 22 C -3.818015 -2.179665 -0.516168 0
M  V30 23 C -3.443413 -3.493153 -0.689740 0
M  V30 24 C -2.135544 -3.817632 -0.970184 0
M  V30 25 C -1.224449 -2.790555 -1.069836 0
M  V30 26 C -1.625711 -1.490959 -0.892084 0
M  V30 27 C -2.922040 -1.124308 -0.610599 0
M  V30 28 C 1.416661 1.135756 0.367642 0
M  V30 29 C 2.277257 -1.373296 1.352862 0
M  V30 30 C 2.712820 -2.424692 2.112731 0
M  V30 31 H 0.468686 -4.715316 3.121644 0
M  V30 32 H 0.198440 -3.332481 2.035969 0
M  V30 33 H 0.268632 -3.099712 3.836055 0
M  V30 34 H 5.210052 -3.998581 3.275559 0
M  V30 35 H 6.030196 -1.826721 1.727862 0
M  V30 36 H 5.160872 0.039150 0.377170 0
M  V30 37 H 4.206723 0.703151 -1.473014 0
M  V30 38 H 1.251517 3.508188 -2.074391 0
M  V30 39 H -2.019757 3.686010 0.704118 0
M  V30 40 H -0.881418 2.935336 1.832403 0
M  V30 41 H -1.475136 0.651781 1.096701 0
M  V30 42 H -3.505141 0.706591 2.087843 0
M  V30 43 H -2.511088 1.842753 2.804535 0
M  V30 44 H -2.284474 1.398921 -1.353157 0
M  V30 45 H -3.634668 2.159162 -0.452087 0
M  V30 46 H -5.690130 0.428953 0.047286 0
M  V30 47 H -5.924602 -2.209602 -0.107786 0
M  V30 48 H -4.119216 -4.335066 -0.621631 0
M  V30 49 H -1.723189 -4.803497 -1.126476 0
M  V30 50 H -0.182600 -2.968040 -1.287200 0
M  V30 51 H -0.895103 -0.697304 -0.974445 0
M  V30 52 H 0.832306 0.829903 1.199342 0
M  V30 53 H 1.194338 -1.223829 1.232010 0
M  V30 END ATOM
M  V30 BEGIN BOND
M  V30 1 1 1 2
M  V30 2 2 2 3
M  V30 3 1 3 4
M  V30 4 1 4 5
M  V30 5 2 5 6
M  V30 6 1 6 7
M  V30 7 2 7 8
M  V30 8 1 8 9
M  V30 9 2 9 10
M  V30 10 1 10 11
M  V30 11 2 11 12
M  V30 12 1 12 13
M  V30 13 1 13 14
M  V30 14 1 14 15
M  V30 15 1 15 16
M  V30 16 1 16 17
M  V30 17 1 16 18
M  V30 18 1 18 19
M  V30 19 2 19 20
M  V30 20 1 20 21
M  V30 21 1 21 22
M  V30 22 2 22 23
M  V30 23 1 23 24
M  V30 24 2 24 25
M  V30 25 1 25 26
M  V30 26 2 26 27
M  V30 27 2 13 28
M  V30 28 1 8 29
M  V30 29 2 29 30
M  V30 30 1 30 2
M  V30 31 1 30 5
M  V30 32 1 28 9
M  V30 33 1 27 19
M  V30 34 1 27 22
M  V30 35 1 1 31
M  V30 36 1 1 32
M  V30 37 1 1 33
M  V30 38 1 4 34
M  V30 39 1 6 35
M  V30 40 1 7 36
M  V30 41 1 10 37
M  V30 42 1 12 38
M  V30 43 1 15 39
M  V30 44 1 15 40
M  V30 45 1 16 41 CFG=1
M  V30 46 1 17 42
M  V30 47 1 17 43
M  V30 48 1 18 44
M  V30 49 1 18 45
M  V30 50 1 20 46
M  V30 51 1 21 47
M  V30 52 1 23 48
M  V30 53 1 24 49
M  V30 54 1 25 50
M  V30 55 1 26 51
M  V30 56 1 28 52
M  V30 57 1 29 53
M  V30 END BOND
M  V30 END CTAB
M  END
>  <Dataset>  (554) 
ChEMBL_Kinases

>  <Ligand_Instance>  (554) 
nan

>  <PDB_ID>  (554) 
nan

>  <Standardized_SMILES>  (554) 
Cc1n[nH]c2ccc(-c3cncc(OC[C@@H](N)Cc4c[nH]c5ccccc45)c3)cc12

>  <Name>  (554) 
A-443654

>  <Pocket>  (554) 
nan

>  <ATP_Site>  (554) 
nan

>  <Peripheral>  (554) 
nan

>  <Num_H_Atoms_ProtBoundConf>  (554) 
nan

>  <Num_Resolved_Atoms>  (554) 
nan

>  <Num_Not_Resolved_Atoms>  (554) 
nan

$$$$
CHEMBL3792988
     RDKit          3D

  0  0  0  0  0  0  0  0  0  0999 V3000
M  V30 BEGIN CTAB
M  V30 COUNTS 55 58 0 0 0
M  V30 BEGIN ATOM
M  V30 1 C 7.071137 -3.582106 2.040130 0
M  V30 2 O 6.586794 -2.251573 2.076408 0
M  V30 3 C 5.721521 -1.851848 1.085300 0
M  V30 4 O 5.374064 -2.654059 0.173158 0
M  V30 5 C 5.201260 -0.488488 1.089160 0
M  V30 6 C 5.566837 0.414839 2.080453 0
M  V30 7 C 5.086851 1.714477 2.106375 0
M  V30 8 C 4.205743 2.138401 1.106271 0
M  V30 9 C 3.852005 1.227916 0.127636 0
M  V30 10 N 2.941019 1.712595 -0.881676 0
M  V30 11 C 1.631003 1.467363 -0.453524 0
M  V30 12 O 1.641776 0.903631 0.671476 0
M  V30 13 C 0.360883 1.758865 -1.094102 0
M  V30 14 C -0.796680 1.401566 -0.435290 0
M  V30 15 C -2.042125 1.636767 -0.962356 0
M  V30 16 N -3.188306 1.237179 -0.218963 0
M  V30 17 C -3.723982 0.032253 -0.484737 0
M  V30 18 C -4.810980 -0.136579 0.346854 0
M  V30 19 C -5.861353 -1.135315 0.644534 0
M  V30 20 C -5.709996 -2.347079 -0.210415 0
M  V30 21 N -4.439087 -3.013631 -0.021323 0
M  V30 22 C -4.023875 -3.537590 1.231353 0
M  V30 23 N -2.821737 -4.152377 1.374259 0
M  V30 24 C -2.355738 -4.669318 2.499559 0
M  V30 25 C -3.122281 -4.598273 3.640970 0
M  V30 26 C -4.338257 -3.974378 3.488644 0
M  V30 27 N -4.789976 -3.456423 2.333122 0
M  V30 28 N -4.900935 0.979144 1.095945 0
M  V30 29 N -3.911281 1.793388 0.736669 0
M  V30 30 C -2.213811 2.246827 -2.187145 0
M  V30 31 C -1.075745 2.617205 -2.872961 0
M  V30 32 C 0.154520 2.363142 -2.308987 0
M  V30 33 O 1.254888 2.756219 -3.041872 0
M  V30 34 C 4.329504 -0.067314 0.100605 0
M  V30 35 H 6.344351 -4.300714 2.513908 0
M  V30 36 H 7.121141 -3.908125 0.978278 0
M  V30 37 H 8.060033 -3.673784 2.541050 0
M  V30 38 H 6.252314 0.022265 2.824973 0
M  V30 39 H 5.401778 2.386783 2.903809 0
M  V30 40 H 3.817259 3.148963 1.105178 0
M  V30 41 H 3.057316 2.179179 -1.807066 0
M  V30 42 H -0.739113 0.912871 0.542083 0
M  V30 43 H -3.511379 -0.775698 -1.155128 0
M  V30 44 H -5.830800 -1.414915 1.725540 0
M  V30 45 H -6.878808 -0.718082 0.488085 0
M  V30 46 H -6.556270 -3.040550 0.055823 0
M  V30 47 H -5.843705 -2.033586 -1.256258 0
M  V30 48 H -3.789489 -3.123391 -0.833702 0
M  V30 49 H -1.388353 -5.138273 2.515434 0
M  V30 50 H -2.762781 -5.012704 4.569069 0
M  V30 51 H -4.975419 -3.897505 4.369016 0
M  V30 52 H -3.219955 2.404563 -2.548529 0
M  V30 53 H -1.162521 3.095649 -3.831302 0
M  V30 54 H 1.670989 2.206455 -3.782716 0
M  V30 55 H 4.024836 -0.745765 -0.685829 0
M  V30 END ATOM
M  V30 BEGIN BOND
M  V30 1 1 1 2
M  V30 2 1 2 3
M  V30 3 2 3 4
M  V30 4 1 3 5
M  V30 5 2 5 6
M  V30 6 1 6 7
M  V30 7 2 7 8
M  V30 8 1 8 9
M  V30 9 1 9 10
M  V30 10 1 10 11
M  V30 11 2 11 12
M  V30 12 1 11 13
M  V30 13 2 13 14
M  V30 14 1 14 15
M  V30 15 1 15 16
M  V30 16 1 16 17
M  V30 17 2 17 18
M  V30 18 1 18 19
M  V30 19 1 19 20
M  V30 20 1 20 21
M  V30 21 1 21 22
M  V30 22 2 22 23
M  V30 23 1 23 24
M  V30 24 2 24 25
M  V30 25 1 25 26
M  V30 26 2 26 27
M  V30 27 1 18 28
M  V30 28 2 28 29
M  V30 29 2 15 30
M  V30 30 1 30 31
M  V30 31 2 31 32
M  V30 32 1 32 33
M  V30 33 2 9 34
M  V30 34 1 34 5
M  V30 35 1 32 13
M  V30 36 1 29 16
M  V30 37 1 27 22
M  V30 38 1 1 35
M  V30 39 1 1 36
M  V30 40 1 1 37
M  V30 41 1 6 38
M  V30 42 1 7 39
M  V30 43 1 8 40
M  V30 44 1 10 41
M  V30 45 1 14 42
M  V30 46 1 17 43
M  V30 47 1 19 44
M  V30 48 1 19 45
M  V30 49 1 20 46
M  V30 50 1 20 47
M  V30 51 1 21 48
M  V30 52 1 24 49
M  V30 53 1 25 50
M  V30 54 1 26 51
M  V30 55 1 30 52
M  V30 56 1 31 53
M  V30 57 1 33 54
M  V30 58 1 34 55
M  V30 END BOND
M  V30 END CTAB
M  END
>  <Dataset>  (555) 
ChEMBL_Kinases

>  <Ligand_Instance>  (555) 
nan

>  <PDB_ID>  (555) 
nan

>  <Standardized_SMILES>  (555) 
COC(=O)c1cccc(NC(=O)c2cc(-n3cc(CCNc4ncccn4)nn3)ccc2O)c1

>  <Name>  (555) 
nan

>  <Pocket>  (555) 
nan

>  <ATP_Site>  (555) 
nan

>  <Peripheral>  (555) 
nan

>  <Num_H_Atoms_ProtBoundConf>  (555) 
nan

>  <Num_Resolved_Atoms>  (555) 
nan

>  <Num_Not_Resolved_Atoms>  (555) 
nan

$$$$
CHEMBL507333
     RDKit          3D

  0  0  0  0  0  0  0  0  0  0999 V3000
M  V30 BEGIN CTAB
M  V30 COUNTS 43 46 0 0 0
M  V30 BEGIN ATOM
M  V30 1 C 0.809733 -4.472117 2.819858 0
M  V30 2 C -0.043706 -4.023441 1.827454 0
M  V30 3 C 0.263909 -2.865116 1.136939 0
M  V30 4 C 1.406530 -2.146555 1.418036 0
M  V30 5 C 1.755656 -0.919594 0.704278 0
M  V30 6 C 3.105781 -0.905505 0.333439 0
M  V30 7 C 3.614346 0.178877 -0.352119 0
M  V30 8 C 4.950761 0.249736 -0.747980 0
M  V30 9 C 5.317113 1.393603 -1.425315 0
M  V30 10 N 4.483023 2.407162 -1.713354 0
M  V30 11 C 3.170074 2.367946 -1.339816 0
M  V30 12 C 2.772165 1.228798 -0.656417 0
M  V30 13 C 1.440480 1.228998 -0.297782 0
M  V30 14 C 0.913407 0.154555 0.387749 0
M  V30 15 O -0.355748 -0.120663 0.868847 0
M  V30 16 C -1.469989 0.727826 0.738822 0
M  V30 17 C -2.561424 0.079598 -0.109388 0
M  V30 18 C -3.208782 -0.982479 0.744147 0
M  V30 19 C -3.969260 -0.247800 1.845793 0
M  V30 20 N -3.460585 1.089829 2.021590 0
M  V30 21 C -2.031151 1.146241 2.078561 0
M  V30 22 C 2.247218 -2.622553 2.422644 0
M  V30 23 C 1.956964 -3.775488 3.121815 0
M  V30 24 H 0.453923 -5.384071 3.278756 0
M  V30 25 H -0.967805 -4.497065 1.514914 0
M  V30 26 H -0.331718 -2.445278 0.359207 0
M  V30 27 H 3.814587 -1.680837 0.534665 0
M  V30 28 H 5.611757 -0.563814 -0.514248 0
M  V30 29 H 6.343514 1.503366 -1.757440 0
M  V30 30 H 2.499523 3.183865 -1.571643 0
M  V30 31 H 0.692829 1.978091 -0.475287 0
M  V30 32 H -1.190764 1.645541 0.193140 0
M  V30 33 H -2.080418 -0.381337 -0.993890 0
M  V30 34 H -3.269036 0.897226 -0.353587 0
M  V30 35 H -2.411823 -1.599946 1.202022 0
M  V30 36 H -3.887419 -1.576752 0.107706 0
M  V30 37 H -3.852697 -0.764242 2.811950 0
M  V30 38 H -5.018770 -0.166619 1.505049 0
M  V30 39 H -3.879749 1.795768 1.393335 0
M  V30 40 H -1.779594 2.227097 2.289645 0
M  V30 41 H -1.622443 0.573832 2.924942 0
M  V30 42 H 3.168580 -2.106762 2.699742 0
M  V30 43 H 2.575975 -4.189304 3.912013 0
M  V30 END ATOM
M  V30 BEGIN BOND
M  V30 1 2 1 2
M  V30 2 1 2 3
M  V30 3 2 3 4
M  V30 4 1 4 5
M  V30 5 2 5 6
M  V30 6 1 6 7
M  V30 7 2 7 8
M  V30 8 1 8 9
M  V30 9 2 9 10
M  V30 10 1 10 11
M  V30 11 2 11 12
M  V30 12 1 12 13
M  V30 13 2 13 14
M  V30 14 1 14 15
M  V30 15 1 15 16
M  V30 16 1 16 17
M  V30 17 1 17 18
M  V30 18 1 18 19
M  V30 19 1 19 20
M  V30 20 1 20 21
M  V30 21 1 4 22
M  V30 22 2 22 23
M  V30 23 1 23 1
M  V30 24 1 14 5
M  V30 25 1 21 16
M  V30 26 1 12 7
M  V30 27 1 1 24
M  V30 28 1 2 25
M  V30 29 1 3 26
M  V30 30 1 6 27
M  V30 31 1 8 28
M  V30 32 1 9 29
M  V30 33 1 11 30
M  V30 34 1 13 31
M  V30 35 1 16 32
M  V30 36 1 17 33
M  V30 37 1 17 34
M  V30 38 1 18 35
M  V30 39 1 18 36
M  V30 40 1 19 37
M  V30 41 1 19 38
M  V30 42 1 20 39
M  V30 43 1 21 40
M  V30 44 1 21 41
M  V30 45 1 22 42
M  V30 46 1 23 43
M  V30 END BOND
M  V30 END CTAB
M  END
>  <Dataset>  (556) 
ChEMBL_Kinases

>  <Ligand_Instance>  (556) 
nan

>  <PDB_ID>  (556) 
nan

>  <Standardized_SMILES>  (556) 
c1ccc(-c2cc3ccncc3cc2OC2CCCNC2)cc1

>  <Name>  (556) 
nan

>  <Pocket>  (556) 
nan

>  <ATP_Site>  (556) 
nan

>  <Peripheral>  (556) 
nan

>  <Num_H_Atoms_ProtBoundConf>  (556) 
nan

>  <Num_Resolved_Atoms>  (556) 
nan

>  <Num_Not_Resolved_Atoms>  (556) 
nan

$$$$
CHEMBL590598
     RDKit          3D

  0  0  0  0  0  0  0  0  0  0999 V3000
M  V30 BEGIN CTAB
M  V30 COUNTS 70 76 0 0 0
M  V30 BEGIN ATOM
M  V30 1 C -1.545809 -5.774130 -5.071922 0
M  V30 2 N -1.112604 -4.438042 -5.434641 0
M  V30 3 C 0.313779 -4.449916 -5.562536 0
M  V30 4 C 0.899415 -3.044696 -5.615604 0
M  V30 5 N 0.439793 -2.339522 -4.449338 0
M  V30 6 C 0.945378 -1.059307 -4.128519 0
M  V30 7 C 1.892535 -0.422277 -4.903264 0
M  V30 8 C 2.373435 0.838256 -4.564717 0
M  V30 9 C 1.895172 1.483653 -3.418130 0
M  V30 10 Cl 2.552533 3.070119 -3.061729 0
M  V30 11 C 0.949111 0.818261 -2.666988 0
M  V30 12 C 0.462572 1.501213 -1.480062 0
M  V30 13 O 0.921957 2.638326 -1.207502 0
M  V30 14 N -0.514612 0.832617 -0.691405 0
M  V30 15 C -1.193730 1.198626 0.506216 0
M  V30 16 C -2.400967 1.887446 0.377710 0
M  V30 17 C -3.150862 2.295167 1.485805 0
M  V30 18 C -2.690128 2.011394 2.767075 0
M  V30 19 C -1.499335 1.332075 2.886338 0
M  V30 20 C -0.770260 0.935921 1.794002 0
M  V30 21 C -1.059809 1.058639 4.234374 0
M  V30 22 C -1.859765 1.495569 5.264515 0
M  V30 23 C -1.195696 1.098496 6.409449 0
M  V30 24 C -1.538321 1.269189 7.808038 0
M  V30 25 N -2.756668 1.955393 8.149135 0
M  V30 26 O -0.973458 0.930000 8.880416 0
M  V30 27 N -0.063693 0.461638 6.032193 0
M  V30 28 N 0.024728 0.434110 4.709505 0
M  V30 29 C 1.128381 -0.182061 4.068080 0
M  V30 30 C 2.269016 0.582552 3.783230 0
M  V30 31 C 3.389364 0.045235 3.169142 0
M  V30 32 C 3.408134 -1.300569 2.811973 0
M  V30 33 C 2.289526 -2.058526 3.089203 0
M  V30 34 C 1.163797 -1.534710 3.702071 0
M  V30 35 O 2.563838 -3.355169 2.636545 0
M  V30 36 C 3.669966 -3.312464 1.732497 0
M  V30 37 O 4.332150 -2.130270 2.205177 0
M  V30 38 C -3.136345 2.221650 5.203757 0
M  V30 39 C -3.602371 2.512857 3.818172 0
M  V30 40 N 0.518666 -0.395543 -3.036836 0
M  V30 41 C -0.549508 -2.947802 -3.597666 0
M  V30 42 C -1.636604 -3.521081 -4.471184 0
M  V30 43 H -2.369162 -5.746242 -4.326616 0
M  V30 44 H -0.700136 -6.324511 -4.614134 0
M  V30 45 H -1.900721 -6.303910 -5.984137 0
M  V30 46 H 0.527839 -4.893999 -6.578865 0
M  V30 47 H 0.797754 -5.011542 -4.750577 0
M  V30 48 H 1.989572 -3.097864 -5.555550 0
M  V30 49 H 0.637108 -2.536996 -6.565673 0
M  V30 50 H 2.246436 -0.944860 -5.786889 0
M  V30 51 H 3.115884 1.274190 -5.221606 0
M  V30 52 H -0.875630 -0.124848 -0.955498 0
M  V30 53 H -2.762839 2.110216 -0.621663 0
M  V30 54 H -4.081958 2.828519 1.254291 0
M  V30 55 H 0.159380 0.405955 1.866090 0
M  V30 56 H -3.566299 2.554933 8.406936 0
M  V30 57 H -3.771122 1.682672 8.250107 0
M  V30 58 H 2.261650 1.642672 4.061467 0
M  V30 59 H 4.261294 0.655838 2.958168 0
M  V30 60 H 0.280852 -2.133846 3.920588 0
M  V30 61 H 3.339226 -3.118710 0.688009 0
M  V30 62 H 4.289212 -4.213921 1.828863 0
M  V30 63 H -3.921819 1.725482 5.827703 0
M  V30 64 H -2.957710 3.206297 5.727180 0
M  V30 65 H -3.622920 3.633922 3.683659 0
M  V30 66 H -4.626640 2.094257 3.686061 0
M  V30 67 H -0.994286 -2.236004 -2.873760 0
M  V30 68 H -0.106147 -3.780439 -3.022651 0
M  V30 69 H -2.439517 -3.979403 -3.824450 0
M  V30 70 H -2.080230 -2.644498 -5.021122 0
M  V30 END ATOM
M  V30 BEGIN BOND
M  V30 1 1 1 2
M  V30 2 1 2 3
M  V30 3 1 3 4
M  V30 4 1 4 5
M  V30 5 1 5 6
M  V30 6 2 6 7
M  V30 7 1 7 8
M  V30 8 2 8 9
M  V30 9 1 9 10
M  V30 10 1 9 11
M  V30 11 1 11 12
M  V30 12 2 12 13
M  V30 13 1 12 14
M  V30 14 1 14 15
M  V30 15 2 15 16
M  V30 16 1 16 17
M  V30 17 2 17 18
M  V30 18 1 18 19
M  V30 19 2 19 20
M  V30 20 1 19 21
M  V30 21 2 21 22
M  V30 22 1 22 23
M  V30 23 1 23 24
M  V30 24 1 24 25
M  V30 25 2 24 26
M  V30 26 2 23 27
M  V30 27 1 27 28
M  V30 28 1 28 29
M  V30 29 2 29 30
M  V30 30 1 30 31
M  V30 31 2 31 32
M  V30 32 1 32 33
M  V30 33 2 33 34
M  V30 34 1 33 35
M  V30 35 1 35 36
M  V30 36 1 36 37
M  V30 37 1 22 38
M  V30 38 1 38 39
M  V30 39 2 11 40
M  V30 40 1 5 41
M  V30 41 1 41 42
M  V30 42 1 42 2
M  V30 43 1 40 6
M  V30 44 1 20 15
M  V30 45 1 28 21
M  V30 46 1 34 29
M  V30 47 1 39 18
M  V30 48 1 37 32
M  V30 49 1 1 43
M  V30 50 1 1 44
M  V30 51 1 1 45
M  V30 52 1 3 46
M  V30 53 1 3 47
M  V30 54 1 4 48
M  V30 55 1 4 49
M  V30 56 1 7 50
M  V30 57 1 8 51
M  V30 58 1 14 52
M  V30 59 1 16 53
M  V30 60 1 17 54
M  V30 61 1 20 55
M  V30 62 1 25 56
M  V30 63 1 25 57
M  V30 64 1 30 58
M  V30 65 1 31 59
M  V30 66 1 34 60
M  V30 67 1 36 61
M  V30 68 1 36 62
M  V30 69 1 38 63
M  V30 70 1 38 64
M  V30 71 1 39 65
M  V30 72 1 39 66
M  V30 73 1 41 67
M  V30 74 1 41 68
M  V30 75 1 42 69
M  V30 76 1 42 70
M  V30 END BOND
M  V30 END CTAB
M  END
>  <Dataset>  (557) 
ChEMBL_Kinases

>  <Ligand_Instance>  (557) 
nan

>  <PDB_ID>  (557) 
nan

>  <Standardized_SMILES>  (557) 
CN1CCN(c2ccc(Cl)c(C(=O)Nc3ccc4c(c3)-c3c(c(C(N)=O)nn3-c3ccc5c(c3)OCO5)CC4)n2)CC1

>  <Name>  (557) 
nan

>  <Pocket>  (557) 
nan

>  <ATP_Site>  (557) 
nan

>  <Peripheral>  (557) 
nan

>  <Num_H_Atoms_ProtBoundConf>  (557) 
nan

>  <Num_Resolved_Atoms>  (557) 
nan

>  <Num_Not_Resolved_Atoms>  (557) 
nan

$$$$
CHEMBL3798137
     RDKit          3D

  0  0  0  0  0  0  0  0  0  0999 V3000
M  V30 BEGIN CTAB
M  V30 COUNTS 44 47 0 0 0
M  V30 BEGIN ATOM
M  V30 1 C 1.282279 -3.536081 2.900280 0
M  V30 2 C 0.816723 -3.509538 1.463441 0 CFG=2
M  V30 3 N 1.035184 -2.184960 0.966342 0
M  V30 4 C 1.885050 -1.849229 -0.117364 0
M  V30 5 O 2.483851 -2.805865 -0.670348 0
M  V30 6 C 2.106134 -0.498728 -0.622195 0
M  V30 7 C 2.972874 -0.377735 -1.688204 0
M  V30 8 C 3.252263 0.874641 -2.245947 0
M  V30 9 C 2.638201 2.000052 -1.704432 0
M  V30 10 N 2.682844 3.315566 -1.990359 0
M  V30 11 N 1.894702 3.942774 -1.151100 0
M  V30 12 C 1.302124 3.071956 -0.283227 0
M  V30 13 C 0.373291 3.498886 0.760975 0
M  V30 14 C 0.459070 3.015484 2.050875 0
M  V30 15 C -0.380163 3.370758 3.089593 0
M  V30 16 N -1.362137 4.265534 2.809032 0
M  V30 17 C -1.492375 4.770066 1.566945 0
M  V30 18 C -0.645856 4.408243 0.530029 0
M  V30 19 C 1.781715 1.811702 -0.638895 0
M  V30 20 C 1.482164 0.594323 -0.063026 0
M  V30 21 C -0.646732 -3.844430 1.349847 0
M  V30 22 C -1.063791 -5.076063 0.855331 0
M  V30 23 C -2.385200 -5.422676 0.734772 0
M  V30 24 C -3.316474 -4.499461 1.124681 0
M  V30 25 C -2.907186 -3.270805 1.618104 0
M  V30 26 Cl -4.221295 -2.198016 2.074776 0
M  V30 27 C -1.580349 -2.910653 1.744086 0
M  V30 28 H 2.331610 -3.911855 3.006092 0
M  V30 29 H 1.260630 -2.538564 3.391375 0
M  V30 30 H 0.620281 -4.174623 3.535549 0
M  V30 31 H 1.400320 -4.277566 0.895535 0
M  V30 32 H 0.524988 -1.410638 1.444688 0
M  V30 33 H 3.486364 -1.226540 -2.157292 0
M  V30 34 H 3.930521 0.985259 -3.082948 0
M  V30 35 H 3.255988 3.736072 -2.755348 0
M  V30 36 H 1.238723 2.288784 2.324463 0
M  V30 37 H -0.262504 2.956161 4.083029 0
M  V30 38 H -2.281972 5.484495 1.357151 0
M  V30 39 H -0.762065 4.826019 -0.477053 0
M  V30 40 H 0.804327 0.494300 0.771605 0
M  V30 41 H -0.250572 -5.748655 0.569186 0
M  V30 42 H -2.662949 -6.391149 0.345139 0
M  V30 43 H -4.356826 -4.787146 1.023748 0
M  V30 44 H -1.325891 -1.930918 2.138655 0
M  V30 END ATOM
M  V30 BEGIN BOND
M  V30 1 1 1 2
M  V30 2 1 2 3
M  V30 3 1 3 4
M  V30 4 2 4 5
M  V30 5 1 4 6
M  V30 6 2 6 7
M  V30 7 1 7 8
M  V30 8 2 8 9
M  V30 9 1 9 10
M  V30 10 1 10 11
M  V30 11 2 11 12
M  V30 12 1 12 13
M  V30 13 2 13 14
M  V30 14 1 14 15
M  V30 15 2 15 16
M  V30 16 1 16 17
M  V30 17 2 17 18
M  V30 18 1 12 19
M  V30 19 2 19 20
M  V30 20 1 2 21
M  V30 21 2 21 22
M  V30 22 1 22 23
M  V30 23 2 23 24
M  V30 24 1 24 25
M  V30 25 1 25 26
M  V30 26 2 25 27
M  V30 27 1 20 6
M  V30 28 1 27 21
M  V30 29 1 19 9
M  V30 30 1 18 13
M  V30 31 1 1 28
M  V30 32 1 1 29
M  V30 33 1 1 30
M  V30 34 1 2 31 CFG=3
M  V30 35 1 3 32
M  V30 36 1 7 33
M  V30 37 1 8 34
M  V30 38 1 10 35
M  V30 39 1 14 36
M  V30 40 1 15 37
M  V30 41 1 17 38
M  V30 42 1 18 39
M  V30 43 1 20 40
M  V30 44 1 22 41
M  V30 45 1 23 42
M  V30 46 1 24 43
M  V30 47 1 27 44
M  V30 END BOND
M  V30 END CTAB
M  END
>  <Dataset>  (558) 
ChEMBL_Kinases

>  <Ligand_Instance>  (558) 
nan

>  <PDB_ID>  (558) 
nan

>  <Standardized_SMILES>  (558) 
C[C@H](NC(=O)c1ccc2[nH]nc(-c3ccncc3)c2c1)c1cccc(Cl)c1

>  <Name>  (558) 
nan

>  <Pocket>  (558) 
nan

>  <ATP_Site>  (558) 
nan

>  <Peripheral>  (558) 
nan

>  <Num_H_Atoms_ProtBoundConf>  (558) 
nan

>  <Num_Resolved_Atoms>  (558) 
nan

>  <Num_Not_Resolved_Atoms>  (558) 
nan

$$$$
CHEMBL3798129
     RDKit          3D

  0  0  0  0  0  0  0  0  0  0999 V3000
M  V30 BEGIN CTAB
M  V30 COUNTS 53 57 0 0 0
M  V30 BEGIN ATOM
M  V30 1 C -0.352998 -2.975745 6.239331 0
M  V30 2 N -0.756040 -2.103831 5.153076 0
M  V30 3 C 0.075525 -1.545405 4.143284 0
M  V30 4 C 1.348800 -1.912749 3.761256 0
M  V30 5 C 2.064650 -1.273734 2.740250 0
M  V30 6 C 1.458449 -0.201159 2.066201 0
M  V30 7 C 2.364323 0.323453 1.057380 0
M  V30 8 C 3.682341 0.622902 1.402010 0
M  V30 9 N 4.609051 1.116173 0.561957 0
M  V30 10 C 4.282378 1.354469 -0.719924 0
M  V30 11 C 2.995784 1.081700 -1.131551 0
M  V30 12 Cl 2.633107 1.409802 -2.798150 0
M  V30 13 C 2.053088 0.575698 -0.261104 0
M  V30 14 N 0.770161 0.323494 -0.763644 0
M  V30 15 C -0.511337 1.024681 -0.937827 0
M  V30 16 C -1.033740 0.706053 -2.323644 0
M  V30 17 C -1.607959 -0.705314 -2.197141 0
M  V30 18 C -0.741424 -1.496411 -1.283135 0
M  V30 19 C 0.703069 -1.032106 -1.251643 0
M  V30 20 C -2.981568 -0.485000 -1.616266 0
M  V30 21 O -3.477306 -0.012872 -0.561096 0
M  V30 22 N -3.926282 -0.960458 -2.566991 0
M  V30 23 N -3.221260 -1.448229 -3.670258 0
M  V30 24 C -1.928751 -1.316038 -3.485158 0
M  V30 25 C -0.910851 -1.742214 -4.474361 0
M  V30 26 F -1.521721 -2.293290 -5.591402 0
M  V30 27 F -0.170923 -0.690868 -4.915743 0
M  V30 28 F -0.115992 -2.769038 -3.967573 0
M  V30 29 C 0.196815 0.152137 2.455467 0
M  V30 30 C -0.491281 -0.489312 3.462626 0
M  V30 31 C -1.872942 -0.082084 3.870977 0
M  V30 32 S -2.365882 -1.514223 4.803920 0
M  V30 33 O -3.069934 -2.527766 3.985452 0
M  V30 34 O -3.087416 -1.146277 6.053274 0
M  V30 35 H 0.752625 -2.929918 6.310001 0
M  V30 36 H -0.627061 -4.027686 5.938138 0
M  V30 37 H -0.786354 -2.705627 7.212354 0
M  V30 38 H 1.816019 -2.752200 4.293488 0
M  V30 39 H 3.069521 -1.685226 2.554668 0
M  V30 40 H 4.012145 0.450103 2.436652 0
M  V30 41 H 5.051342 1.753880 -1.378807 0
M  V30 42 H -0.417916 2.106411 -0.761315 0
M  V30 43 H -1.260412 0.639100 -0.217521 0
M  V30 44 H -1.779922 1.449502 -2.631241 0
M  V30 45 H -0.256760 0.669362 -3.081077 0
M  V30 46 H -0.808782 -2.563700 -1.540985 0
M  V30 47 H -1.132832 -1.396360 -0.249538 0
M  V30 48 H 1.128590 -1.069739 -2.281210 0
M  V30 49 H 1.231087 -1.774097 -0.625032 0
M  V30 50 H -4.969327 -1.014446 -2.603457 0
M  V30 51 H -0.167926 0.972846 1.893159 0
M  V30 52 H -1.834953 0.804848 4.557387 0
M  V30 53 H -2.524954 0.092523 3.002091 0
M  V30 END ATOM
M  V30 BEGIN BOND
M  V30 1 1 1 2
M  V30 2 1 2 3
M  V30 3 2 3 4
M  V30 4 1 4 5
M  V30 5 2 5 6
M  V30 6 1 6 7
M  V30 7 2 7 8
M  V30 8 1 8 9
M  V30 9 2 9 10
M  V30 10 1 10 11
M  V30 11 1 11 12
M  V30 12 2 11 13
M  V30 13 1 13 14
M  V30 14 1 14 15
M  V30 15 1 15 16
M  V30 16 1 16 17
M  V30 17 1 17 18
M  V30 18 1 18 19
M  V30 19 1 17 20
M  V30 20 2 20 21
M  V30 21 1 20 22
M  V30 22 1 22 23
M  V30 23 2 23 24
M  V30 24 1 24 25
M  V30 25 1 25 26
M  V30 26 1 25 27
M  V30 27 1 25 28
M  V30 28 1 6 29
M  V30 29 2 29 30
M  V30 30 1 30 31
M  V30 31 1 31 32
M  V30 32 2 32 33
M  V30 33 2 32 34
M  V30 34 1 32 2
M  V30 35 1 30 3
M  V30 36 1 13 7
M  V30 37 1 19 14
M  V30 38 1 24 17
M  V30 39 1 1 35
M  V30 40 1 1 36
M  V30 41 1 1 37
M  V30 42 1 4 38
M  V30 43 1 5 39
M  V30 44 1 8 40
M  V30 45 1 10 41
M  V30 46 1 15 42
M  V30 47 1 15 43
M  V30 48 1 16 44
M  V30 49 1 16 45
M  V30 50 1 18 46
M  V30 51 1 18 47
M  V30 52 1 19 48
M  V30 53 1 19 49
M  V30 54 1 22 50
M  V30 55 1 29 51
M  V30 56 1 31 52
M  V30 57 1 31 53
M  V30 END BOND
M  V30 END CTAB
M  END
>  <Dataset>  (559) 
ChEMBL_Kinases

>  <Ligand_Instance>  (559) 
nan

>  <PDB_ID>  (559) 
nan

>  <Standardized_SMILES>  (559) 
CN1c2ccc(-c3cncc(Cl)c3N3CCC4(CC3)C(=O)NN=C4C(F)(F)F)cc2CS1(=O)=O

>  <Name>  (559) 
nan

>  <Pocket>  (559) 
nan

>  <ATP_Site>  (559) 
nan

>  <Peripheral>  (559) 
nan

>  <Num_H_Atoms_ProtBoundConf>  (559) 
nan

>  <Num_Resolved_Atoms>  (559) 
nan

>  <Num_Not_Resolved_Atoms>  (559) 
nan

$$$$
CHEMBL5070908
     RDKit          3D

  0  0  0  0  0  0  0  0  0  0999 V3000
M  V30 BEGIN CTAB
M  V30 COUNTS 71 75 0 0 0
M  V30 BEGIN ATOM
M  V30 1 C 1.840336 0.038939 4.380336 0
M  V30 2 C 2.718092 1.119141 3.846489 0
M  V30 3 N 2.280221 1.836899 2.729980 0
M  V30 4 C 1.185307 2.701160 2.877264 0
M  V30 5 C -0.006374 2.474297 1.998333 0
M  V30 6 N 0.009818 1.303136 1.194470 0
M  V30 7 C -1.184241 0.700914 0.736214 0
M  V30 8 C -2.345837 1.391854 0.972613 0
M  V30 9 C -3.548446 0.865137 0.585841 0
M  V30 10 N -4.919864 1.329663 0.639081 0
M  V30 11 C -5.333825 1.711244 -0.700830 0
M  V30 12 C -5.632928 0.559770 -1.457780 0
M  V30 13 C -6.031459 1.003653 -2.744007 0
M  V30 14 C -6.440420 0.080461 -3.869627 0
M  V30 15 N -5.953360 2.336876 -2.695292 0
M  V30 16 N -5.547054 2.761721 -1.507554 0
M  V30 17 N -3.543327 -0.343144 -0.026181 0
M  V30 18 C -2.427077 -1.049686 -0.276792 0
M  V30 19 N -2.561377 -2.309113 -0.906638 0
M  V30 20 C -1.547598 -3.202456 -1.375885 0 CFG=1
M  V30 21 C -0.808080 -2.553619 -2.570790 0
M  V30 22 C 0.408036 -3.450681 -2.603886 0
M  V30 23 N 0.835165 -3.335058 -1.196899 0
M  V30 24 C 2.108097 -3.148696 -0.530914 0
M  V30 25 O 2.467329 -3.062900 0.670988 0
M  V30 26 C 3.128846 -3.053519 -1.599479 0
M  V30 27 C 3.487760 -3.989048 -2.539520 0
M  V30 28 C 4.482243 -3.615669 -3.439813 0
M  V30 29 C 5.088589 -2.387082 -3.417688 0
M  V30 30 Cl 6.320733 -2.064595 -4.609992 0
M  V30 31 C 4.721603 -1.456773 -2.474835 0
M  V30 32 C 5.388673 -0.116064 -2.455910 0
M  V30 33 C 3.728505 -1.791741 -1.549232 0
M  V30 34 C -0.408558 -3.453732 -0.436023 0
M  V30 35 N -1.294274 -0.478396 0.124245 0
M  V30 36 C 1.249886 0.683668 0.818403 0
M  V30 37 C 2.457957 1.318947 1.432251 0
M  V30 38 H 1.486503 -0.662689 3.598539 0
M  V30 39 H 1.017728 0.411206 5.022412 0
M  V30 40 H 2.493742 -0.573527 5.061593 0
M  V30 41 H 3.732804 0.712810 3.692197 0
M  V30 42 H 2.856684 1.877419 4.687133 0
M  V30 43 H 0.875996 2.819606 3.961603 0
M  V30 44 H 1.552692 3.745436 2.639505 0
M  V30 45 H -0.191340 3.336730 1.287458 0
M  V30 46 H -0.955804 2.421434 2.610972 0
M  V30 47 H -2.525456 2.343245 1.435208 0
M  V30 48 H -5.654653 1.456658 1.395860 0
M  V30 49 H -5.618113 -0.510552 -1.268750 0
M  V30 50 H -5.521881 -0.378432 -4.321488 0
M  V30 51 H -6.982278 0.606989 -4.656819 0
M  V30 52 H -7.048185 -0.748608 -3.455682 0
M  V30 53 H -6.182566 2.949507 -3.496532 0
M  V30 54 H -3.533270 -2.669266 -1.063778 0
M  V30 55 H -1.945365 -4.143230 -1.781010 0
M  V30 56 H -1.405447 -2.593567 -3.478439 0
M  V30 57 H -0.522074 -1.536083 -2.236066 0
M  V30 58 H 1.184528 -3.089249 -3.300074 0
M  V30 59 H 0.120685 -4.497292 -2.813178 0
M  V30 60 H 2.948236 -4.903665 -2.453597 0
M  V30 61 H 4.722563 -4.401866 -4.167413 0
M  V30 62 H 6.244654 -0.128145 -3.142701 0
M  V30 63 H 4.582743 0.611402 -2.744304 0
M  V30 64 H 5.734985 0.096757 -1.404176 0
M  V30 65 H 3.513074 -0.988962 -0.851540 0
M  V30 66 H -0.404853 -2.639040 0.303549 0
M  V30 67 H -0.529185 -4.450469 0.021526 0
M  V30 68 H 1.213268 -0.382838 1.185796 0
M  V30 69 H 1.383030 0.587196 -0.294771 0
M  V30 70 H 3.289846 0.547211 1.499805 0
M  V30 71 H 2.878188 2.128822 0.772276 0
M  V30 END ATOM
M  V30 BEGIN BOND
M  V30 1 1 1 2
M  V30 2 1 2 3
M  V30 3 1 3 4
M  V30 4 1 4 5
M  V30 5 1 5 6
M  V30 6 1 6 7
M  V30 7 2 7 8
M  V30 8 1 8 9
M  V30 9 1 9 10
M  V30 10 1 10 11
M  V30 11 1 11 12
M  V30 12 2 12 13
M  V30 13 1 13 14
M  V30 14 1 13 15
M  V30 15 1 15 16
M  V30 16 2 9 17
M  V30 17 1 17 18
M  V30 18 1 18 19
M  V30 19 1 19 20
M  V30 20 1 20 21
M  V30 21 1 21 22
M  V30 22 1 22 23
M  V30 23 1 23 24
M  V30 24 2 24 25
M  V30 25 1 24 26
M  V30 26 2 26 27
M  V30 27 1 27 28
M  V30 28 2 28 29
M  V30 29 1 29 30
M  V30 30 1 29 31
M  V30 31 1 31 32
M  V30 32 2 31 33
M  V30 33 1 23 34
M  V30 34 2 18 35
M  V30 35 1 6 36
M  V30 36 1 36 37
M  V30 37 1 37 3
M  V30 38 1 35 7
M  V30 39 2 16 11
M  V30 40 1 34 20
M  V30 41 1 33 26
M  V30 42 1 1 38
M  V30 43 1 1 39
M  V30 44 1 1 40
M  V30 45 1 2 41
M  V30 46 1 2 42
M  V30 47 1 4 43
M  V30 48 1 4 44
M  V30 49 1 5 45
M  V30 50 1 5 46
M  V30 51 1 8 47
M  V30 52 1 10 48
M  V30 53 1 12 49
M  V30 54 1 14 50
M  V30 55 1 14 51
M  V30 56 1 14 52
M  V30 57 1 15 53
M  V30 58 1 19 54
M  V30 59 1 20 55 CFG=3
M  V30 60 1 21 56
M  V30 61 1 21 57
M  V30 62 1 22 58
M  V30 63 1 22 59
M  V30 64 1 27 60
M  V30 65 1 28 61
M  V30 66 1 32 62
M  V30 67 1 32 63
M  V30 68 1 32 64
M  V30 69 1 33 65
M  V30 70 1 34 66
M  V30 71 1 34 67
M  V30 72 1 36 68
M  V30 73 1 36 69
M  V30 74 1 37 70
M  V30 75 1 37 71
M  V30 END BOND
M  V30 END CTAB
M  END
>  <Dataset>  (560) 
ChEMBL_Kinases

>  <Ligand_Instance>  (560) 
nan

>  <PDB_ID>  (560) 
nan

>  <Standardized_SMILES>  (560) 
CCN1CCN(c2cc(Nc3cc(C)[nH]n3)nc(N[C@H]3CCN(C(=O)c4ccc(Cl)c(C)c4)C3)n2)CC1

>  <Name>  (560) 
nan

>  <Pocket>  (560) 
nan

>  <ATP_Site>  (560) 
nan

>  <Peripheral>  (560) 
nan

>  <Num_H_Atoms_ProtBoundConf>  (560) 
nan

>  <Num_Resolved_Atoms>  (560) 
nan

>  <Num_Not_Resolved_Atoms>  (560) 
nan

$$$$
CHEMBL5070968
     RDKit          3D

  0  0  0  0  0  0  0  0  0  0999 V3000
M  V30 BEGIN CTAB
M  V30 COUNTS 64 69 0 0 0
M  V30 BEGIN ATOM
M  V30 1 O -1.491957 1.528683 5.456557 0
M  V30 2 C -0.810507 1.046711 4.490710 0
M  V30 3 N 0.605384 1.326352 4.516693 0
M  V30 4 C 0.815407 2.106771 5.687809 0
M  V30 5 C 2.235475 2.532137 5.941366 0
M  V30 6 C 2.806941 3.354951 4.863206 0
M  V30 7 C 2.847850 4.756283 4.926180 0
M  V30 8 N 3.393423 5.277530 3.806871 0
M  V30 9 C 3.731228 4.262731 2.971095 0
M  V30 10 C 4.302915 4.149631 1.742713 0
M  V30 11 C 4.541719 2.923235 1.116867 0
M  V30 12 C 4.167582 1.756601 1.800874 0
M  V30 13 C 3.595342 1.913184 3.033003 0
M  V30 14 C 3.368202 3.114663 3.630903 0
M  V30 15 C -1.568757 0.288647 3.511097 0
M  V30 16 C -2.897269 0.047469 3.712898 0
M  V30 17 C -3.603699 -0.671038 2.758140 0
M  V30 18 C -3.019486 -1.170467 1.579715 0
M  V30 19 C -1.671931 -0.870274 1.475310 0
M  V30 20 C -0.920304 -0.164154 2.386095 0
M  V30 21 C -0.896071 -1.300429 0.317220 0
M  V30 22 O 0.280773 -0.830309 0.233427 0
M  V30 23 C -1.251914 -2.200524 -0.787118 0
M  V30 24 C -0.149774 -2.618143 -1.500978 0
M  V30 25 C -0.397251 -3.459089 -2.551123 0
M  V30 26 C -1.667895 -3.889997 -2.910234 0
M  V30 27 N -1.924188 -4.733552 -4.014152 0
M  V30 28 C -1.382823 -4.814837 -5.312509 0
M  V30 29 C -0.428144 -3.986732 -5.850198 0
M  V30 30 C 0.109980 -4.069068 -7.105802 0
M  V30 31 C -0.349324 -5.090310 -7.927056 0
M  V30 32 F 0.051355 -5.340743 -9.189827 0
M  V30 33 C -1.316702 -5.954032 -7.425778 0
M  V30 34 C -1.812762 -5.814989 -6.158642 0
M  V30 35 F -2.758066 -6.695669 -5.732736 0
M  V30 36 C -2.717275 -3.407274 -2.118977 0
M  V30 37 C -2.566224 -2.543798 -1.024899 0
M  V30 38 C -3.904888 -2.298305 -0.511702 0
M  V30 39 C -4.082318 -1.847152 0.872078 0
M  V30 40 H 0.996710 0.867882 3.678557 0
M  V30 41 H 0.207363 3.053493 5.671899 0
M  V30 42 H 0.489318 1.515395 6.598270 0
M  V30 43 H 2.845612 1.604722 6.045260 0
M  V30 44 H 2.295008 3.084016 6.919568 0
M  V30 45 H 2.513197 5.414956 5.717808 0
M  V30 46 H 3.554082 6.264207 3.565110 0
M  V30 47 H 4.596361 5.059708 1.209135 0
M  V30 48 H 5.006068 2.867858 0.123932 0
M  V30 49 H 4.343147 0.799106 1.337133 0
M  V30 50 H 3.335872 0.994621 3.517277 0
M  V30 51 H -3.403949 0.410753 4.608325 0
M  V30 52 H -4.658225 -0.820619 2.994501 0
M  V30 53 H 0.109390 -0.035076 2.126899 0
M  V30 54 H 0.807331 -2.260071 -1.189550 0
M  V30 55 H 0.471425 -3.783035 -3.085853 0
M  V30 56 H -2.677698 -5.418609 -3.752904 0
M  V30 57 H -0.042003 -3.172643 -5.268432 0
M  V30 58 H 0.851916 -3.424542 -7.523620 0
M  V30 59 H -1.701291 -6.768181 -8.042909 0
M  V30 60 H -3.692101 -3.766078 -2.428189 0
M  V30 61 H -4.560551 -3.202760 -0.695555 0
M  V30 62 H -4.363989 -1.499703 -1.169373 0
M  V30 63 H -4.344346 -2.757220 1.496062 0
M  V30 64 H -5.032227 -1.228255 0.971268 0
M  V30 END ATOM
M  V30 BEGIN BOND
M  V30 1 2 1 2
M  V30 2 1 2 3
M  V30 3 1 3 4
M  V30 4 1 4 5
M  V30 5 1 5 6
M  V30 6 2 6 7
M  V30 7 1 7 8
M  V30 8 1 8 9
M  V30 9 2 9 10
M  V30 10 1 10 11
M  V30 11 2 11 12
M  V30 12 1 12 13
M  V30 13 2 13 14
M  V30 14 1 2 15
M  V30 15 2 15 16
M  V30 16 1 16 17
M  V30 17 2 17 18
M  V30 18 1 18 19
M  V30 19 2 19 20
M  V30 20 1 19 21
M  V30 21 2 21 22
M  V30 22 1 21 23
M  V30 23 2 23 24
M  V30 24 1 24 25
M  V30 25 2 25 26
M  V30 26 1 26 27
M  V30 27 1 27 28
M  V30 28 2 28 29
M  V30 29 1 29 30
M  V30 30 2 30 31
M  V30 31 1 31 32
M  V30 32 1 31 33
M  V30 33 2 33 34
M  V30 34 1 34 35
M  V30 35 1 26 36
M  V30 36 2 36 37
M  V30 37 1 37 38
M  V30 38 1 38 39
M  V30 39 1 14 6
M  V30 40 1 20 15
M  V30 41 1 37 23
M  V30 42 1 14 9
M  V30 43 1 39 18
M  V30 44 1 34 28
M  V30 45 1 3 40
M  V30 46 1 4 41
M  V30 47 1 4 42
M  V30 48 1 5 43
M  V30 49 1 5 44
M  V30 50 1 7 45
M  V30 51 1 8 46
M  V30 52 1 10 47
M  V30 53 1 11 48
M  V30 54 1 12 49
M  V30 55 1 13 50
M  V30 56 1 16 51
M  V30 57 1 17 52
M  V30 58 1 20 53
M  V30 59 1 24 54
M  V30 60 1 25 55
M  V30 61 1 27 56
M  V30 62 1 29 57
M  V30 63 1 30 58
M  V30 64 1 33 59
M  V30 65 1 36 60
M  V30 66 1 38 61
M  V30 67 1 38 62
M  V30 68 1 39 63
M  V30 69 1 39 64
M  V30 END BOND
M  V30 END CTAB
M  END
>  <Dataset>  (561) 
ChEMBL_Kinases

>  <Ligand_Instance>  (561) 
nan

>  <PDB_ID>  (561) 
nan

>  <Standardized_SMILES>  (561) 
O=C(NCCc1c[nH]c2ccccc12)c1ccc2c(c1)C(=O)c1ccc(Nc3ccc(F)cc3F)cc1CC2

>  <Name>  (561) 
nan

>  <Pocket>  (561) 
nan

>  <ATP_Site>  (561) 
nan

>  <Peripheral>  (561) 
nan

>  <Num_H_Atoms_ProtBoundConf>  (561) 
nan

>  <Num_Resolved_Atoms>  (561) 
nan

>  <Num_Not_Resolved_Atoms>  (561) 
nan

$$$$
CHEMBL3798038
     RDKit          3D

  0  0  0  0  0  0  0  0  0  0999 V3000
M  V30 BEGIN CTAB
M  V30 COUNTS 38 41 0 0 0
M  V30 BEGIN ATOM
M  V30 1 C -0.266801 -3.012895 4.861722 0
M  V30 2 S 1.355153 -2.280843 4.500043 0
M  V30 3 C 1.462672 -1.758711 2.768207 0
M  V30 4 S 2.020376 -2.751967 1.402022 0
M  V30 5 C 1.817945 -1.550486 0.166366 0
M  V30 6 C 2.119264 -1.763225 -1.239066 0
M  V30 7 C 2.601925 -2.949978 -1.746663 0
M  V30 8 C 2.755799 -2.747150 -3.107594 0
M  V30 9 N 2.369926 -1.475977 -3.366944 0
M  V30 10 N 1.986627 -0.890424 -2.227468 0
M  V30 11 C 1.334506 -0.440436 0.837328 0
M  V30 12 C 1.146994 -0.530353 2.169819 0
M  V30 13 C 0.638051 0.621392 2.906337 0
M  V30 14 O 0.446023 0.591316 4.146146 0
M  V30 15 N 0.336870 1.825056 2.262597 0
M  V30 16 C 0.081317 1.736260 0.828768 0
M  V30 17 C -1.359951 1.541497 0.635213 0
M  V30 18 C -2.043177 0.346242 1.215195 0
M  V30 19 C -3.090171 0.542670 0.106847 0
M  V30 20 C -1.932867 1.170964 -0.688554 0
M  V30 21 C 1.019532 0.834359 0.138155 0
M  V30 22 H -0.167054 -3.981558 5.391282 0
M  V30 23 H -0.787583 -3.221170 3.899124 0
M  V30 24 H -0.915303 -2.303891 5.426216 0
M  V30 25 H 2.827152 -3.878629 -1.209953 0
M  V30 26 H 3.127546 -3.533551 -3.762010 0
M  V30 27 H 2.423961 -1.148656 -4.373285 0
M  V30 28 H 0.306107 2.725994 2.819329 0
M  V30 29 H 0.298678 2.791973 0.476109 0
M  V30 30 H -1.912248 2.462130 0.993469 0
M  V30 31 H -2.468775 0.518731 2.217350 0
M  V30 32 H -1.535642 -0.627588 1.088255 0
M  V30 33 H -3.472468 -0.395337 -0.333915 0
M  V30 34 H -3.871425 1.266908 0.401468 0
M  V30 35 H -2.373865 1.991820 -1.305013 0
M  V30 36 H -1.471879 0.385849 -1.283627 0
M  V30 37 H 0.675599 0.675667 -0.909674 0
M  V30 38 H 1.991907 1.392866 -0.021422 0
M  V30 END ATOM
M  V30 BEGIN BOND
M  V30 1 1 1 2
M  V30 2 1 2 3
M  V30 3 1 3 4
M  V30 4 1 4 5
M  V30 5 1 5 6
M  V30 6 1 6 7
M  V30 7 2 7 8
M  V30 8 1 8 9
M  V30 9 1 9 10
M  V30 10 2 5 11
M  V30 11 1 11 12
M  V30 12 1 12 13
M  V30 13 2 13 14
M  V30 14 1 13 15
M  V30 15 1 15 16
M  V30 16 1 16 17
M  V30 17 1 17 18
M  V30 18 1 18 19
M  V30 19 1 19 20
M  V30 20 1 16 21
M  V30 21 2 12 3
M  V30 22 1 20 17
M  V30 23 2 10 6
M  V30 24 1 21 11
M  V30 25 1 1 22
M  V30 26 1 1 23
M  V30 27 1 1 24
M  V30 28 1 7 25
M  V30 29 1 8 26
M  V30 30 1 9 27
M  V30 31 1 15 28
M  V30 32 1 16 29
M  V30 33 1 17 30
M  V30 34 1 18 31
M  V30 35 1 18 32
M  V30 36 1 19 33
M  V30 37 1 19 34
M  V30 38 1 20 35
M  V30 39 1 20 36
M  V30 40 1 21 37
M  V30 41 1 21 38
M  V30 END BOND
M  V30 END CTAB
M  END
>  <Dataset>  (562) 
ChEMBL_Kinases

>  <Ligand_Instance>  (562) 
nan

>  <PDB_ID>  (562) 
nan

>  <Standardized_SMILES>  (562) 
CSc1sc(-c2cc[nH]n2)c2c1C(=O)NC(C1CCC1)C2

>  <Name>  (562) 
nan

>  <Pocket>  (562) 
nan

>  <ATP_Site>  (562) 
nan

>  <Peripheral>  (562) 
nan

>  <Num_H_Atoms_ProtBoundConf>  (562) 
nan

>  <Num_Resolved_Atoms>  (562) 
nan

>  <Num_Not_Resolved_Atoms>  (562) 
nan

$$$$
CHEMBL59054
     RDKit          3D

  0  0  0  0  0  0  0  0  0  0999 V3000
M  V30 BEGIN CTAB
M  V30 COUNTS 49 54 0 0 0
M  V30 BEGIN ATOM
M  V30 1 C -0.604843 -0.686904 5.465366 0
M  V30 2 C 0.071244 -1.121346 4.187465 0
M  V30 3 C 0.160470 0.100980 3.284702 0
M  V30 4 N 0.762545 -0.145740 2.016746 0
M  V30 5 C 2.130321 -0.076247 1.972393 0
M  V30 6 C 3.130729 0.166736 2.931336 0
M  V30 7 C 4.471522 0.191678 2.696350 0
M  V30 8 C 4.881252 -0.038165 1.424316 0
M  V30 9 C 3.975594 -0.283879 0.427479 0
M  V30 10 C 2.634545 -0.296134 0.727912 0
M  V30 11 C 1.514851 -0.513843 -0.040092 0
M  V30 12 C 1.453506 -0.777786 -1.407628 0
M  V30 13 C 0.201624 -0.944783 -1.952221 0
M  V30 14 C -0.893526 -0.845556 -1.136905 0
M  V30 15 C -2.210702 -0.976593 -1.477140 0
M  V30 16 C -2.960613 -1.216445 -2.570286 0
M  V30 17 C -4.331381 -1.283687 -2.584184 0
M  V30 18 C -5.046418 -1.099838 -1.420902 0
M  V30 19 C -4.272202 -0.856569 -0.315038 0
M  V30 20 C -2.880872 -0.784439 -0.279836 0
M  V30 21 N -2.020837 -0.545749 0.757784 0
M  V30 22 C -2.582946 -0.346477 2.065610 0
M  V30 23 C -0.817221 -0.585285 0.217929 0
M  V30 24 C 0.398019 -0.414948 0.778794 0
M  V30 25 C 0.473028 -1.192781 -3.346172 0
M  V30 26 O -0.273592 -1.411812 -4.305190 0
M  V30 27 N 1.849842 -1.180081 -3.658388 0
M  V30 28 C 2.541262 -0.922462 -2.430333 0
M  V30 29 H -0.580676 0.425526 5.565462 0
M  V30 30 H -0.093767 -1.059924 6.383216 0
M  V30 31 H -1.681298 -1.013799 5.485621 0
M  V30 32 H 1.124133 -1.407489 4.517959 0
M  V30 33 H -0.314316 -2.017855 3.724294 0
M  V30 34 H -0.670118 0.802875 3.353202 0
M  V30 35 H 0.901463 0.751038 3.924240 0
M  V30 36 H 2.866975 0.357623 3.977768 0
M  V30 37 H 5.199632 0.382842 3.466485 0
M  V30 38 H 5.934242 -0.028628 1.188514 0
M  V30 39 H 4.357805 -0.455618 -0.546359 0
M  V30 40 H -2.544026 -1.376433 -3.532279 0
M  V30 41 H -4.897256 -1.480693 -3.496291 0
M  V30 42 H -6.123222 -1.153156 -1.434645 0
M  V30 43 H -4.919722 -0.721895 0.559716 0
M  V30 44 H -2.536489 0.692937 2.410013 0
M  V30 45 H -3.695202 -0.542593 2.075148 0
M  V30 46 H -2.212483 -1.102250 2.746173 0
M  V30 47 H 2.426762 -1.306589 -4.515960 0
M  V30 48 H 3.167384 -1.783242 -2.110014 0
M  V30 49 H 3.127881 0.018026 -2.526532 0
M  V30 END ATOM
M  V30 BEGIN BOND
M  V30 1 1 1 2
M  V30 2 1 2 3
M  V30 3 1 3 4
M  V30 4 1 4 5
M  V30 5 2 5 6
M  V30 6 1 6 7
M  V30 7 2 7 8
M  V30 8 1 8 9
M  V30 9 2 9 10
M  V30 10 1 10 11
M  V30 11 2 11 12
M  V30 12 1 12 13
M  V30 13 2 13 14
M  V30 14 1 14 15
M  V30 15 2 15 16
M  V30 16 1 16 17
M  V30 17 2 17 18
M  V30 18 1 18 19
M  V30 19 2 19 20
M  V30 20 1 20 21
M  V30 21 1 21 22
M  V30 22 1 21 23
M  V30 23 2 23 24
M  V30 24 1 13 25
M  V30 25 2 25 26
M  V30 26 1 25 27
M  V30 27 1 27 28
M  V30 28 1 24 4
M  V30 29 1 10 5
M  V30 30 1 24 11
M  V30 31 1 28 12
M  V30 32 1 23 14
M  V30 33 1 20 15
M  V30 34 1 1 29
M  V30 35 1 1 30
M  V30 36 1 1 31
M  V30 37 1 2 32
M  V30 38 1 2 33
M  V30 39 1 3 34
M  V30 40 1 3 35
M  V30 41 1 6 36
M  V30 42 1 7 37
M  V30 43 1 8 38
M  V30 44 1 9 39
M  V30 45 1 16 40
M  V30 46 1 17 41
M  V30 47 1 18 42
M  V30 48 1 19 43
M  V30 49 1 22 44
M  V30 50 1 22 45
M  V30 51 1 22 46
M  V30 52 1 27 47
M  V30 53 1 28 48
M  V30 54 1 28 49
M  V30 END BOND
M  V30 END CTAB
M  END
>  <Dataset>  (563) 
ChEMBL_Kinases

>  <Ligand_Instance>  (563) 
nan

>  <PDB_ID>  (563) 
nan

>  <Standardized_SMILES>  (563) 
CCCn1c2ccccc2c2c3c(c4c5ccccc5n(C)c4c21)C(=O)NC3

>  <Name>  (563) 
nan

>  <Pocket>  (563) 
nan

>  <ATP_Site>  (563) 
nan

>  <Peripheral>  (563) 
nan

>  <Num_H_Atoms_ProtBoundConf>  (563) 
nan

>  <Num_Resolved_Atoms>  (563) 
nan

>  <Num_Not_Resolved_Atoms>  (563) 
nan

$$$$
CHEMBL5071025
     RDKit          3D

  0  0  0  0  0  0  0  0  0  0999 V3000
M  V30 BEGIN CTAB
M  V30 COUNTS 62 66 0 0 0
M  V30 BEGIN ATOM
M  V30 1 C 4.092491 -3.759158 3.224973 0
M  V30 2 O 2.899368 -3.217898 2.640197 0
M  V30 3 C 2.876002 -1.967265 2.069870 0
M  V30 4 C 3.983570 -1.136283 2.011737 0
M  V30 5 C 3.982078 0.121630 1.444375 0
M  V30 6 C 2.772517 0.525769 0.916707 0
M  V30 7 N 2.653730 1.826495 0.296540 0
M  V30 8 C 2.273608 2.778918 1.299011 0
M  V30 9 O 2.145070 2.255914 2.424384 0
M  V30 10 C 2.066971 4.194148 1.008757 0
M  V30 11 C 2.202740 4.794713 -0.224075 0
M  V30 12 C 1.985705 6.145736 -0.403011 0
M  V30 13 N 1.630151 6.924191 0.638486 0
M  V30 14 C 1.498736 6.334990 1.839123 0
M  V30 15 C 1.103618 7.261451 2.939343 0
M  V30 16 F 2.184098 8.062356 3.298497 0
M  V30 17 F 0.135522 8.105706 2.445608 0
M  V30 18 F 0.663515 6.621873 4.063137 0
M  V30 19 C 1.702285 4.978688 2.089944 0
M  V30 20 C 1.618863 -0.232747 0.929014 0
M  V30 21 C 1.703936 -1.495498 1.522435 0
M  V30 22 C 0.448914 -2.277134 1.516238 0
M  V30 23 C 0.051912 -2.935926 2.662278 0
M  V30 24 C -1.131761 -3.647946 2.586295 0
M  V30 25 C -1.889450 -3.700124 1.411832 0
M  V30 26 C -1.428289 -3.011657 0.294791 0
M  V30 27 C -0.251358 -2.288422 0.327746 0
M  V30 28 O -2.108468 -3.010992 -0.892052 0
M  V30 29 C -3.335569 -3.364260 -1.412654 0
M  V30 30 C -3.301772 -4.573269 -2.343414 0
M  V30 31 C -4.371598 -4.427214 -3.432320 0
M  V30 32 O -3.985627 -3.464770 -4.366716 0
M  V30 33 C -3.311300 -2.425721 -3.747785 0
M  V30 34 C -3.775955 -2.201041 -2.312586 0
M  V30 35 C -4.454173 -3.580308 -0.456884 0
M  V30 36 C -4.131259 -4.546349 0.636842 0
M  V30 37 O -4.872966 -5.577407 0.775640 0
M  V30 38 N -3.068001 -4.507987 1.612216 0
M  V30 39 H 3.754719 -4.567951 3.912443 0
M  V30 40 H 4.638831 -2.967176 3.803217 0
M  V30 41 H 4.776711 -4.161205 2.462450 0
M  V30 42 H 4.930607 -1.475601 2.435201 0
M  V30 43 H 4.834710 0.756851 1.401651 0
M  V30 44 H 2.792641 2.158823 -0.702970 0
M  V30 45 H 2.491174 4.145861 -1.052841 0
M  V30 46 H 2.104007 6.580410 -1.394782 0
M  V30 47 H 1.554391 4.674262 3.107521 0
M  V30 48 H 0.686687 0.136099 0.496481 0
M  V30 49 H 0.633305 -2.901848 3.580117 0
M  V30 50 H -1.513374 -4.195499 3.448840 0
M  V30 51 H 0.047403 -1.781191 -0.566683 0
M  V30 52 H -2.337727 -4.665481 -2.867739 0
M  V30 53 H -3.511813 -5.517699 -1.808439 0
M  V30 54 H -4.493123 -5.392237 -3.936660 0
M  V30 55 H -5.344921 -4.114463 -3.033045 0
M  V30 56 H -2.222600 -2.670666 -3.783507 0
M  V30 57 H -3.514682 -1.489716 -4.289702 0
M  V30 58 H -3.275035 -1.242247 -1.991721 0
M  V30 59 H -4.865010 -2.085246 -2.336505 0
M  V30 60 H -5.318254 -3.962794 -0.997055 0
M  V30 61 H -4.767006 -2.596438 -0.019782 0
M  V30 62 H -3.140677 -5.070287 2.482697 0
M  V30 END ATOM
M  V30 BEGIN BOND
M  V30 1 1 1 2
M  V30 2 1 2 3
M  V30 3 2 3 4
M  V30 4 1 4 5
M  V30 5 2 5 6
M  V30 6 1 6 7
M  V30 7 1 7 8
M  V30 8 2 8 9
M  V30 9 1 8 10
M  V30 10 2 10 11
M  V30 11 1 11 12
M  V30 12 2 12 13
M  V30 13 1 13 14
M  V30 14 1 14 15
M  V30 15 1 15 16
M  V30 16 1 15 17
M  V30 17 1 15 18
M  V30 18 2 14 19
M  V30 19 1 6 20
M  V30 20 2 20 21
M  V30 21 1 21 22
M  V30 22 2 22 23
M  V30 23 1 23 24
M  V30 24 2 24 25
M  V30 25 1 25 26
M  V30 26 2 26 27
M  V30 27 1 26 28
M  V30 28 1 28 29
M  V30 29 1 29 30
M  V30 30 1 30 31
M  V30 31 1 31 32
M  V30 32 1 32 33
M  V30 33 1 33 34
M  V30 34 1 29 35
M  V30 35 1 35 36
M  V30 36 2 36 37
M  V30 37 1 36 38
M  V30 38 1 21 3
M  V30 39 1 27 22
M  V30 40 1 34 29
M  V30 41 1 19 10
M  V30 42 1 38 25
M  V30 43 1 1 39
M  V30 44 1 1 40
M  V30 45 1 1 41
M  V30 46 1 4 42
M  V30 47 1 5 43
M  V30 48 1 7 44
M  V30 49 1 11 45
M  V30 50 1 12 46
M  V30 51 1 19 47
M  V30 52 1 20 48
M  V30 53 1 23 49
M  V30 54 1 24 50
M  V30 55 1 27 51
M  V30 56 1 30 52
M  V30 57 1 30 53
M  V30 58 1 31 54
M  V30 59 1 31 55
M  V30 60 1 33 56
M  V30 61 1 33 57
M  V30 62 1 34 58
M  V30 63 1 34 59
M  V30 64 1 35 60
M  V30 65 1 35 61
M  V30 66 1 38 62
M  V30 END BOND
M  V30 END CTAB
M  END
>  <Dataset>  (564) 
ChEMBL_Kinases

>  <Ligand_Instance>  (564) 
nan

>  <PDB_ID>  (564) 
nan

>  <Standardized_SMILES>  (564) 
COc1ccc(NC(=O)c2ccnc(C(F)(F)F)c2)cc1-c1ccc2c(c1)OC1(CCOCC1)CC(=O)N2

>  <Name>  (564) 
nan

>  <Pocket>  (564) 
nan

>  <ATP_Site>  (564) 
nan

>  <Peripheral>  (564) 
nan

>  <Num_H_Atoms_ProtBoundConf>  (564) 
nan

>  <Num_Resolved_Atoms>  (564) 
nan

>  <Num_Not_Resolved_Atoms>  (564) 
nan

$$$$
CHEMBL3798011
     RDKit          3D

  0  0  0  0  0  0  0  0  0  0999 V3000
M  V30 BEGIN CTAB
M  V30 COUNTS 54 58 0 0 0
M  V30 BEGIN ATOM
M  V30 1 C 2.952354 -2.141623 -1.170411 0
M  V30 2 C 1.680049 -1.427909 -0.818040 0 CFG=2
M  V30 3 C 2.076498 -0.774797 0.494423 0
M  V30 4 C 1.945320 -1.494405 1.661647 0
M  V30 5 C 2.303910 -1.019541 2.905376 0
M  V30 6 C 2.827978 0.252289 3.003483 0
M  V30 7 C 2.975605 1.004781 1.857960 0
M  V30 8 C 2.608899 0.505323 0.628426 0
M  V30 9 N 0.525468 -2.209333 -0.600562 0
M  V30 10 C -0.450884 -1.872442 0.425947 0
M  V30 11 C -0.629830 -0.527495 0.787173 0
M  V30 12 C -1.502980 -0.094417 1.757854 0
M  V30 13 N -1.609323 1.301402 2.051645 0
M  V30 14 C -1.304695 1.983915 3.158122 0
M  V30 15 O -0.838639 1.473382 4.203907 0
M  V30 16 N -1.581833 3.284992 2.951376 0
M  V30 17 C -2.071472 3.464896 1.704323 0
M  V30 18 N -2.482453 4.571073 1.055127 0
M  V30 19 C -2.932543 4.449692 -0.210528 0
M  V30 20 C -2.960426 3.203954 -0.804245 0
M  V30 21 C -2.541132 2.035582 -0.158495 0
M  V30 22 C -2.084017 2.203506 1.145497 0
M  V30 23 C -2.250366 -1.074290 2.412168 0
M  V30 24 C -2.105201 -2.406920 2.084971 0
M  V30 25 C -1.221902 -2.816202 1.106691 0
M  V30 26 C -1.045396 -4.220746 0.681951 0
M  V30 27 O -1.743822 -5.078858 1.301662 0
M  V30 28 N -0.129208 -4.490308 -0.361419 0
M  V30 29 C 0.102874 -3.392703 -1.321754 0
M  V30 30 C 1.064378 -3.978265 -2.296965 0
M  V30 31 C -1.232936 -3.127134 -1.964957 0
M  V30 32 H 3.792211 -1.403014 -0.951553 0
M  V30 33 H 3.090816 -2.322517 -2.228968 0
M  V30 34 H 3.219528 -2.956751 -0.473394 0
M  V30 35 H 1.491975 -0.698559 -1.615039 0
M  V30 36 H 1.555976 -2.500585 1.715048 0
M  V30 37 H 2.211139 -1.559313 3.824292 0
M  V30 38 H 3.132550 0.695981 3.939747 0
M  V30 39 H 3.386645 2.024092 1.869222 0
M  V30 40 H 2.706300 1.061171 -0.304019 0
M  V30 41 H -0.082703 0.207669 0.267656 0
M  V30 42 H -1.449416 4.081618 3.640412 0
M  V30 43 H -3.278822 5.322473 -0.782159 0
M  V30 44 H -3.311471 3.029241 -1.824699 0
M  V30 45 H -2.570100 1.068467 -0.639196 0
M  V30 46 H -2.945110 -0.763984 3.180860 0
M  V30 47 H -2.685020 -3.168679 2.591617 0
M  V30 48 H 0.293541 -5.466700 -0.334532 0
M  V30 49 H 1.982562 -4.394825 -1.907628 0
M  V30 50 H 1.147719 -3.281690 -3.158168 0
M  V30 51 H 0.601105 -4.882795 -2.818605 0
M  V30 52 H -1.797288 -4.091193 -2.039233 0
M  V30 53 H -1.807079 -2.478832 -1.264690 0
M  V30 54 H -1.138375 -2.632126 -2.950624 0
M  V30 END ATOM
M  V30 BEGIN BOND
M  V30 1 1 1 2
M  V30 2 1 2 3
M  V30 3 2 3 4
M  V30 4 1 4 5
M  V30 5 2 5 6
M  V30 6 1 6 7
M  V30 7 2 7 8
M  V30 8 1 2 9
M  V30 9 1 9 10
M  V30 10 2 10 11
M  V30 11 1 11 12
M  V30 12 1 12 13
M  V30 13 1 13 14
M  V30 14 2 14 15
M  V30 15 1 14 16
M  V30 16 1 16 17
M  V30 17 2 17 18
M  V30 18 1 18 19
M  V30 19 2 19 20
M  V30 20 1 20 21
M  V30 21 2 21 22
M  V30 22 2 12 23
M  V30 23 1 23 24
M  V30 24 2 24 25
M  V30 25 1 25 26
M  V30 26 2 26 27
M  V30 27 1 26 28
M  V30 28 1 28 29
M  V30 29 1 29 30
M  V30 30 1 29 31
M  V30 31 1 8 3
M  V30 32 1 29 9
M  V30 33 1 25 10
M  V30 34 1 22 13
M  V30 35 1 22 17
M  V30 36 1 1 32
M  V30 37 1 1 33
M  V30 38 1 1 34
M  V30 39 1 2 35 CFG=3
M  V30 40 1 4 36
M  V30 41 1 5 37
M  V30 42 1 6 38
M  V30 43 1 7 39
M  V30 44 1 8 40
M  V30 45 1 11 41
M  V30 46 1 16 42
M  V30 47 1 19 43
M  V30 48 1 20 44
M  V30 49 1 21 45
M  V30 50 1 23 46
M  V30 51 1 24 47
M  V30 52 1 28 48
M  V30 53 1 30 49
M  V30 54 1 30 50
M  V30 55 1 30 51
M  V30 56 1 31 52
M  V30 57 1 31 53
M  V30 58 1 31 54
M  V30 END BOND
M  V30 END CTAB
M  END
>  <Dataset>  (565) 
ChEMBL_Kinases

>  <Ligand_Instance>  (565) 
nan

>  <PDB_ID>  (565) 
nan

>  <Standardized_SMILES>  (565) 
C[C@H](c1ccccc1)N1c2cc(-n3c(=O)[nH]c4ncccc43)ccc2C(=O)NC1(C)C

>  <Name>  (565) 
nan

>  <Pocket>  (565) 
nan

>  <ATP_Site>  (565) 
nan

>  <Peripheral>  (565) 
nan

>  <Num_H_Atoms_ProtBoundConf>  (565) 
nan

>  <Num_Resolved_Atoms>  (565) 
nan

>  <Num_Not_Resolved_Atoms>  (565) 
nan

$$$$
CHEMBL5071096
     RDKit          3D

  0  0  0  0  0  0  0  0  0  0999 V3000
M  V30 BEGIN CTAB
M  V30 COUNTS 48 52 0 0 0
M  V30 BEGIN ATOM
M  V30 1 N 1.972475 -6.407974 2.696959 0
M  V30 2 C 2.024069 -5.351689 2.207526 0
M  V30 3 C 2.100741 -3.995612 1.600084 0
M  V30 4 C 1.388581 -4.036474 0.288349 0
M  V30 5 N 1.369501 -2.804557 -0.450662 0
M  V30 6 C 2.666951 -2.477994 -0.907137 0
M  V30 7 C 2.798120 -1.133644 -1.554718 0
M  V30 8 C 2.203885 -0.114098 -0.658341 0
M  V30 9 C 2.047727 1.258788 -1.220082 0
M  V30 10 C 0.605571 1.596935 -0.810984 0
M  V30 11 N 0.338158 0.667518 0.307390 0
M  V30 12 C -0.117743 0.635586 1.654359 0
M  V30 13 N 0.875614 0.359544 2.550436 0
M  V30 14 C 0.670528 0.309560 3.876138 0
M  V30 15 N -0.586776 0.543986 4.355800 0
M  V30 16 C -1.588435 0.817705 3.499364 0
M  V30 17 N -2.902353 1.079880 3.674125 0
M  V30 18 C -3.483853 1.285285 2.474615 0
M  V30 19 C -4.779576 1.576271 2.092345 0
M  V30 20 C -5.107204 1.730560 0.776421 0
M  V30 21 I -7.094071 2.171428 0.267630 0
M  V30 22 C -4.130663 1.593716 -0.182339 0
M  V30 23 C -2.836873 1.303219 0.199205 0
M  V30 24 C -2.509695 1.149576 1.508103 0
M  V30 25 C -1.358143 0.864090 2.158804 0
M  V30 26 C 0.728135 -0.498689 -0.460568 0
M  V30 27 C 0.692766 -1.793998 0.300228 0
M  V30 28 H 3.179855 -3.804721 1.499489 0
M  V30 29 H 1.576540 -3.306845 2.296972 0
M  V30 30 H 1.879965 -4.784275 -0.377286 0
M  V30 31 H 0.336085 -4.394986 0.425396 0
M  V30 32 H 2.916101 -3.229836 -1.714172 0
M  V30 33 H 3.484222 -2.587587 -0.156770 0
M  V30 34 H 3.902250 -0.905704 -1.608493 0
M  V30 35 H 2.429549 -1.110682 -2.596397 0
M  V30 36 H 2.746281 -0.135176 0.311772 0
M  V30 37 H 2.186009 1.287223 -2.315486 0
M  V30 38 H 2.714255 2.012168 -0.751054 0
M  V30 39 H -0.019391 1.287860 -1.655579 0
M  V30 40 H 0.498937 2.635383 -0.509457 0
M  V30 41 H 1.482229 0.088147 4.565851 0
M  V30 42 H -3.378076 1.114608 4.600280 0
M  V30 43 H -5.533571 1.680629 2.872897 0
M  V30 44 H -4.467075 1.730550 -1.209766 0
M  V30 45 H -2.182763 1.218797 -0.649055 0
M  V30 46 H 0.274978 -0.561363 -1.456255 0
M  V30 47 H 1.098965 -1.626702 1.294122 0
M  V30 48 H -0.368761 -2.103617 0.384665 0
M  V30 END ATOM
M  V30 BEGIN BOND
M  V30 1 3 1 2
M  V30 2 1 2 3
M  V30 3 1 3 4
M  V30 4 1 4 5
M  V30 5 1 5 6
M  V30 6 1 6 7
M  V30 7 1 7 8
M  V30 8 1 8 9
M  V30 9 1 9 10
M  V30 10 1 10 11
M  V30 11 1 11 12
M  V30 12 2 12 13
M  V30 13 1 13 14
M  V30 14 2 14 15
M  V30 15 1 15 16
M  V30 16 1 16 17
M  V30 17 1 17 18
M  V30 18 2 18 19
M  V30 19 1 19 20
M  V30 20 1 20 21
M  V30 21 2 20 22
M  V30 22 1 22 23
M  V30 23 2 23 24
M  V30 24 1 24 25
M  V30 25 1 11 26
M  V30 26 1 26 27
M  V30 27 1 27 5
M  V30 28 1 26 8
M  V30 29 1 25 12
M  V30 30 2 25 16
M  V30 31 1 24 18
M  V30 32 1 3 28
M  V30 33 1 3 29
M  V30 34 1 4 30
M  V30 35 1 4 31
M  V30 36 1 6 32
M  V30 37 1 6 33
M  V30 38 1 7 34
M  V30 39 1 7 35
M  V30 40 1 8 36
M  V30 41 1 9 37
M  V30 42 1 9 38
M  V30 43 1 10 39
M  V30 44 1 10 40
M  V30 45 1 14 41
M  V30 46 1 17 42
M  V30 47 1 19 43
M  V30 48 1 22 44
M  V30 49 1 23 45
M  V30 50 1 26 46
M  V30 51 1 27 47
M  V30 52 1 27 48
M  V30 END BOND
M  V30 END CTAB
M  END
>  <Dataset>  (566) 
ChEMBL_Kinases

>  <Ligand_Instance>  (566) 
nan

>  <PDB_ID>  (566) 
nan

>  <Standardized_SMILES>  (566) 
N#CCCN1CCC2CCN(c3ncnc4[nH]c5cc(I)ccc5c34)C2C1

>  <Name>  (566) 
nan

>  <Pocket>  (566) 
nan

>  <ATP_Site>  (566) 
nan

>  <Peripheral>  (566) 
nan

>  <Num_H_Atoms_ProtBoundConf>  (566) 
nan

>  <Num_Resolved_Atoms>  (566) 
nan

>  <Num_Not_Resolved_Atoms>  (566) 
nan

$$$$
CHEMBL379590
     RDKit          3D

  0  0  0  0  0  0  0  0  0  0999 V3000
M  V30 BEGIN CTAB
M  V30 COUNTS 39 42 0 0 0
M  V30 BEGIN ATOM
M  V30 1 C 1.491943 -4.567104 2.370508 0
M  V30 2 C 0.449680 -3.574193 1.854486 0
M  V30 3 C -0.896782 -4.239629 1.998390 0
M  V30 4 C 0.772468 -3.212011 0.452373 0
M  V30 5 N 0.764340 -4.016611 -0.638235 0
M  V30 6 N 1.110741 -3.350530 -1.705861 0
M  V30 7 C 1.353933 -2.096503 -1.347248 0
M  V30 8 C 1.746975 -0.979246 -2.041624 0
M  V30 9 C 1.921463 0.207627 -1.373256 0
M  V30 10 C 1.706122 0.292206 -0.003830 0
M  V30 11 C 1.930444 1.608756 0.588901 0
M  V30 12 O 3.036849 2.297390 0.842886 0
M  V30 13 C 2.686215 3.459313 1.398668 0
M  V30 14 N 1.337965 3.554149 1.519551 0
M  V30 15 C 0.849424 2.392469 1.012619 0
M  V30 16 C -0.595231 2.209142 1.009902 0
M  V30 17 C -1.342664 1.261251 1.672246 0
M  V30 18 C -2.714329 1.182873 1.589906 0
M  V30 19 C -3.401281 2.106978 0.796614 0
M  V30 20 Cl -5.155015 1.951904 0.739667 0
M  V30 21 C -2.677302 3.062648 0.126998 0
M  V30 22 C -1.293352 3.132082 0.217183 0
M  V30 23 F -0.643308 4.103763 -0.475764 0
M  V30 24 C 1.312625 -0.858261 0.648021 0
M  V30 25 N 1.146356 -2.006498 -0.013927 0
M  V30 26 H 1.111312 -5.577455 2.121843 0
M  V30 27 H 2.447977 -4.465808 1.818898 0
M  V30 28 H 1.600425 -4.476411 3.456019 0
M  V30 29 H 0.521704 -2.711839 2.548787 0
M  V30 30 H -0.838655 -4.851361 2.937594 0
M  V30 31 H -1.104481 -4.941304 1.169824 0
M  V30 32 H -1.726454 -3.518551 2.181770 0
M  V30 33 H 1.913700 -1.040775 -3.092011 0
M  V30 34 H 2.231707 1.060190 -1.958637 0
M  V30 35 H 3.572240 4.046105 1.618473 0
M  V30 36 H -0.763980 0.574614 2.271971 0
M  V30 37 H -3.152722 0.361834 2.183893 0
M  V30 38 H -3.279708 3.729843 -0.462349 0
M  V30 39 H 1.155619 -0.751856 1.710862 0
M  V30 END ATOM
M  V30 BEGIN BOND
M  V30 1 1 1 2
M  V30 2 1 2 3
M  V30 3 1 2 4
M  V30 4 2 4 5
M  V30 5 1 5 6
M  V30 6 2 6 7
M  V30 7 1 7 8
M  V30 8 2 8 9
M  V30 9 1 9 10
M  V30 10 1 10 11
M  V30 11 1 11 12
M  V30 12 1 12 13
M  V30 13 2 13 14
M  V30 14 1 14 15
M  V30 15 1 15 16
M  V30 16 2 16 17
M  V30 17 1 17 18
M  V30 18 2 18 19
M  V30 19 1 19 20
M  V30 20 1 19 21
M  V30 21 2 21 22
M  V30 22 1 22 23
M  V30 23 2 10 24
M  V30 24 1 24 25
M  V30 25 1 25 4
M  V30 26 1 25 7
M  V30 27 2 15 11
M  V30 28 1 22 16
M  V30 29 1 1 26
M  V30 30 1 1 27
M  V30 31 1 1 28
M  V30 32 1 2 29
M  V30 33 1 3 30
M  V30 34 1 3 31
M  V30 35 1 3 32
M  V30 36 1 8 33
M  V30 37 1 9 34
M  V30 38 1 13 35
M  V30 39 1 17 36
M  V30 40 1 18 37
M  V30 41 1 21 38
M  V30 42 1 24 39
M  V30 END BOND
M  V30 END CTAB
M  END
>  <Dataset>  (567) 
ChEMBL_Kinases

>  <Ligand_Instance>  (567) 
nan

>  <PDB_ID>  (567) 
nan

>  <Standardized_SMILES>  (567) 
CC(C)c1nnc2ccc(-c3ocnc3-c3ccc(Cl)cc3F)cn12

>  <Name>  (567) 
nan

>  <Pocket>  (567) 
nan

>  <ATP_Site>  (567) 
nan

>  <Peripheral>  (567) 
nan

>  <Num_H_Atoms_ProtBoundConf>  (567) 
nan

>  <Num_Resolved_Atoms>  (567) 
nan

>  <Num_Not_Resolved_Atoms>  (567) 
nan

$$$$
CHEMBL379787
     RDKit          3D

  0  0  0  0  0  0  0  0  0  0999 V3000
M  V30 BEGIN CTAB
M  V30 COUNTS 50 53 0 0 0
M  V30 BEGIN ATOM
M  V30 1 O -1.159162 -2.415720 0.589952 0
M  V30 2 C -0.065828 -2.890399 0.999521 0
M  V30 3 N 1.116454 -2.287942 0.485553 0
M  V30 4 C 1.173874 -1.206911 -0.438783 0
M  V30 5 N 1.187983 -1.454616 -1.782122 0
M  V30 6 C 1.244396 -0.260483 -2.409745 0
M  V30 7 C 1.292158 0.235144 -3.697042 0
M  V30 8 C 1.355192 1.566406 -3.995846 0
M  V30 9 C 1.373496 2.493297 -2.974774 0
M  V30 10 C 1.326250 2.018169 -1.696210 0
M  V30 11 C 1.262006 0.666017 -1.393524 0
M  V30 12 N 1.218614 0.107365 -0.143155 0
M  V30 13 C 1.201302 0.610534 1.172243 0
M  V30 14 C -0.084075 0.781762 1.892868 0
M  V30 15 N -1.104236 1.602784 1.366817 0
M  V30 16 C -1.838489 1.165309 0.261353 0
M  V30 17 C -2.278250 2.283737 -0.647463 0
M  V30 18 O -2.607688 3.431725 0.073214 0
M  V30 19 C -1.379587 3.916788 0.560428 0
M  V30 20 C -0.898483 2.974490 1.613586 0
M  V30 21 C -0.081794 -3.985334 1.938356 0
M  V30 22 C -1.330562 -4.440801 2.334044 0
M  V30 23 C -1.427250 -5.500769 3.244209 0
M  V30 24 C -0.248400 -6.052412 3.713742 0
M  V30 25 C 1.007808 -5.595400 3.316533 0
M  V30 26 N 2.149105 -6.242611 3.866379 0 CHG=1 VAL=4
M  V30 27 O 3.302375 -5.885881 3.555324 0
M  V30 28 O 2.146269 -7.270246 4.748112 0 CHG=-1 VAL=1
M  V30 29 C 1.081715 -4.550138 2.418956 0
M  V30 30 H 2.046863 -2.652105 0.798565 0
M  V30 31 H 1.276988 -0.497318 -4.495969 0
M  V30 32 H 1.391734 1.949133 -5.000413 0
M  V30 33 H 1.423403 3.567066 -3.145877 0
M  V30 34 H 1.342469 2.758455 -0.891567 0
M  V30 35 H 1.903093 0.042117 1.855972 0
M  V30 36 H 1.725253 1.630985 1.123897 0
M  V30 37 H -0.519912 -0.253045 2.145772 0
M  V30 38 H 0.201136 1.160045 2.940669 0
M  V30 39 H -1.277951 0.433824 -0.351809 0
M  V30 40 H -2.762176 0.564725 0.574261 0
M  V30 41 H -1.453946 2.548657 -1.327982 0
M  V30 42 H -3.155819 1.981123 -1.258126 0
M  V30 43 H -0.630890 3.949559 -0.257814 0
M  V30 44 H -1.536602 4.919399 1.018840 0
M  V30 45 H 0.201691 3.138120 1.767299 0
M  V30 46 H -1.351057 3.309485 2.588357 0
M  V30 47 H -2.244137 -4.022578 1.979318 0
M  V30 48 H -2.382354 -5.894377 3.584804 0
M  V30 49 H -0.291351 -6.886608 4.431790 0
M  V30 50 H 2.059892 -4.201962 2.116750 0
M  V30 END ATOM
M  V30 BEGIN BOND
M  V30 1 2 1 2
M  V30 2 1 2 3
M  V30 3 1 3 4
M  V30 4 2 4 5
M  V30 5 1 5 6
M  V30 6 2 6 7
M  V30 7 1 7 8
M  V30 8 2 8 9
M  V30 9 1 9 10
M  V30 10 2 10 11
M  V30 11 1 11 12
M  V30 12 1 12 13
M  V30 13 1 13 14
M  V30 14 1 14 15
M  V30 15 1 15 16
M  V30 16 1 16 17
M  V30 17 1 17 18
M  V30 18 1 18 19
M  V30 19 1 19 20
M  V30 20 1 2 21
M  V30 21 2 21 22
M  V30 22 1 22 23
M  V30 23 2 23 24
M  V30 24 1 24 25
M  V30 25 1 25 26
M  V30 26 2 26 27
M  V30 27 1 26 28
M  V30 28 2 25 29
M  V30 29 1 12 4
M  V30 30 1 20 15
M  V30 31 1 29 21
M  V30 32 1 11 6
M  V30 33 1 3 30
M  V30 34 1 7 31
M  V30 35 1 8 32
M  V30 36 1 9 33
M  V30 37 1 10 34
M  V30 38 1 13 35
M  V30 39 1 13 36
M  V30 40 1 14 37
M  V30 41 1 14 38
M  V30 42 1 16 39
M  V30 43 1 16 40
M  V30 44 1 17 41
M  V30 45 1 17 42
M  V30 46 1 19 43
M  V30 47 1 19 44
M  V30 48 1 20 45
M  V30 49 1 20 46
M  V30 50 1 22 47
M  V30 51 1 23 48
M  V30 52 1 24 49
M  V30 53 1 29 50
M  V30 END BOND
M  V30 END CTAB
M  END
>  <Dataset>  (568) 
ChEMBL_Kinases

>  <Ligand_Instance>  (568) 
nan

>  <PDB_ID>  (568) 
nan

>  <Standardized_SMILES>  (568) 
O=C(Nc1nc2ccccc2n1CCN1CCOCC1)c1cccc([N+](=O)[O-])c1

>  <Name>  (568) 
nan

>  <Pocket>  (568) 
nan

>  <ATP_Site>  (568) 
nan

>  <Peripheral>  (568) 
nan

>  <Num_H_Atoms_ProtBoundConf>  (568) 
nan

>  <Num_Resolved_Atoms>  (568) 
nan

>  <Num_Not_Resolved_Atoms>  (568) 
nan

$$$$
CHEMBL3797869
     RDKit          3D

  0  0  0  0  0  0  0  0  0  0999 V3000
M  V30 BEGIN CTAB
M  V30 COUNTS 37 39 0 0 0
M  V30 BEGIN ATOM
M  V30 1 C -2.213386 -3.789644 3.879719 0
M  V30 2 C -1.678028 -4.239702 2.535611 0
M  V30 3 C -0.160946 -4.339297 2.547157 0
M  V30 4 S 0.582026 -2.818218 2.880904 0
M  V30 5 C 0.610374 -1.535726 1.653065 0
M  V30 6 S 1.318067 0.081579 2.335461 0
M  V30 7 C 1.154170 0.957041 0.863371 0
M  V30 8 C 1.560558 2.399814 0.763439 0
M  V30 9 C 2.155449 3.061447 1.823757 0
M  V30 10 C 2.385974 4.374103 1.433056 0
M  V30 11 N 1.932981 4.471199 0.172509 0
M  V30 12 N 1.447819 3.286589 -0.203622 0
M  V30 13 C 0.627581 0.115061 -0.039113 0
M  V30 14 C 0.351172 -1.149314 0.359761 0
M  V30 15 C -0.213288 -2.133646 -0.544907 0
M  V30 16 O -0.486691 -3.315361 -0.269107 0
M  V30 17 N -0.505866 -1.798793 -1.890407 0
M  V30 18 C -0.536582 -0.403010 -2.212331 0
M  V30 19 C 0.361071 0.485449 -1.447154 0 CFG=2
M  V30 20 C 1.668133 0.573662 -2.256733 0
M  V30 21 H -1.523970 -3.207675 4.482269 0
M  V30 22 H -2.530136 -4.677240 4.489483 0
M  V30 23 H -3.142330 -3.191129 3.750940 0
M  V30 24 H -2.049909 -3.513749 1.794683 0
M  V30 25 H -2.158151 -5.215354 2.315563 0
M  V30 26 H 0.232735 -4.971522 1.708760 0
M  V30 27 H 0.034318 -5.029573 3.440383 0
M  V30 28 H 2.446348 2.763453 2.812216 0
M  V30 29 H 2.827990 5.203373 1.962576 0
M  V30 30 H 1.886750 5.242760 -0.527913 0
M  V30 31 H -0.698186 -2.529478 -2.641171 0
M  V30 32 H -0.272900 -0.348127 -3.316820 0
M  V30 33 H -1.593095 -0.010216 -2.206227 0
M  V30 34 H -0.063216 1.532274 -1.511808 0
M  V30 35 H 1.349239 0.893839 -3.277977 0
M  V30 36 H 2.393980 1.272059 -1.822967 0
M  V30 37 H 2.097591 -0.453351 -2.393456 0
M  V30 END ATOM
M  V30 BEGIN BOND
M  V30 1 1 1 2
M  V30 2 1 2 3
M  V30 3 1 3 4
M  V30 4 1 4 5
M  V30 5 1 5 6
M  V30 6 1 6 7
M  V30 7 1 7 8
M  V30 8 1 8 9
M  V30 9 2 9 10
M  V30 10 1 10 11
M  V30 11 1 11 12
M  V30 12 2 7 13
M  V30 13 1 13 14
M  V30 14 1 14 15
M  V30 15 2 15 16
M  V30 16 1 15 17
M  V30 17 1 17 18
M  V30 18 1 18 19
M  V30 19 1 19 20
M  V30 20 2 14 5
M  V30 21 2 12 8
M  V30 22 1 19 13
M  V30 23 1 1 21
M  V30 24 1 1 22
M  V30 25 1 1 23
M  V30 26 1 2 24
M  V30 27 1 2 25
M  V30 28 1 3 26
M  V30 29 1 3 27
M  V30 30 1 9 28
M  V30 31 1 10 29
M  V30 32 1 11 30
M  V30 33 1 17 31
M  V30 34 1 18 32
M  V30 35 1 18 33
M  V30 36 1 19 34 CFG=1
M  V30 37 1 20 35
M  V30 38 1 20 36
M  V30 39 1 20 37
M  V30 END BOND
M  V30 END CTAB
M  END
>  <Dataset>  (569) 
ChEMBL_Kinases

>  <Ligand_Instance>  (569) 
nan

>  <PDB_ID>  (569) 
nan

>  <Standardized_SMILES>  (569) 
CCCSc1sc(-c2cc[nH]n2)c2c1C(=O)NC[C@@H]2C

>  <Name>  (569) 
nan

>  <Pocket>  (569) 
nan

>  <ATP_Site>  (569) 
nan

>  <Peripheral>  (569) 
nan

>  <Num_H_Atoms_ProtBoundConf>  (569) 
nan

>  <Num_Resolved_Atoms>  (569) 
nan

>  <Num_Not_Resolved_Atoms>  (569) 
nan

$$$$
CHEMBL3797855
     RDKit          3D

  0  0  0  0  0  0  0  0  0  0999 V3000
M  V30 BEGIN CTAB
M  V30 COUNTS 49 53 0 0 0
M  V30 BEGIN ATOM
M  V30 1 N 0.226429 -6.055227 0.465519 0
M  V30 2 C 1.087508 -5.019404 -0.017805 0
M  V30 3 N 2.419745 -5.074045 -0.192750 0
M  V30 4 N 2.871168 -3.933923 -0.652545 0
M  V30 5 C 1.883597 -3.046544 -0.815594 0
M  V30 6 C 1.749853 -1.722631 -1.253625 0
M  V30 7 C 0.503199 -1.077853 -1.295073 0
M  V30 8 C 0.690133 0.257669 -1.793188 0
M  V30 9 C 1.404374 0.555333 -2.934420 0
M  V30 10 N 1.544940 1.818993 -3.360337 0
M  V30 11 C 0.987649 2.835774 -2.678537 0
M  V30 12 C 0.261367 2.561567 -1.522631 0
M  V30 13 Cl -0.388684 4.015378 -0.772078 0
M  V30 14 C 0.098087 1.256092 -1.054839 0
M  V30 15 N -0.665267 1.253917 0.122465 0
M  V30 16 C 0.334246 1.376278 1.169683 0
M  V30 17 C -0.330797 1.495244 2.536677 0
M  V30 18 C -1.219811 0.313065 2.738530 0
M  V30 19 C -0.361989 -0.915753 2.917661 0
M  V30 20 C 0.268644 -0.689998 4.266345 0
M  V30 21 N -0.824776 -0.007369 4.956998 0
M  V30 22 C -1.904715 0.351400 4.068394 0
M  V30 23 O -3.082588 0.607796 4.449111 0
M  V30 24 C -2.201897 0.190109 1.624776 0
M  V30 25 C -2.057146 1.181735 0.520107 0
M  V30 26 C -0.597802 -1.800631 -0.885459 0
M  V30 27 C -0.464052 -3.103185 -0.454612 0
M  V30 28 C 0.759953 -3.738287 -0.412998 0
M  V30 29 H 0.243190 -6.239930 1.511313 0
M  V30 30 H -0.417004 -6.649844 -0.097348 0
M  V30 31 H 3.880337 -3.725132 -0.871536 0
M  V30 32 H 2.736563 -1.327127 -1.533840 0
M  V30 33 H 1.820932 -0.317139 -3.425259 0
M  V30 34 H 1.151642 3.813790 -3.092657 0
M  V30 35 H 0.882028 2.360888 1.061284 0
M  V30 36 H 1.075231 0.577666 1.176959 0
M  V30 37 H -1.003711 2.397347 2.547074 0
M  V30 38 H 0.415802 1.592931 3.331937 0
M  V30 39 H -1.063529 -1.765458 3.018239 0
M  V30 40 H 0.414644 -1.059447 2.174103 0
M  V30 41 H 0.442476 -1.703488 4.694188 0
M  V30 42 H 1.177890 -0.077302 4.219115 0
M  V30 43 H -0.746969 0.164105 6.003856 0
M  V30 44 H -3.222440 0.393948 2.075000 0
M  V30 45 H -2.295331 -0.853622 1.252818 0
M  V30 46 H -2.717626 0.995524 -0.335001 0
M  V30 47 H -2.283363 2.215824 0.916763 0
M  V30 48 H -1.484552 -1.203895 -0.969040 0
M  V30 49 H -1.404678 -3.582592 -0.152144 0
M  V30 END ATOM
M  V30 BEGIN BOND
M  V30 1 1 1 2
M  V30 2 2 2 3
M  V30 3 1 3 4
M  V30 4 1 4 5
M  V30 5 2 5 6
M  V30 6 1 6 7
M  V30 7 1 7 8
M  V30 8 2 8 9
M  V30 9 1 9 10
M  V30 10 2 10 11
M  V30 11 1 11 12
M  V30 12 1 12 13
M  V30 13 2 12 14
M  V30 14 1 14 15
M  V30 15 1 15 16
M  V30 16 1 16 17
M  V30 17 1 17 18
M  V30 18 1 18 19
M  V30 19 1 19 20
M  V30 20 1 20 21
M  V30 21 1 21 22
M  V30 22 2 22 23
M  V30 23 1 18 24
M  V30 24 1 24 25
M  V30 25 2 7 26
M  V30 26 1 26 27
M  V30 27 2 27 28
M  V30 28 1 28 2
M  V30 29 1 28 5
M  V30 30 1 14 8
M  V30 31 1 25 15
M  V30 32 1 22 18
M  V30 33 1 1 29
M  V30 34 1 1 30
M  V30 35 1 4 31
M  V30 36 1 6 32
M  V30 37 1 9 33
M  V30 38 1 11 34
M  V30 39 1 16 35
M  V30 40 1 16 36
M  V30 41 1 17 37
M  V30 42 1 17 38
M  V30 43 1 19 39
M  V30 44 1 19 40
M  V30 45 1 20 41
M  V30 46 1 20 42
M  V30 47 1 21 43
M  V30 48 1 24 44
M  V30 49 1 24 45
M  V30 50 1 25 46
M  V30 51 1 25 47
M  V30 52 1 26 48
M  V30 53 1 27 49
M  V30 END BOND
M  V30 END CTAB
M  END
>  <Dataset>  (570) 
ChEMBL_Kinases

>  <Ligand_Instance>  (570) 
nan

>  <PDB_ID>  (570) 
nan

>  <Standardized_SMILES>  (570) 
Nc1n[nH]c2cc(-c3cncc(Cl)c3N3CCC4(CCNC4=O)CC3)ccc12

>  <Name>  (570) 
nan

>  <Pocket>  (570) 
nan

>  <ATP_Site>  (570) 
nan

>  <Peripheral>  (570) 
nan

>  <Num_H_Atoms_ProtBoundConf>  (570) 
nan

>  <Num_Resolved_Atoms>  (570) 
nan

>  <Num_Not_Resolved_Atoms>  (570) 
nan

$$$$
CHEMBL379783
     RDKit          3D

  0  0  0  0  0  0  0  0  0  0999 V3000
M  V30 BEGIN CTAB
M  V30 COUNTS 40 44 0 0 0
M  V30 BEGIN ATOM
M  V30 1 F 4.225422 -4.988131 2.273888 0
M  V30 2 C 3.905891 -3.837715 1.634484 0
M  V30 3 C 2.684853 -3.633418 1.025794 0
M  V30 4 C 2.378123 -2.454761 0.380014 0
M  V30 5 C 3.334080 -1.458822 0.351109 0
M  V30 6 C 3.181775 -0.135324 -0.288510 0
M  V30 7 N 3.879172 0.395120 -1.329493 0
M  V30 8 C 3.334989 1.633594 -1.510219 0
M  V30 9 O 2.372917 1.816106 -0.624007 0
M  V30 10 C 2.234575 0.770947 0.148308 0
M  V30 11 C 1.284422 0.599508 1.241967 0
M  V30 12 C 1.578141 0.487820 2.562026 0
M  V30 13 C 0.635050 0.322601 3.554244 0
M  V30 14 C -0.679668 0.272169 3.139845 0
M  V30 15 N -1.833716 0.121428 3.831698 0
M  V30 16 N -2.830514 0.136629 2.973932 0
M  V30 17 C -2.337843 0.298061 1.710846 0
M  V30 18 C -3.204326 0.350274 0.537099 0
M  V30 19 C -3.250571 1.296977 -0.466135 0
M  V30 20 C -4.150505 1.166634 -1.503497 0
M  V30 21 C -5.036003 0.088793 -1.579356 0
M  V30 22 C -5.005146 -0.878163 -0.576663 0
M  V30 23 C -4.089274 -0.725617 0.459850 0
M  V30 24 N -0.997610 0.380567 1.835565 0
M  V30 25 C -0.057124 0.541277 0.887913 0
M  V30 26 C 4.587841 -1.616290 0.953405 0
M  V30 27 C 4.841521 -2.827783 1.590999 0
M  V30 28 H 1.943934 -4.406089 1.048165 0
M  V30 29 H 1.439350 -2.240384 -0.113856 0
M  V30 30 H 3.685525 2.308871 -2.278975 0
M  V30 31 H 2.636628 0.532648 2.845030 0
M  V30 32 H 0.931425 0.240947 4.585254 0
M  V30 33 H -2.542809 2.091133 -0.339091 0
M  V30 34 H -4.150685 1.928128 -2.264939 0
M  V30 35 H -5.745040 -0.010987 -2.398859 0
M  V30 36 H -5.685310 -1.715925 -0.623887 0
M  V30 37 H -4.135079 -1.521316 1.192639 0
M  V30 38 H -0.343415 0.627191 -0.170742 0
M  V30 39 H 5.361047 -0.861540 0.951872 0
M  V30 40 H 5.821434 -2.943601 2.058112 0
M  V30 END ATOM
M  V30 BEGIN BOND
M  V30 1 1 1 2
M  V30 2 2 2 3
M  V30 3 1 3 4
M  V30 4 2 4 5
M  V30 5 1 5 6
M  V30 6 1 6 7
M  V30 7 2 7 8
M  V30 8 1 8 9
M  V30 9 1 9 10
M  V30 10 1 10 11
M  V30 11 1 11 12
M  V30 12 2 12 13
M  V30 13 1 13 14
M  V30 14 2 14 15
M  V30 15 1 15 16
M  V30 16 2 16 17
M  V30 17 1 17 18
M  V30 18 2 18 19
M  V30 19 1 19 20
M  V30 20 2 20 21
M  V30 21 1 21 22
M  V30 22 2 22 23
M  V30 23 1 17 24
M  V30 24 1 24 25
M  V30 25 1 5 26
M  V30 26 2 26 27
M  V30 27 1 27 2
M  V30 28 2 10 6
M  V30 29 2 25 11
M  V30 30 1 24 14
M  V30 31 1 23 18
M  V30 32 1 3 28
M  V30 33 1 4 29
M  V30 34 1 8 30
M  V30 35 1 12 31
M  V30 36 1 13 32
M  V30 37 1 19 33
M  V30 38 1 20 34
M  V30 39 1 21 35
M  V30 40 1 22 36
M  V30 41 1 23 37
M  V30 42 1 25 38
M  V30 43 1 26 39
M  V30 44 1 27 40
M  V30 END BOND
M  V30 END CTAB
M  END
>  <Dataset>  (571) 
ChEMBL_Kinases

>  <Ligand_Instance>  (571) 
nan

>  <PDB_ID>  (571) 
nan

>  <Standardized_SMILES>  (571) 
Fc1ccc(-c2ncoc2-c2ccc3nnc(-c4ccccc4)n3c2)cc1

>  <Name>  (571) 
nan

>  <Pocket>  (571) 
nan

>  <ATP_Site>  (571) 
nan

>  <Peripheral>  (571) 
nan

>  <Num_H_Atoms_ProtBoundConf>  (571) 
nan

>  <Num_Resolved_Atoms>  (571) 
nan

>  <Num_Not_Resolved_Atoms>  (571) 
nan

$$$$
CHEMBL5071182
     RDKit          3D

  0  0  0  0  0  0  0  0  0  0999 V3000
M  V30 BEGIN CTAB
M  V30 COUNTS 66 70 0 0 0
M  V30 BEGIN ATOM
M  V30 1 N 4.538487 0.878112 3.077643 0
M  V30 2 C 4.692830 2.194334 3.608829 0
M  V30 3 C 4.898927 2.151522 4.978282 0
M  V30 4 C 5.079250 3.304472 5.722504 0
M  V30 5 C 5.046963 4.523971 5.046158 0
M  V30 6 C 4.842313 4.575169 3.683575 0
M  V30 7 C 4.663208 3.424498 2.946256 0
M  V30 8 N 4.446894 3.289374 1.547077 0
M  V30 9 C 3.273791 2.694879 1.002582 0
M  V30 10 C 2.249637 2.332513 1.854060 0
M  V30 11 C 1.110294 1.749263 1.334496 0
M  V30 12 C 1.056255 1.556438 -0.033633 0
M  V30 13 C 2.077595 1.913170 -0.922116 0
M  V30 14 C 3.208508 2.497766 -0.360918 0
M  V30 15 C 2.116305 1.750135 -2.378462 0
M  V30 16 C 0.845751 1.939326 -3.114574 0
M  V30 17 C -0.177881 0.892796 -2.902656 0
M  V30 18 C -0.726283 0.282302 -4.031579 0
M  V30 19 C -1.688158 -0.703500 -3.888268 0
M  V30 20 C -2.148298 -1.128675 -2.660281 0
M  V30 21 C -3.161533 -2.173610 -2.609834 0
M  V30 22 O -3.567944 -2.625038 -3.712240 0
M  V30 23 N -3.710153 -2.706261 -1.416880 0
M  V30 24 C -4.703769 -3.740166 -1.601108 0
M  V30 25 C -5.234710 -4.263007 -0.304308 0
M  V30 26 N -4.309483 -4.857598 0.574971 0
M  V30 27 C -3.710978 -6.087503 0.207603 0
M  V30 28 C -3.394464 -6.825691 1.516756 0
M  V30 29 N -2.578761 -6.010185 2.372979 0
M  V30 30 C -3.275759 -4.779452 2.703613 0
M  V30 31 C -3.496096 -4.022871 1.383850 0
M  V30 32 C -1.604878 -0.523646 -1.547908 0
M  V30 33 C -0.643893 0.461720 -1.675203 0
M  V30 34 C -0.248559 0.920187 -0.340120 0
M  V30 35 O -1.070912 0.765812 0.620728 0
M  V30 36 H 5.158696 0.610455 2.280559 0
M  V30 37 H 3.833494 0.208075 3.469346 0
M  V30 38 H 4.942483 1.266876 5.599227 0
M  V30 39 H 5.244518 3.319547 6.803825 0
M  V30 40 H 5.176974 5.489863 5.527704 0
M  V30 41 H 4.803066 5.471140 3.085650 0
M  V30 42 H 5.205464 3.654213 0.935964 0
M  V30 43 H 2.258062 2.471000 2.926447 0
M  V30 44 H 0.286220 1.451774 1.968341 0
M  V30 45 H 4.001039 2.775038 -1.040489 0
M  V30 46 H 2.819574 2.539185 -2.760324 0
M  V30 47 H 2.600519 0.782131 -2.632853 0
M  V30 48 H 0.408793 2.917994 -2.841530 0
M  V30 49 H 1.089404 2.014707 -4.191608 0
M  V30 50 H -0.345460 0.637644 -4.964389 0
M  V30 51 H -2.029971 -1.094961 -4.850165 0
M  V30 52 H -3.320670 -2.272221 -0.554721 0
M  V30 53 H -5.579767 -3.266263 -2.136485 0
M  V30 54 H -4.340401 -4.526851 -2.293658 0
M  V30 55 H -6.060202 -5.010223 -0.489640 0
M  V30 56 H -5.778136 -3.411284 0.191518 0
M  V30 57 H -4.444785 -6.737894 -0.313619 0
M  V30 58 H -2.756760 -5.988264 -0.335467 0
M  V30 59 H -4.370560 -6.975756 2.004316 0
M  V30 60 H -2.952044 -7.809671 1.312750 0
M  V30 61 H -1.642093 -5.801062 1.996790 0
M  V30 62 H -2.693569 -4.153216 3.381705 0
M  V30 63 H -4.249913 -5.038905 3.137717 0
M  V30 64 H -4.007414 -3.080181 1.590700 0
M  V30 65 H -2.466471 -3.851164 0.989566 0
M  V30 66 H -1.927804 -0.816581 -0.561818 0
M  V30 END ATOM
M  V30 BEGIN BOND
M  V30 1 1 1 2
M  V30 2 2 2 3
M  V30 3 1 3 4
M  V30 4 2 4 5
M  V30 5 1 5 6
M  V30 6 2 6 7
M  V30 7 1 7 8
M  V30 8 1 8 9
M  V30 9 2 9 10
M  V30 10 1 10 11
M  V30 11 2 11 12
M  V30 12 1 12 13
M  V30 13 2 13 14
M  V30 14 1 13 15
M  V30 15 1 15 16
M  V30 16 1 16 17
M  V30 17 2 17 18
M  V30 18 1 18 19
M  V30 19 2 19 20
M  V30 20 1 20 21
M  V30 21 2 21 22
M  V30 22 1 21 23
M  V30 23 1 23 24
M  V30 24 1 24 25
M  V30 25 1 25 26
M  V30 26 1 26 27
M  V30 27 1 27 28
M  V30 28 1 28 29
M  V30 29 1 29 30
M  V30 30 1 30 31
M  V30 31 1 20 32
M  V30 32 2 32 33
M  V30 33 1 33 34
M  V30 34 2 34 35
M  V30 35 1 7 2
M  V30 36 1 14 9
M  V30 37 1 33 17
M  V30 38 1 34 12
M  V30 39 1 31 26
M  V30 40 1 1 36
M  V30 41 1 1 37
M  V30 42 1 3 38
M  V30 43 1 4 39
M  V30 44 1 5 40
M  V30 45 1 6 41
M  V30 46 1 8 42
M  V30 47 1 10 43
M  V30 48 1 11 44
M  V30 49 1 14 45
M  V30 50 1 15 46
M  V30 51 1 15 47
M  V30 52 1 16 48
M  V30 53 1 16 49
M  V30 54 1 18 50
M  V30 55 1 19 51
M  V30 56 1 23 52
M  V30 57 1 24 53
M  V30 58 1 24 54
M  V30 59 1 25 55
M  V30 60 1 25 56
M  V30 61 1 27 57
M  V30 62 1 27 58
M  V30 63 1 28 59
M  V30 64 1 28 60
M  V30 65 1 29 61
M  V30 66 1 30 62
M  V30 67 1 30 63
M  V30 68 1 31 64
M  V30 69 1 31 65
M  V30 70 1 32 66
M  V30 END BOND
M  V30 END CTAB
M  END
>  <Dataset>  (572) 
ChEMBL_Kinases

>  <Ligand_Instance>  (572) 
nan

>  <PDB_ID>  (572) 
nan

>  <Standardized_SMILES>  (572) 
Nc1ccccc1Nc1ccc2c(c1)CCc1ccc(C(=O)NCCN3CCNCC3)cc1C2=O

>  <Name>  (572) 
nan

>  <Pocket>  (572) 
nan

>  <ATP_Site>  (572) 
nan

>  <Peripheral>  (572) 
nan

>  <Num_H_Atoms_ProtBoundConf>  (572) 
nan

>  <Num_Resolved_Atoms>  (572) 
nan

>  <Num_Not_Resolved_Atoms>  (572) 
nan

$$$$
CHEMBL5071355
     RDKit          3D

  0  0  0  0  0  0  0  0  0  0999 V3000
M  V30 BEGIN CTAB
M  V30 COUNTS 57 61 0 0 0
M  V30 BEGIN ATOM
M  V30 1 C 2.687101 -0.769196 4.775268 0
M  V30 2 N 1.704313 -1.466693 4.006938 0
M  V30 3 C 2.112241 -1.833888 2.692346 0
M  V30 4 C 2.491185 -0.712755 1.809293 0
M  V30 5 C 3.817196 -0.445902 1.537698 0
M  V30 6 C 4.242280 0.582225 0.723330 0
M  V30 7 O 5.567210 0.864464 0.439950 0
M  V30 8 C 6.615640 0.095475 0.980852 0
M  V30 9 C 3.288415 1.408267 0.133027 0
M  V30 10 C 1.955885 1.126060 0.416427 0
M  V30 11 C 1.545706 0.090904 1.235840 0
M  V30 12 C 0.066043 0.061673 1.339219 0
M  V30 13 N -0.314519 1.166866 0.474939 0
M  V30 14 C -1.745952 1.324583 0.383912 0
M  V30 15 C -2.606061 2.085384 1.149970 0
M  V30 16 C -3.947656 2.041292 0.832134 0
M  V30 17 C -4.407973 1.265947 -0.210915 0
M  V30 18 C -3.534481 0.512166 -0.965627 0
M  V30 19 C -3.975228 -0.338099 -2.093315 0
M  V30 20 N -4.715585 -0.109657 -3.192424 0
M  V30 21 N -4.811180 -1.232617 -3.891442 0
M  V30 22 C -4.112440 -2.155104 -3.195472 0
M  V30 23 N -3.569641 -1.633021 -2.056255 0
M  V30 24 C -2.767253 -2.369115 -1.099660 0 CFG=1
M  V30 25 C -3.605035 -2.920347 0.050516 0
M  V30 26 C -2.165715 -3.554250 -1.822311 0
M  V30 27 C -1.263907 -3.251294 -3.008737 0
M  V30 28 C -0.695386 -3.795630 -1.703780 0
M  V30 29 N -2.226718 0.576447 -0.629957 0
M  V30 30 C 0.794406 1.847351 -0.096112 0
M  V30 31 O 0.617656 2.832828 -0.852328 0
M  V30 32 H 3.427088 -0.319126 4.093765 0
M  V30 33 H 2.204350 0.049200 5.346371 0
M  V30 34 H 3.153358 -1.518632 5.478925 0
M  V30 35 H 0.747648 -1.105204 4.094086 0
M  V30 36 H 1.296730 -2.445260 2.242798 0
M  V30 37 H 2.980252 -2.540148 2.811127 0
M  V30 38 H 4.560216 -1.083907 1.993225 0
M  V30 39 H 6.390569 -0.185231 2.036557 0
M  V30 40 H 7.520554 0.764236 1.037618 0
M  V30 41 H 6.839348 -0.827311 0.409127 0
M  V30 42 H 3.573703 2.232288 -0.517055 0
M  V30 43 H -0.265151 0.252382 2.395962 0
M  V30 44 H -0.399169 -0.876988 1.026541 0
M  V30 45 H -2.089300 2.628725 1.919300 0
M  V30 46 H -4.574375 2.649767 1.457014 0
M  V30 47 H -5.462979 1.247243 -0.441235 0
M  V30 48 H -3.983383 -3.207178 -3.493584 0
M  V30 49 H -1.925331 -1.779795 -0.702990 0
M  V30 50 H -3.287015 -3.941325 0.344639 0
M  V30 51 H -3.448675 -2.255947 0.914576 0
M  V30 52 H -4.684180 -2.994257 -0.231173 0
M  V30 53 H -2.756173 -4.502569 -1.867987 0
M  V30 54 H -1.241713 -3.971510 -3.867682 0
M  V30 55 H -1.091019 -2.179780 -3.231312 0
M  V30 56 H -0.164737 -3.066310 -1.026331 0
M  V30 57 H -0.299148 -4.831479 -1.694512 0
M  V30 END ATOM
M  V30 BEGIN BOND
M  V30 1 1 1 2
M  V30 2 1 2 3
M  V30 3 1 3 4
M  V30 4 2 4 5
M  V30 5 1 5 6
M  V30 6 1 6 7
M  V30 7 1 7 8
M  V30 8 2 6 9
M  V30 9 1 9 10
M  V30 10 2 10 11
M  V30 11 1 11 12
M  V30 12 1 12 13
M  V30 13 1 13 14
M  V30 14 2 14 15
M  V30 15 1 15 16
M  V30 16 2 16 17
M  V30 17 1 17 18
M  V30 18 1 18 19
M  V30 19 2 19 20
M  V30 20 1 20 21
M  V30 21 2 21 22
M  V30 22 1 22 23
M  V30 23 1 23 24
M  V30 24 1 24 25
M  V30 25 1 24 26
M  V30 26 1 26 27
M  V30 27 1 27 28
M  V30 28 2 18 29
M  V30 29 1 13 30
M  V30 30 2 30 31
M  V30 31 1 11 4
M  V30 32 1 29 14
M  V30 33 1 30 10
M  V30 34 1 23 19
M  V30 35 1 28 26
M  V30 36 1 1 32
M  V30 37 1 1 33
M  V30 38 1 1 34
M  V30 39 1 2 35
M  V30 40 1 3 36
M  V30 41 1 3 37
M  V30 42 1 5 38
M  V30 43 1 8 39
M  V30 44 1 8 40
M  V30 45 1 8 41
M  V30 46 1 9 42
M  V30 47 1 12 43
M  V30 48 1 12 44
M  V30 49 1 15 45
M  V30 50 1 16 46
M  V30 51 1 17 47
M  V30 52 1 22 48
M  V30 53 1 24 49 CFG=1
M  V30 54 1 25 50
M  V30 55 1 25 51
M  V30 56 1 25 52
M  V30 57 1 26 53
M  V30 58 1 27 54
M  V30 59 1 27 55
M  V30 60 1 28 56
M  V30 61 1 28 57
M  V30 END BOND
M  V30 END CTAB
M  END
>  <Dataset>  (573) 
ChEMBL_Kinases

>  <Ligand_Instance>  (573) 
nan

>  <PDB_ID>  (573) 
nan

>  <Standardized_SMILES>  (573) 
CNCc1cc(OC)cc2c1CN(c1cccc(-c3nncn3[C@@H](C)C3CC3)n1)C2=O

>  <Name>  (573) 
nan

>  <Pocket>  (573) 
nan

>  <ATP_Site>  (573) 
nan

>  <Peripheral>  (573) 
nan

>  <Num_H_Atoms_ProtBoundConf>  (573) 
nan

>  <Num_Resolved_Atoms>  (573) 
nan

>  <Num_Not_Resolved_Atoms>  (573) 
nan

$$$$
CHEMBL3797823
     RDKit          3D

  0  0  0  0  0  0  0  0  0  0999 V3000
M  V30 BEGIN CTAB
M  V30 COUNTS 62 66 0 0 0
M  V30 BEGIN ATOM
M  V30 1 C 6.678595 -2.113025 3.516513 0
M  V30 2 C 5.322385 -2.573664 3.046596 0
M  V30 3 C 4.582033 -3.348894 4.104692 0
M  V30 4 N 4.561223 -1.432166 2.576542 0
M  V30 5 C 3.462601 -1.474209 1.800918 0
M  V30 6 C 3.008740 -0.194367 1.554767 0
M  V30 7 C 1.896181 0.378505 0.804456 0
M  V30 8 C 1.284116 1.553920 1.176196 0
M  V30 9 C 0.235273 2.056808 0.434850 0
M  V30 10 C -0.256381 1.415253 -0.712741 0
M  V30 11 C -1.351884 2.157250 -1.314519 0
M  V30 12 C -1.134117 3.489086 -1.576689 0
M  V30 13 N -2.176314 4.136524 -2.148451 0
M  V30 14 C -3.324613 3.481986 -2.422611 0
M  V30 15 N -4.296128 4.305463 -3.012602 0
M  V30 16 C -3.555173 2.146340 -2.164188 0
M  V30 17 Cl -5.104232 1.448469 -2.581978 0
M  V30 18 C -2.501741 1.455540 -1.576608 0
M  V30 19 N -2.834764 0.093839 -1.343071 0
M  V30 20 C -2.755737 -1.165765 -2.051335 0
M  V30 21 C -2.134201 -2.291564 -1.321505 0
M  V30 22 C -2.510325 -2.464586 0.108409 0
M  V30 23 C -3.777759 -3.237702 0.301807 0
M  V30 24 C -3.437131 -4.294751 1.320684 0
M  V30 25 N -2.040836 -4.602013 1.116515 0
M  V30 26 C -1.484352 -3.349918 0.731780 0
M  V30 27 O -0.303079 -2.867351 0.822718 0
M  V30 28 C -2.558454 -1.107880 0.774353 0
M  V30 29 C -3.428525 -0.220259 -0.084863 0
M  V30 30 C 0.361982 0.240778 -1.077270 0
M  V30 31 C 1.407941 -0.245645 -0.323834 0
M  V30 32 C 3.906791 0.636759 2.234346 0
M  V30 33 N 4.831664 -0.158414 2.839797 0
M  V30 34 H 6.553029 -1.087481 3.944142 0
M  V30 35 H 7.054756 -2.823617 4.288278 0
M  V30 36 H 7.357236 -2.111153 2.633632 0
M  V30 37 H 5.476303 -3.273508 2.192408 0
M  V30 38 H 3.658903 -2.838691 4.450191 0
M  V30 39 H 5.290687 -3.507836 4.957179 0
M  V30 40 H 4.264729 -4.360646 3.754793 0
M  V30 41 H 2.945514 -2.315014 1.388776 0
M  V30 42 H 1.673649 2.036315 2.061760 0
M  V30 43 H -0.155733 2.995875 0.843906 0
M  V30 44 H -0.183307 3.934510 -1.324321 0
M  V30 45 H -5.167071 4.241664 -2.407348 0
M  V30 46 H -5.110426 4.861957 -3.317908 0
M  V30 47 H -3.738868 -1.440628 -2.507778 0
M  V30 48 H -2.099313 -0.956471 -2.947559 0
M  V30 49 H -2.483047 -3.237421 -1.845569 0
M  V30 50 H -1.014438 -2.280174 -1.369876 0
M  V30 51 H -4.632250 -2.624129 0.655988 0
M  V30 52 H -4.039311 -3.765105 -0.648509 0
M  V30 53 H -4.069183 -5.197433 1.111025 0
M  V30 54 H -3.586566 -3.937324 2.364664 0
M  V30 55 H -1.426179 -5.443517 1.182403 0
M  V30 56 H -3.054827 -1.171796 1.763091 0
M  V30 57 H -1.543618 -0.722733 0.909577 0
M  V30 58 H -4.420143 -0.712721 -0.174736 0
M  V30 59 H -3.614266 0.690986 0.514521 0
M  V30 60 H -0.063904 -0.179056 -1.962770 0
M  V30 61 H 1.814593 -1.165429 -0.697909 0
M  V30 62 H 3.938091 1.713989 2.317981 0
M  V30 END ATOM
M  V30 BEGIN BOND
M  V30 1 1 1 2
M  V30 2 1 2 3
M  V30 3 1 2 4
M  V30 4 1 4 5
M  V30 5 2 5 6
M  V30 6 1 6 7
M  V30 7 2 7 8
M  V30 8 1 8 9
M  V30 9 2 9 10
M  V30 10 1 10 11
M  V30 11 2 11 12
M  V30 12 1 12 13
M  V30 13 2 13 14
M  V30 14 1 14 15
M  V30 15 1 14 16
M  V30 16 1 16 17
M  V30 17 2 16 18
M  V30 18 1 18 19
M  V30 19 1 19 20
M  V30 20 1 20 21
M  V30 21 1 21 22
M  V30 22 1 22 23
M  V30 23 1 23 24
M  V30 24 1 24 25
M  V30 25 1 25 26
M  V30 26 2 26 27
M  V30 27 1 22 28
M  V30 28 1 28 29
M  V30 29 1 10 30
M  V30 30 2 30 31
M  V30 31 1 6 32
M  V30 32 2 32 33
M  V30 33 1 33 4
M  V30 34 1 31 7
M  V30 35 1 18 11
M  V30 36 1 29 19
M  V30 37 1 26 22
M  V30 38 1 1 34
M  V30 39 1 1 35
M  V30 40 1 1 36
M  V30 41 1 2 37
M  V30 42 1 3 38
M  V30 43 1 3 39
M  V30 44 1 3 40
M  V30 45 1 5 41
M  V30 46 1 8 42
M  V30 47 1 9 43
M  V30 48 1 12 44
M  V30 49 1 15 45
M  V30 50 1 15 46
M  V30 51 1 20 47
M  V30 52 1 20 48
M  V30 53 1 21 49
M  V30 54 1 21 50
M  V30 55 1 23 51
M  V30 56 1 23 52
M  V30 57 1 24 53
M  V30 58 1 24 54
M  V30 59 1 25 55
M  V30 60 1 28 56
M  V30 61 1 28 57
M  V30 62 1 29 58
M  V30 63 1 29 59
M  V30 64 1 30 60
M  V30 65 1 31 61
M  V30 66 1 32 62
M  V30 END BOND
M  V30 END CTAB
M  END
>  <Dataset>  (574) 
ChEMBL_Kinases

>  <Ligand_Instance>  (574) 
nan

>  <PDB_ID>  (574) 
nan

>  <Standardized_SMILES>  (574) 
CC(C)n1cc(-c2ccc(-c3cnc(N)c(Cl)c3N3CCC4(CCNC4=O)CC3)cc2)cn1

>  <Name>  (574) 
nan

>  <Pocket>  (574) 
nan

>  <ATP_Site>  (574) 
nan

>  <Peripheral>  (574) 
nan

>  <Num_H_Atoms_ProtBoundConf>  (574) 
nan

>  <Num_Resolved_Atoms>  (574) 
nan

>  <Num_Not_Resolved_Atoms>  (574) 
nan

$$$$
CHEMBL5071369
     RDKit          3D

  0  0  0  0  0  0  0  0  0  0999 V3000
M  V30 BEGIN CTAB
M  V30 COUNTS 37 39 0 0 0
M  V30 BEGIN ATOM
M  V30 1 C 1.253187 -5.490794 0.004205 0
M  V30 2 C 0.257791 -4.904540 0.608274 0
M  V30 3 C 0.492707 -3.515664 0.941674 0
M  V30 4 O 1.500919 -3.998304 0.363410 0
M  V30 5 N 0.458380 -2.162685 1.377992 0
M  V30 6 C 1.655225 -1.417851 1.095297 0
M  V30 7 O 2.727839 -2.091184 0.904002 0
M  V30 8 C 1.672656 0.054642 1.023507 0
M  V30 9 C 0.603799 0.629012 0.156916 0
M  V30 10 C 0.935396 1.817765 -0.598406 0
M  V30 11 C 0.786429 1.782261 -1.987660 0
M  V30 12 C 1.089950 2.896899 -2.772535 0
M  V30 13 C 1.543199 4.060253 -2.206196 0
M  V30 14 F 1.833964 5.134327 -2.980133 0
M  V30 15 C 1.704328 4.133088 -0.822861 0
M  V30 16 C 1.392663 3.002561 -0.065567 0
M  V30 17 S -0.819494 0.999389 1.221026 0
M  V30 18 C -1.327880 -0.529263 1.983771 0
M  V30 19 C -2.526217 -0.341886 2.658565 0
M  V30 20 C -3.104704 -1.405192 3.324298 0
M  V30 21 C -2.504004 -2.651262 3.325531 0
M  V30 22 C -1.312741 -2.877896 2.666634 0
M  V30 23 C -0.747369 -1.802897 2.005520 0
M  V30 24 H 1.972481 -6.148055 -0.505121 0
M  V30 25 H 1.976165 -6.134785 -0.502562 0
M  V30 26 H -0.664914 -5.415777 0.838610 0
M  V30 27 H 2.669575 0.321446 0.608839 0
M  V30 28 H 1.616720 0.499400 2.031015 0
M  V30 29 H 0.264198 -0.154474 -0.571811 0
M  V30 30 H 0.431661 0.899324 -2.526837 0
M  V30 31 H 0.977680 2.880125 -3.854511 0
M  V30 32 H 2.058563 5.032100 -0.344846 0
M  V30 33 H 1.519920 3.067679 1.000829 0
M  V30 34 H -3.044373 0.608928 2.694039 0
M  V30 35 H -4.037274 -1.366656 3.881095 0
M  V30 36 H -2.911442 -3.518466 3.829242 0
M  V30 37 H -0.797336 -3.847989 2.637724 0
M  V30 END ATOM
M  V30 BEGIN BOND
M  V30 1 2 1 2
M  V30 2 1 2 3
M  V30 3 2 3 4
M  V30 4 1 3 5
M  V30 5 1 5 6
M  V30 6 2 6 7
M  V30 7 1 6 8
M  V30 8 1 8 9
M  V30 9 1 9 10
M  V30 10 2 10 11
M  V30 11 1 11 12
M  V30 12 2 12 13
M  V30 13 1 13 14
M  V30 14 1 13 15
M  V30 15 2 15 16
M  V30 16 1 9 17
M  V30 17 1 17 18
M  V30 18 2 18 19
M  V30 19 1 19 20
M  V30 20 2 20 21
M  V30 21 1 21 22
M  V30 22 2 22 23
M  V30 23 1 23 5
M  V30 24 1 16 10
M  V30 25 1 23 18
M  V30 26 1 1 24
M  V30 27 1 1 25
M  V30 28 1 2 26
M  V30 29 1 8 27
M  V30 30 1 8 28
M  V30 31 1 9 29
M  V30 32 1 11 30
M  V30 33 1 12 31
M  V30 34 1 15 32
M  V30 35 1 16 33
M  V30 36 1 19 34
M  V30 37 1 20 35
M  V30 38 1 21 36
M  V30 39 1 22 37
M  V30 END BOND
M  V30 END CTAB
M  END
>  <Dataset>  (575) 
ChEMBL_Kinases

>  <Ligand_Instance>  (575) 
nan

>  <PDB_ID>  (575) 
nan

>  <Standardized_SMILES>  (575) 
C=CC(=O)N1C(=O)CC(c2ccc(F)cc2)Sc2ccccc21

>  <Name>  (575) 
nan

>  <Pocket>  (575) 
nan

>  <ATP_Site>  (575) 
nan

>  <Peripheral>  (575) 
nan

>  <Num_H_Atoms_ProtBoundConf>  (575) 
nan

>  <Num_Resolved_Atoms>  (575) 
nan

>  <Num_Not_Resolved_Atoms>  (575) 
nan

$$$$
CHEMBL3702250
     RDKit          3D

  0  0  0  0  0  0  0  0  0  0999 V3000
M  V30 BEGIN CTAB
M  V30 COUNTS 58 60 0 0 0
M  V30 BEGIN ATOM
M  V30 1 C 1.139275 -0.842026 0.769389 0
M  V30 2 C 0.885782 -0.592327 2.212674 0
M  V30 3 C 1.545430 0.470897 2.826519 0
M  V30 4 C 2.436265 1.511292 2.224324 0
M  V30 5 O 2.867187 1.705176 1.031195 0
M  V30 6 N 2.951052 2.523499 3.054507 0
M  V30 7 C 3.768252 3.391990 2.225074 0
M  V30 8 C 2.953596 3.977068 1.128620 0
M  V30 9 C 2.296571 4.439158 0.221552 0
M  V30 10 C 1.490301 4.979527 -0.894830 0
M  V30 11 N 0.351650 4.151812 -1.123399 0
M  V30 12 C -0.635190 4.169377 -0.095188 0
M  V30 13 C -0.150769 4.130528 -2.461359 0
M  V30 14 S 1.124312 0.458223 4.507958 0
M  V30 15 C 0.017365 -1.042495 4.335392 0
M  V30 16 N -0.698123 -1.643119 5.342629 0
M  V30 17 C -1.449478 -2.703361 5.034093 0
M  V30 18 N -1.378710 -3.007794 3.769474 0
M  V30 19 C -0.696928 -2.442258 2.785039 0
M  V30 20 N -0.923028 -3.042916 1.542264 0
M  V30 21 C -1.526324 -4.220826 1.110131 0
M  V30 22 C -2.048466 -5.089939 2.040836 0
M  V30 23 C -2.686784 -6.294378 1.742998 0
M  V30 24 C -2.797741 -6.632143 0.389504 0
M  V30 25 F -3.405948 -7.791728 -0.014491 0
M  V30 26 C -2.282549 -5.777382 -0.551162 0
M  V30 27 C -1.648725 -4.580342 -0.245431 0
M  V30 28 O -1.119093 -3.696643 -1.156351 0
M  V30 29 C -1.130694 -3.839604 -2.533754 0
M  V30 30 C -1.709274 -2.592429 -3.192361 0
M  V30 31 F -1.683984 -2.825337 -4.551439 0
M  V30 32 C 0.265779 -4.027543 -3.112935 0
M  V30 33 F 1.105463 -2.978116 -2.851553 0
M  V30 34 C 0.102346 -1.357315 3.000654 0
M  V30 35 H 2.095566 -0.298854 0.480809 0
M  V30 36 H 0.326948 -0.477935 0.150823 0
M  V30 37 H 1.437006 -1.899528 0.552095 0
M  V30 38 H 2.722834 2.557923 4.093692 0
M  V30 39 H 4.178479 4.230687 2.820998 0
M  V30 40 H 4.614255 2.893707 1.741093 0
M  V30 41 H 2.168851 5.044965 -1.765771 0
M  V30 42 H 1.130965 6.008636 -0.669782 0
M  V30 43 H -0.290609 3.650424 0.817188 0
M  V30 44 H -0.971708 5.194383 0.210727 0
M  V30 45 H -1.541163 3.594689 -0.440482 0
M  V30 46 H -0.966683 3.388330 -2.522367 0
M  V30 47 H 0.688269 3.724770 -3.099548 0
M  V30 48 H -0.425435 5.120145 -2.870854 0
M  V30 49 H -1.951130 -3.079209 5.894074 0
M  V30 50 H -0.617350 -2.495455 0.732771 0
M  V30 51 H -2.063583 -5.021595 3.118503 0
M  V30 52 H -3.116654 -7.019496 2.414701 0
M  V30 53 H -2.386547 -6.072029 -1.564947 0
M  V30 54 H -1.694648 -4.733240 -2.823168 0
M  V30 55 H -1.000254 -1.770108 -2.943630 0
M  V30 56 H -2.743363 -2.401792 -2.887843 0
M  V30 57 H 0.675317 -5.013695 -2.830110 0
M  V30 58 H 0.146427 -4.052094 -4.232278 0
M  V30 END ATOM
M  V30 BEGIN BOND
M  V30 1 1 1 2
M  V30 2 2 2 3
M  V30 3 1 3 4
M  V30 4 2 4 5
M  V30 5 1 4 6
M  V30 6 1 6 7
M  V30 7 1 7 8
M  V30 8 3 8 9
M  V30 9 1 9 10
M  V30 10 1 10 11
M  V30 11 1 11 12
M  V30 12 1 11 13
M  V30 13 1 3 14
M  V30 14 1 14 15
M  V30 15 2 15 16
M  V30 16 1 16 17
M  V30 17 2 17 18
M  V30 18 1 18 19
M  V30 19 1 19 20
M  V30 20 1 20 21
M  V30 21 2 21 22
M  V30 22 1 22 23
M  V30 23 2 23 24
M  V30 24 1 24 25
M  V30 25 1 24 26
M  V30 26 2 26 27
M  V30 27 1 27 28
M  V30 28 1 28 29
M  V30 29 1 29 30
M  V30 30 1 30 31
M  V30 31 1 29 32
M  V30 32 1 32 33
M  V30 33 2 19 34
M  V30 34 1 34 2
M  V30 35 1 34 15
M  V30 36 1 27 21
M  V30 37 1 1 35
M  V30 38 1 1 36
M  V30 39 1 1 37
M  V30 40 1 6 38
M  V30 41 1 7 39
M  V30 42 1 7 40
M  V30 43 1 10 41
M  V30 44 1 10 42
M  V30 45 1 12 43
M  V30 46 1 12 44
M  V30 47 1 12 45
M  V30 48 1 13 46
M  V30 49 1 13 47
M  V30 50 1 13 48
M  V30 51 1 17 49
M  V30 52 1 20 50
M  V30 53 1 22 51
M  V30 54 1 23 52
M  V30 55 1 26 53
M  V30 56 1 29 54
M  V30 57 1 30 55
M  V30 58 1 30 56
M  V30 59 1 32 57
M  V30 60 1 32 58
M  V30 END BOND
M  V30 END CTAB
M  END
>  <Dataset>  (576) 
ChEMBL_Kinases

>  <Ligand_Instance>  (576) 
nan

>  <PDB_ID>  (576) 
nan

>  <Standardized_SMILES>  (576) 
Cc1c(C(=O)NCC#CCN(C)C)sc2ncnc(Nc3ccc(F)cc3OC(CF)CF)c12

>  <Name>  (576) 
nan

>  <Pocket>  (576) 
nan

>  <ATP_Site>  (576) 
nan

>  <Peripheral>  (576) 
nan

>  <Num_H_Atoms_ProtBoundConf>  (576) 
nan

>  <Num_Resolved_Atoms>  (576) 
nan

>  <Num_Not_Resolved_Atoms>  (576) 
nan

$$$$
CHEMBL5071460
     RDKit          3D

  0  0  0  0  0  0  0  0  0  0999 V3000
M  V30 BEGIN CTAB
M  V30 COUNTS 55 59 0 0 0
M  V30 BEGIN ATOM
M  V30 1 O -2.808070 -4.456857 -0.907372 0
M  V30 2 C -1.565831 -4.212918 -0.808531 0
M  V30 3 C -1.300172 -3.510923 0.435088 0
M  V30 4 C -1.328584 -2.156175 0.505137 0
M  V30 5 C -1.071262 -1.527652 1.705122 0
M  V30 6 C -1.094208 -0.071029 1.812945 0
M  V30 7 C -1.363906 0.795657 0.773691 0
M  V30 8 C -1.361951 2.161154 0.973351 0
M  V30 9 C -1.087754 2.703066 2.229506 0
M  V30 10 N -1.086642 4.112827 2.427636 0
M  V30 11 S 0.093035 4.986448 3.283591 0
M  V30 12 O 0.140872 4.466788 4.694562 0
M  V30 13 O -0.349111 6.436383 3.306386 0
M  V30 14 C 1.697734 4.873975 2.605284 0
M  V30 15 C 2.765910 4.350093 3.343678 0
M  V30 16 C 4.051111 4.242714 2.845908 0
M  V30 17 C 4.228097 4.692677 1.545496 0
M  V30 18 C 3.231592 5.222518 0.747730 0
M  V30 19 Cl 3.544264 5.765632 -0.883276 0
M  V30 20 C 1.962554 5.298488 1.318920 0
M  V30 21 Cl 0.622578 5.961013 0.378463 0
M  V30 22 C -0.808531 1.866422 3.314173 0
M  V30 23 C -0.829373 0.514264 3.034996 0
M  V30 24 N -0.797926 -2.291725 2.775906 0
M  V30 25 C -0.767049 -3.634968 2.717739 0
M  V30 26 N -0.522389 -4.608124 3.633890 0
M  V30 27 N -0.616776 -5.794396 3.057281 0
M  V30 28 C -0.919198 -5.680781 1.769192 0
M  V30 29 C -1.019993 -4.326880 1.527973 0
M  V30 30 N -0.977607 -4.738109 -1.966888 0
M  V30 31 C -1.923790 -5.363450 -2.870086 0
M  V30 32 C -1.489675 -5.104597 -4.302471 0
M  V30 33 N -0.792837 -3.832958 -4.339452 0
M  V30 34 C 0.509112 -3.945151 -3.696989 0
M  V30 35 C 0.416794 -4.772301 -2.433658 0
M  V30 36 H -1.553739 -1.630507 -0.391838 0
M  V30 37 H -1.573473 0.388358 -0.185724 0
M  V30 38 H -1.572946 2.841756 0.161428 0
M  V30 39 H -1.928920 4.550716 1.965155 0
M  V30 40 H 2.526990 4.027313 4.344902 0
M  V30 41 H 4.862955 3.838801 3.422034 0
M  V30 42 H 5.214696 4.648708 1.062106 0
M  V30 43 H -0.589576 2.227971 4.307567 0
M  V30 44 H -0.612033 -0.143693 3.877118 0
M  V30 45 H -0.298077 -4.406037 4.630211 0
M  V30 46 H -1.081876 -6.391823 0.966095 0
M  V30 47 H -2.016956 -6.449642 -2.662244 0
M  V30 48 H -2.954694 -4.965532 -2.774865 0
M  V30 49 H -0.758550 -5.876527 -4.610237 0
M  V30 50 H -2.367221 -5.036139 -4.943540 0
M  V30 51 H -0.643055 -3.476299 -5.308633 0
M  V30 52 H 1.154888 -4.465106 -4.426127 0
M  V30 53 H 0.932419 -2.948314 -3.525790 0
M  V30 54 H 1.091771 -4.299557 -1.696124 0
M  V30 55 H 0.731460 -5.796515 -2.659165 0
M  V30 END ATOM
M  V30 BEGIN BOND
M  V30 1 2 1 2
M  V30 2 1 2 3
M  V30 3 2 3 4
M  V30 4 1 4 5
M  V30 5 1 5 6
M  V30 6 2 6 7
M  V30 7 1 7 8
M  V30 8 2 8 9
M  V30 9 1 9 10
M  V30 10 1 10 11
M  V30 11 2 11 12
M  V30 12 2 11 13
M  V30 13 1 11 14
M  V30 14 2 14 15
M  V30 15 1 15 16
M  V30 16 2 16 17
M  V30 17 1 17 18
M  V30 18 1 18 19
M  V30 19 2 18 20
M  V30 20 1 20 21
M  V30 21 1 9 22
M  V30 22 2 22 23
M  V30 23 2 5 24
M  V30 24 1 24 25
M  V30 25 1 25 26
M  V30 26 1 26 27
M  V30 27 2 27 28
M  V30 28 1 28 29
M  V30 29 1 2 30
M  V30 30 1 30 31
M  V30 31 1 31 32
M  V30 32 1 32 33
M  V30 33 1 33 34
M  V30 34 1 34 35
M  V30 35 1 29 3
M  V30 36 1 35 30
M  V30 37 1 23 6
M  V30 38 2 29 25
M  V30 39 1 20 14
M  V30 40 1 4 36
M  V30 41 1 7 37
M  V30 42 1 8 38
M  V30 43 1 10 39
M  V30 44 1 15 40
M  V30 45 1 16 41
M  V30 46 1 17 42
M  V30 47 1 22 43
M  V30 48 1 23 44
M  V30 49 1 26 45
M  V30 50 1 28 46
M  V30 51 1 31 47
M  V30 52 1 31 48
M  V30 53 1 32 49
M  V30 54 1 32 50
M  V30 55 1 33 51
M  V30 56 1 34 52
M  V30 57 1 34 53
M  V30 58 1 35 54
M  V30 59 1 35 55
M  V30 END BOND
M  V30 END CTAB
M  END
>  <Dataset>  (577) 
ChEMBL_Kinases

>  <Ligand_Instance>  (577) 
nan

>  <PDB_ID>  (577) 
nan

>  <Standardized_SMILES>  (577) 
O=C(c1cc(-c2ccc(NS(=O)(=O)c3cccc(Cl)c3Cl)cc2)nc2[nH]ncc12)N1CCNCC1

>  <Name>  (577) 
nan

>  <Pocket>  (577) 
nan

>  <ATP_Site>  (577) 
nan

>  <Peripheral>  (577) 
nan

>  <Num_H_Atoms_ProtBoundConf>  (577) 
nan

>  <Num_Resolved_Atoms>  (577) 
nan

>  <Num_Not_Resolved_Atoms>  (577) 
nan

$$$$
CHEMBL3702251
     RDKit          3D

  0  0  0  0  0  0  0  0  0  0999 V3000
M  V30 BEGIN CTAB
M  V30 COUNTS 63 66 0 0 0
M  V30 BEGIN ATOM
M  V30 1 C 0.035382 -0.917240 2.535301 0
M  V30 2 C 0.218206 -1.300225 1.112000 0
M  V30 3 C 0.949634 -0.543714 0.264214 0
M  V30 4 C 1.693073 0.650589 0.186718 0
M  V30 5 O 2.226822 0.921504 -0.955530 0
M  V30 6 N 2.072199 1.717787 0.992067 0
M  V30 7 C 2.770591 2.930512 1.057912 0
M  V30 8 C 2.285067 4.058488 0.220548 0
M  V30 9 C 2.255485 3.890616 -1.250498 0
M  V30 10 N 3.559129 3.594096 -1.839280 0
M  V30 11 C 3.400981 3.456524 -3.252201 0
M  V30 12 C 4.582904 4.137215 -3.904828 0
M  V30 13 C 5.260689 4.921993 -2.812286 0
M  V30 14 C 4.388514 4.735366 -1.590034 0
M  V30 15 S 0.885961 -1.475011 -1.292004 0
M  V30 16 C -0.118494 -2.805991 -0.685127 0
M  V30 17 N -0.594470 -3.911283 -1.302957 0
M  V30 18 C -1.345036 -4.803654 -0.673677 0
M  V30 19 N -1.560398 -4.480192 0.597620 0
M  V30 20 C -1.116978 -3.410899 1.247789 0
M  V30 21 N -1.547768 -3.361539 2.601204 0
M  V30 22 C -2.344420 -4.421990 3.139985 0
M  V30 23 C -2.012847 -5.276846 4.201695 0
M  V30 24 C -2.792080 -6.293029 4.705848 0
M  V30 25 C -4.011085 -6.461249 4.085662 0
M  V30 26 F -4.805384 -7.455147 4.557537 0
M  V30 27 C -4.401339 -5.658389 3.038096 0
M  V30 28 C -3.598993 -4.648531 2.555109 0
M  V30 29 O -3.972563 -3.832867 1.506804 0
M  V30 30 C -5.174924 -3.885129 0.786683 0
M  V30 31 C -5.808479 -2.501027 0.926372 0
M  V30 32 F -6.008664 -2.300375 2.283080 0
M  V30 33 C -4.802929 -4.132258 -0.676087 0
M  V30 34 F -5.939937 -4.197559 -1.459907 0
M  V30 35 C -0.334436 -2.456801 0.642120 0
M  V30 36 H 0.401638 -1.744622 3.202643 0
M  V30 37 H 0.681202 -0.079763 2.788665 0
M  V30 38 H -1.012729 -0.669783 2.773192 0
M  V30 39 H 1.670414 1.584317 1.943254 0
M  V30 40 H 3.872766 2.794758 0.724683 0
M  V30 41 H 2.949401 3.287219 2.122010 0
M  V30 42 H 2.890739 5.001408 0.416929 0
M  V30 43 H 1.251407 4.379750 0.529428 0
M  V30 44 H 1.434170 3.321138 -1.679445 0
M  V30 45 H 2.050689 4.952708 -1.656390 0
M  V30 46 H 2.494278 3.942908 -3.648602 0
M  V30 47 H 3.391500 2.361429 -3.520703 0
M  V30 48 H 4.314879 4.840370 -4.697635 0
M  V30 49 H 5.289150 3.396413 -4.355774 0
M  V30 50 H 6.287720 4.517471 -2.667539 0
M  V30 51 H 5.398863 5.990653 -3.061953 0
M  V30 52 H 5.055894 4.491326 -0.715251 0
M  V30 53 H 3.806923 5.660190 -1.394246 0
M  V30 54 H -1.677713 -5.645101 -1.234106 0
M  V30 55 H -1.562969 -2.843750 3.488306 0
M  V30 56 H -1.026389 -5.056647 4.620542 0
M  V30 57 H -2.391704 -6.862877 5.529216 0
M  V30 58 H -5.365819 -5.880846 2.636300 0
M  V30 59 H -5.869245 -4.670216 1.121212 0
M  V30 60 H -5.140465 -1.713064 0.577215 0
M  V30 61 H -6.739088 -2.424135 0.330172 0
M  V30 62 H -4.173071 -3.279187 -0.980613 0
M  V30 63 H -4.231317 -5.068381 -0.721168 0
M  V30 END ATOM
M  V30 BEGIN BOND
M  V30 1 1 1 2
M  V30 2 2 2 3
M  V30 3 1 3 4
M  V30 4 2 4 5
M  V30 5 1 4 6
M  V30 6 1 6 7
M  V30 7 1 7 8
M  V30 8 1 8 9
M  V30 9 1 9 10
M  V30 10 1 10 11
M  V30 11 1 11 12
M  V30 12 1 12 13
M  V30 13 1 13 14
M  V30 14 1 3 15
M  V30 15 1 15 16
M  V30 16 2 16 17
M  V30 17 1 17 18
M  V30 18 2 18 19
M  V30 19 1 19 20
M  V30 20 1 20 21
M  V30 21 1 21 22
M  V30 22 2 22 23
M  V30 23 1 23 24
M  V30 24 2 24 25
M  V30 25 1 25 26
M  V30 26 1 25 27
M  V30 27 2 27 28
M  V30 28 1 28 29
M  V30 29 1 29 30
M  V30 30 1 30 31
M  V30 31 1 31 32
M  V30 32 1 30 33
M  V30 33 1 33 34
M  V30 34 2 20 35
M  V30 35 1 35 2
M  V30 36 1 14 10
M  V30 37 1 35 16
M  V30 38 1 28 22
M  V30 39 1 1 36
M  V30 40 1 1 37
M  V30 41 1 1 38
M  V30 42 1 6 39
M  V30 43 1 7 40
M  V30 44 1 7 41
M  V30 45 1 8 42
M  V30 46 1 8 43
M  V30 47 1 9 44
M  V30 48 1 9 45
M  V30 49 1 11 46
M  V30 50 1 11 47
M  V30 51 1 12 48
M  V30 52 1 12 49
M  V30 53 1 13 50
M  V30 54 1 13 51
M  V30 55 1 14 52
M  V30 56 1 14 53
M  V30 57 1 18 54
M  V30 58 1 21 55
M  V30 59 1 23 56
M  V30 60 1 24 57
M  V30 61 1 27 58
M  V30 62 1 30 59
M  V30 63 1 31 60
M  V30 64 1 31 61
M  V30 65 1 33 62
M  V30 66 1 33 63
M  V30 END BOND
M  V30 END CTAB
M  END
>  <Dataset>  (578) 
ChEMBL_Kinases

>  <Ligand_Instance>  (578) 
nan

>  <PDB_ID>  (578) 
nan

>  <Standardized_SMILES>  (578) 
Cc1c(C(=O)NCCCN2CCCC2)sc2ncnc(Nc3ccc(F)cc3OC(CF)CF)c12

>  <Name>  (578) 
nan

>  <Pocket>  (578) 
nan

>  <ATP_Site>  (578) 
nan

>  <Peripheral>  (578) 
nan

>  <Num_H_Atoms_ProtBoundConf>  (578) 
nan

>  <Num_Resolved_Atoms>  (578) 
nan

>  <Num_Not_Resolved_Atoms>  (578) 
nan

$$$$
CHEMBL3702249
     RDKit          3D

  0  0  0  0  0  0  0  0  0  0999 V3000
M  V30 BEGIN CTAB
M  V30 COUNTS 49 51 0 0 0
M  V30 BEGIN ATOM
M  V30 1 C 1.008844 -1.193198 1.231634 0
M  V30 2 C 1.752280 -0.126700 0.516027 0
M  V30 3 C 3.112218 0.001444 0.700423 0
M  V30 4 C 4.030617 -0.895297 1.537419 0
M  V30 5 O 3.826227 -1.915827 2.241062 0
M  V30 6 N 5.388738 -0.559353 1.566463 0
M  V30 7 C 6.401613 -1.273905 2.303019 0
M  V30 8 C 6.141814 -1.265845 3.805467 0
M  V30 9 O 6.129147 0.067235 4.223000 0
M  V30 10 S 3.658994 1.364163 -0.189824 0
M  V30 11 C 1.954591 1.779320 -0.847063 0
M  V30 12 N 1.594593 2.807896 -1.670555 0
M  V30 13 C 0.310414 2.943824 -2.030779 0
M  V30 14 N -0.427322 2.010907 -1.502501 0
M  V30 15 C -0.115132 1.009706 -0.709466 0
M  V30 16 N -1.223236 0.214931 -0.387985 0
M  V30 17 C -2.600948 0.456209 -0.424220 0
M  V30 18 C -3.158440 1.683821 -0.804433 0
M  V30 19 C -4.509662 1.964486 -0.858872 0
M  V30 20 C -5.395778 0.981852 -0.518655 0
M  V30 21 F -6.726738 1.228044 -0.563522 0
M  V30 22 C -4.896764 -0.236633 -0.140087 0
M  V30 23 C -3.548939 -0.525487 -0.083689 0
M  V30 24 O -3.063647 -1.746570 0.295926 0
M  V30 25 C -3.758417 -2.876634 0.707258 0
M  V30 26 C -3.791277 -3.937688 -0.387749 0
M  V30 27 F -4.468894 -5.055873 0.004614 0
M  V30 28 C -3.170854 -3.501762 1.944856 0
M  V30 29 F -1.857747 -3.896797 1.738841 0
M  V30 30 C 1.167948 0.785818 -0.279201 0
M  V30 31 H 0.715965 -2.055517 0.642301 0
M  V30 32 H 0.087980 -0.803912 1.759735 0
M  V30 33 H 1.654331 -1.597037 2.056332 0
M  V30 34 H 5.720089 0.283121 1.007489 0
M  V30 35 H 7.371690 -0.724894 2.190002 0
M  V30 36 H 6.511942 -2.332907 1.971076 0
M  V30 37 H 6.963066 -1.801539 4.341725 0
M  V30 38 H 5.158197 -1.697644 4.016458 0
M  V30 39 H 5.289654 0.257798 4.719055 0
M  V30 40 H 0.204931 3.789579 -2.667942 0
M  V30 41 H -1.009309 -0.749730 -0.107924 0
M  V30 42 H -2.568098 2.538784 -1.087188 0
M  V30 43 H -4.913140 2.924421 -1.158146 0
M  V30 44 H -5.642825 -0.966965 0.111856 0
M  V30 45 H -4.816512 -2.599698 0.891640 0
M  V30 46 H -4.289418 -3.522285 -1.289847 0
M  V30 47 H -2.771604 -4.202521 -0.667496 0
M  V30 48 H -3.116750 -2.765303 2.797545 0
M  V30 49 H -3.721535 -4.373288 2.301521 0
M  V30 END ATOM
M  V30 BEGIN BOND
M  V30 1 1 1 2
M  V30 2 2 2 3
M  V30 3 1 3 4
M  V30 4 2 4 5
M  V30 5 1 4 6
M  V30 6 1 6 7
M  V30 7 1 7 8
M  V30 8 1 8 9
M  V30 9 1 3 10
M  V30 10 1 10 11
M  V30 11 2 11 12
M  V30 12 1 12 13
M  V30 13 2 13 14
M  V30 14 1 14 15
M  V30 15 1 15 16
M  V30 16 1 16 17
M  V30 17 2 17 18
M  V30 18 1 18 19
M  V30 19 2 19 20
M  V30 20 1 20 21
M  V30 21 1 20 22
M  V30 22 2 22 23
M  V30 23 1 23 24
M  V30 24 1 24 25
M  V30 25 1 25 26
M  V30 26 1 26 27
M  V30 27 1 25 28
M  V30 28 1 28 29
M  V30 29 2 15 30
M  V30 30 1 30 2
M  V30 31 1 30 11
M  V30 32 1 23 17
M  V30 33 1 1 31
M  V30 34 1 1 32
M  V30 35 1 1 33
M  V30 36 1 6 34
M  V30 37 1 7 35
M  V30 38 1 7 36
M  V30 39 1 8 37
M  V30 40 1 8 38
M  V30 41 1 9 39
M  V30 42 1 13 40
M  V30 43 1 16 41
M  V30 44 1 18 42
M  V30 45 1 19 43
M  V30 46 1 22 44
M  V30 47 1 25 45
M  V30 48 1 26 46
M  V30 49 1 26 47
M  V30 50 1 28 48
M  V30 51 1 28 49
M  V30 END BOND
M  V30 END CTAB
M  END
>  <Dataset>  (579) 
ChEMBL_Kinases

>  <Ligand_Instance>  (579) 
nan

>  <PDB_ID>  (579) 
nan

>  <Standardized_SMILES>  (579) 
Cc1c(C(=O)NCCO)sc2ncnc(Nc3ccc(F)cc3OC(CF)CF)c12

>  <Name>  (579) 
nan

>  <Pocket>  (579) 
nan

>  <ATP_Site>  (579) 
nan

>  <Peripheral>  (579) 
nan

>  <Num_H_Atoms_ProtBoundConf>  (579) 
nan

>  <Num_Resolved_Atoms>  (579) 
nan

>  <Num_Not_Resolved_Atoms>  (579) 
nan

$$$$
CHEMBL3798426
     RDKit          3D

  0  0  0  0  0  0  0  0  0  0999 V3000
M  V30 BEGIN CTAB
M  V30 COUNTS 31 33 0 0 0
M  V30 BEGIN ATOM
M  V30 1 C 1.485523 -2.224341 5.163207 0
M  V30 2 S 2.418632 -0.979983 4.204284 0
M  V30 3 C 1.778458 -0.975424 2.485695 0
M  V30 4 S 2.358205 -1.994399 1.069944 0
M  V30 5 C 1.261384 -1.355532 -0.022800 0
M  V30 6 C 1.193554 -1.786330 -1.466945 0
M  V30 7 C 2.036479 -2.742807 -1.988277 0
M  V30 8 C 1.683925 -2.877895 -3.336629 0
M  V30 9 N 0.657063 -2.004674 -3.556141 0
M  V30 10 N 0.371393 -1.359077 -2.438624 0
M  V30 11 C 0.487353 -0.420058 0.623838 0
M  V30 12 C 0.769827 -0.235068 1.928353 0
M  V30 13 C -0.041579 0.755876 2.660591 0
M  V30 14 O 0.155906 0.998232 3.898491 0
M  V30 15 N -1.082347 1.473103 1.975406 0
M  V30 16 C -1.707009 0.669155 0.918448 0
M  V30 17 C -2.773710 1.505488 0.248256 0
M  V30 18 F -3.369554 0.766575 -0.745371 0
M  V30 19 F -3.752061 1.729842 1.222992 0
M  V30 20 F -2.312787 2.722451 -0.154394 0
M  V30 21 C -0.591328 0.356646 -0.043739 0
M  V30 22 H 0.390624 -2.014891 5.039793 0
M  V30 23 H 1.651534 -3.259045 4.778864 0
M  V30 24 H 1.780312 -2.114638 6.203881 0
M  V30 25 H 2.829665 -3.326695 -1.553358 0
M  V30 26 H 2.061193 -3.495392 -4.124709 0
M  V30 27 H 0.082529 -1.760215 -4.393548 0
M  V30 28 H -1.307154 2.470335 2.267978 0
M  V30 29 H -2.211996 -0.211149 1.328427 0
M  V30 30 H -0.137342 1.317587 -0.360733 0
M  V30 31 H -1.012057 -0.151991 -0.917715 0
M  V30 END ATOM
M  V30 BEGIN BOND
M  V30 1 1 1 2
M  V30 2 1 2 3
M  V30 3 1 3 4
M  V30 4 1 4 5
M  V30 5 1 5 6
M  V30 6 1 6 7
M  V30 7 2 7 8
M  V30 8 1 8 9
M  V30 9 1 9 10
M  V30 10 2 5 11
M  V30 11 1 11 12
M  V30 12 1 12 13
M  V30 13 2 13 14
M  V30 14 1 13 15
M  V30 15 1 15 16
M  V30 16 1 16 17
M  V30 17 1 17 18
M  V30 18 1 17 19
M  V30 19 1 17 20
M  V30 20 1 16 21
M  V30 21 2 12 3
M  V30 22 2 10 6
M  V30 23 1 21 11
M  V30 24 1 1 22
M  V30 25 1 1 23
M  V30 26 1 1 24
M  V30 27 1 7 25
M  V30 28 1 8 26
M  V30 29 1 9 27
M  V30 30 1 15 28
M  V30 31 1 16 29
M  V30 32 1 21 30
M  V30 33 1 21 31
M  V30 END BOND
M  V30 END CTAB
M  END
>  <Dataset>  (580) 
ChEMBL_Kinases

>  <Ligand_Instance>  (580) 
nan

>  <PDB_ID>  (580) 
nan

>  <Standardized_SMILES>  (580) 
CSc1sc(-c2cc[nH]n2)c2c1C(=O)NC(C(F)(F)F)C2

>  <Name>  (580) 
nan

>  <Pocket>  (580) 
nan

>  <ATP_Site>  (580) 
nan

>  <Peripheral>  (580) 
nan

>  <Num_H_Atoms_ProtBoundConf>  (580) 
nan

>  <Num_Resolved_Atoms>  (580) 
nan

>  <Num_Not_Resolved_Atoms>  (580) 
nan

$$$$
CHEMBL3702240
     RDKit          3D

  0  0  0  0  0  0  0  0  0  0999 V3000
M  V30 BEGIN CTAB
M  V30 COUNTS 62 67 0 0 0
M  V30 BEGIN ATOM
M  V30 1 C 3.426661 0.610939 8.459318 0
M  V30 2 N 2.309748 1.279781 7.833986 0
M  V30 3 C 2.573919 1.646165 6.476620 0
M  V30 4 C 2.811272 0.510985 5.534722 0
M  V30 5 C 3.349223 1.127045 4.246399 0
M  V30 6 N 2.279937 1.885482 3.652677 0
M  V30 7 C 1.660718 1.580368 2.411055 0
M  V30 8 C 0.844840 2.461712 1.740249 0
M  V30 9 C 0.247145 2.140484 0.542014 0
M  V30 10 C 0.475876 0.884603 -0.007207 0
M  V30 11 N -0.136487 0.506477 -1.260739 0
M  V30 12 C 0.004550 -0.745086 -1.914940 0
M  V30 13 N 1.082753 -1.470668 -2.253111 0
M  V30 14 C 0.991966 -2.658481 -2.868413 0
M  V30 15 C -0.253825 -3.161632 -3.169099 0
M  V30 16 C -0.707049 -4.321383 -3.779838 0
M  V30 17 C -0.065833 -5.413187 -4.322498 0
M  V30 18 C -0.758630 -6.484666 -4.897342 0
M  V30 19 N -2.102268 -6.357049 -4.874349 0
M  V30 20 C -2.761249 -5.312993 -4.356706 0
M  V30 21 C -2.098014 -4.248650 -3.786928 0
M  V30 22 N -2.510455 -3.111946 -3.215935 0
M  V30 23 C -3.836359 -2.611396 -2.996192 0 CFG=2
M  V30 24 C -4.733005 -2.679450 -4.195257 0
M  V30 25 C -5.327130 -1.303668 -4.402797 0
M  V30 26 N -5.173702 -0.697879 -3.094275 0
M  V30 27 C -3.806580 -1.108269 -2.740694 0
M  V30 28 C -1.384463 -2.446309 -2.837937 0
M  V30 29 N -1.227943 -1.241994 -2.211867 0
M  V30 30 N 1.276238 0.051171 0.673595 0
M  V30 31 C 1.874794 0.334372 1.845082 0
M  V30 32 C 1.932857 2.989713 4.518094 0
M  V30 33 C 1.461506 2.487549 5.882184 0
M  V30 34 H 4.222446 1.376987 8.603797 0
M  V30 35 H 3.116052 0.265117 9.475929 0
M  V30 36 H 3.760028 -0.274935 7.900779 0
M  V30 37 H 1.434797 0.737171 7.956510 0
M  V30 38 H 3.489848 2.303503 6.466754 0
M  V30 39 H 3.489623 -0.267876 5.919544 0
M  V30 40 H 1.821895 0.069644 5.288990 0
M  V30 41 H 3.779180 0.394371 3.558993 0
M  V30 42 H 4.181172 1.809403 4.532304 0
M  V30 43 H 0.640495 3.439117 2.123725 0
M  V30 44 H -0.386711 2.837008 0.027574 0
M  V30 45 H -0.737320 1.257881 -1.713919 0
M  V30 46 H 1.870028 -3.221616 -3.132558 0
M  V30 47 H 1.011323 -5.452972 -4.309090 0
M  V30 48 H -0.281282 -7.352188 -5.329402 0
M  V30 49 H -3.846890 -5.253069 -4.360336 0
M  V30 50 H -4.332285 -3.057659 -2.105119 0
M  V30 51 H -4.212844 -2.983441 -5.121840 0
M  V30 52 H -5.579025 -3.363435 -3.959253 0
M  V30 53 H -6.387599 -1.351300 -4.729440 0
M  V30 54 H -4.783549 -0.731360 -5.182534 0
M  V30 55 H -5.247719 0.345021 -3.113584 0
M  V30 56 H -3.141713 -0.567696 -3.425889 0
M  V30 57 H -3.584208 -0.907156 -1.682974 0
M  V30 58 H 2.485661 -0.450498 2.260252 0
M  V30 59 H 1.103359 3.566782 4.073425 0
M  V30 60 H 2.791975 3.656836 4.729754 0
M  V30 61 H 0.553732 1.871883 5.762829 0
M  V30 62 H 1.247339 3.360098 6.538622 0
M  V30 END ATOM
M  V30 BEGIN BOND
M  V30 1 1 1 2
M  V30 2 1 2 3
M  V30 3 1 3 4
M  V30 4 1 4 5
M  V30 5 1 5 6
M  V30 6 1 6 7
M  V30 7 2 7 8
M  V30 8 1 8 9
M  V30 9 2 9 10
M  V30 10 1 10 11
M  V30 11 1 11 12
M  V30 12 2 12 13
M  V30 13 1 13 14
M  V30 14 2 14 15
M  V30 15 1 15 16
M  V30 16 2 16 17
M  V30 17 1 17 18
M  V30 18 2 18 19
M  V30 19 1 19 20
M  V30 20 2 20 21
M  V30 21 1 21 22
M  V30 22 1 22 23
M  V30 23 1 23 24
M  V30 24 1 24 25
M  V30 25 1 25 26
M  V30 26 1 26 27
M  V30 27 1 22 28
M  V30 28 2 28 29
M  V30 29 1 10 30
M  V30 30 2 30 31
M  V30 31 1 6 32
M  V30 32 1 32 33
M  V30 33 1 33 3
M  V30 34 1 31 7
M  V30 35 1 29 12
M  V30 36 1 28 15
M  V30 37 1 21 16
M  V30 38 1 27 23
M  V30 39 1 1 34
M  V30 40 1 1 35
M  V30 41 1 1 36
M  V30 42 1 2 37
M  V30 43 1 3 38
M  V30 44 1 4 39
M  V30 45 1 4 40
M  V30 46 1 5 41
M  V30 47 1 5 42
M  V30 48 1 8 43
M  V30 49 1 9 44
M  V30 50 1 11 45
M  V30 51 1 14 46
M  V30 52 1 17 47
M  V30 53 1 18 48
M  V30 54 1 20 49
M  V30 55 1 23 50 CFG=1
M  V30 56 1 24 51
M  V30 57 1 24 52
M  V30 58 1 25 53
M  V30 59 1 25 54
M  V30 60 1 26 55
M  V30 61 1 27 56
M  V30 62 1 27 57
M  V30 63 1 31 58
M  V30 64 1 32 59
M  V30 65 1 32 60
M  V30 66 1 33 61
M  V30 67 1 33 62
M  V30 END BOND
M  V30 END CTAB
M  END
>  <Dataset>  (581) 
ChEMBL_Kinases

>  <Ligand_Instance>  (581) 
nan

>  <PDB_ID>  (581) 
nan

>  <Standardized_SMILES>  (581) 
CNC1CCN(c2ccc(Nc3ncc4c5ccncc5n([C@@H]5CCNC5)c4n3)nc2)CC1

>  <Name>  (581) 
nan

>  <Pocket>  (581) 
nan

>  <ATP_Site>  (581) 
nan

>  <Peripheral>  (581) 
nan

>  <Num_H_Atoms_ProtBoundConf>  (581) 
nan

>  <Num_Resolved_Atoms>  (581) 
nan

>  <Num_Not_Resolved_Atoms>  (581) 
nan

$$$$
CHEMBL590783
     RDKit          3D

  0  0  0  0  0  0  0  0  0  0999 V3000
M  V30 BEGIN CTAB
M  V30 COUNTS 52 56 0 0 0
M  V30 BEGIN ATOM
M  V30 1 N 5.881873 1.473346 3.416207 0
M  V30 2 C 5.575630 0.463002 2.465638 0
M  V30 3 O 6.482733 -0.320023 2.081969 0
M  V30 4 C 4.192934 0.361187 1.952839 0
M  V30 5 N 3.164698 1.156108 2.309306 0
M  V30 6 N 2.065183 0.795564 1.664569 0
M  V30 7 C 0.848967 1.489976 1.877849 0
M  V30 8 C 0.596052 2.594071 1.050459 0
M  V30 9 C -0.578274 3.336123 1.210207 0
M  V30 10 C -1.507197 3.006082 2.173488 0
M  V30 11 F -2.626589 3.757530 2.285513 0
M  V30 12 C -1.258816 1.919429 2.988187 0
M  V30 13 C -0.108933 1.170406 2.852225 0
M  V30 14 C 2.390624 -0.241812 0.885836 0
M  V30 15 C 3.719331 -0.568261 1.019059 0
M  V30 16 C 4.506897 -1.628095 0.363334 0
M  V30 17 C 3.692029 -2.441712 -0.574796 0
M  V30 18 C 2.276130 -2.044602 -0.676396 0
M  V30 19 C 1.558262 -2.836795 -1.569379 0
M  V30 20 C 0.198815 -2.582536 -1.773876 0
M  V30 21 C -0.475393 -1.558533 -1.114493 0
M  V30 22 N -1.861211 -1.352161 -1.367737 0
M  V30 23 C -2.701415 -2.090457 -0.500553 0
M  V30 24 O -2.112633 -2.806294 0.349627 0
M  V30 25 C -4.158611 -2.079403 -0.523350 0
M  V30 26 C -4.855360 -1.312665 -1.434313 0
M  V30 27 C -6.245927 -1.353353 -1.395471 0
M  V30 28 C -6.852007 -2.156045 -0.450681 0
M  V30 29 N -6.153212 -2.897395 0.430279 0
M  V30 30 C -4.793969 -2.872155 0.409491 0
M  V30 31 N -4.083312 -3.679339 1.368346 0
M  V30 32 C 0.263128 -0.791175 -0.236185 0
M  V30 33 C 1.597309 -1.036582 -0.032002 0
M  V30 34 H 5.885495 1.835693 4.372882 0
M  V30 35 H 5.578804 1.177036 4.373886 0
M  V30 36 H 1.297818 2.897816 0.273079 0
M  V30 37 H -0.710107 4.189038 0.525751 0
M  V30 38 H -1.984283 1.649681 3.751444 0
M  V30 39 H 0.122941 0.323512 3.459874 0
M  V30 40 H 5.366293 -1.186036 -0.231333 0
M  V30 41 H 4.972468 -2.303690 1.123966 0
M  V30 42 H 3.717805 -3.514992 -0.233883 0
M  V30 43 H 4.121681 -2.418743 -1.615423 0
M  V30 44 H 1.961583 -3.654911 -2.137982 0
M  V30 45 H -0.371257 -3.189956 -2.464646 0
M  V30 46 H -2.316983 -0.747924 -2.085072 0
M  V30 47 H -4.354174 -0.692901 -2.163557 0
M  V30 48 H -6.872258 -0.773016 -2.085633 0
M  V30 49 H -7.948387 -2.228223 -0.372663 0
M  V30 50 H -3.644098 -4.617602 1.360617 0
M  V30 51 H -3.820675 -3.506296 2.366722 0
M  V30 52 H -0.276061 -0.008461 0.260463 0
M  V30 END ATOM
M  V30 BEGIN BOND
M  V30 1 1 1 2
M  V30 2 2 2 3
M  V30 3 1 2 4
M  V30 4 2 4 5
M  V30 5 1 5 6
M  V30 6 1 6 7
M  V30 7 2 7 8
M  V30 8 1 8 9
M  V30 9 2 9 10
M  V30 10 1 10 11
M  V30 11 1 10 12
M  V30 12 2 12 13
M  V30 13 1 6 14
M  V30 14 2 14 15
M  V30 15 1 15 16
M  V30 16 1 16 17
M  V30 17 1 17 18
M  V30 18 2 18 19
M  V30 19 1 19 20
M  V30 20 2 20 21
M  V30 21 1 21 22
M  V30 22 1 22 23
M  V30 23 2 23 24
M  V30 24 1 23 25
M  V30 25 2 25 26
M  V30 26 1 26 27
M  V30 27 2 27 28
M  V30 28 1 28 29
M  V30 29 2 29 30
M  V30 30 1 30 31
M  V30 31 1 21 32
M  V30 32 2 32 33
M  V30 33 1 15 4
M  V30 34 1 33 18
M  V30 35 1 13 7
M  V30 36 1 33 14
M  V30 37 1 30 25
M  V30 38 1 1 34
M  V30 39 1 1 35
M  V30 40 1 8 36
M  V30 41 1 9 37
M  V30 42 1 12 38
M  V30 43 1 13 39
M  V30 44 1 16 40
M  V30 45 1 16 41
M  V30 46 1 17 42
M  V30 47 1 17 43
M  V30 48 1 19 44
M  V30 49 1 20 45
M  V30 50 1 22 46
M  V30 51 1 26 47
M  V30 52 1 27 48
M  V30 53 1 28 49
M  V30 54 1 31 50
M  V30 55 1 31 51
M  V30 56 1 32 52
M  V30 END BOND
M  V30 END CTAB
M  END
>  <Dataset>  (582) 
ChEMBL_Kinases

>  <Ligand_Instance>  (582) 
nan

>  <PDB_ID>  (582) 
nan

>  <Standardized_SMILES>  (582) 
NC(=O)c1nn(-c2ccc(F)cc2)c2c1CCc1ccc(NC(=O)c3cccnc3N)cc1-2

>  <Name>  (582) 
nan

>  <Pocket>  (582) 
nan

>  <ATP_Site>  (582) 
nan

>  <Peripheral>  (582) 
nan

>  <Num_H_Atoms_ProtBoundConf>  (582) 
nan

>  <Num_Resolved_Atoms>  (582) 
nan

>  <Num_Not_Resolved_Atoms>  (582) 
nan

$$$$
CHEMBL3798419
     RDKit          3D

  0  0  0  0  0  0  0  0  0  0999 V3000
M  V30 BEGIN CTAB
M  V30 COUNTS 66 70 0 0 0
M  V30 BEGIN ATOM
M  V30 1 C 3.346710 -0.132717 5.168762 0
M  V30 2 C 3.753550 1.134106 5.906065 0
M  V30 3 C 3.602013 0.823779 7.396222 0
M  V30 4 O 5.071011 1.476630 5.687068 0
M  V30 5 C 2.794767 2.262869 5.607348 0
M  V30 6 N 2.744893 2.585121 4.196452 0
M  V30 7 C 1.863748 1.970457 3.383570 0
M  V30 8 C 2.041953 2.476338 2.089488 0
M  V30 9 C 1.264566 2.048826 0.931709 0
M  V30 10 C 1.762256 2.023488 -0.354166 0
M  V30 11 C 0.946702 1.601760 -1.383717 0
M  V30 12 C -0.386022 1.186519 -1.210812 0
M  V30 13 C -1.041118 0.801495 -2.425379 0
M  V30 14 C -0.949884 1.742889 -3.460279 0
M  V30 15 N -1.488646 1.625913 -4.701699 0
M  V30 16 C -2.192442 0.494174 -5.000408 0
M  V30 17 N -2.764867 0.339289 -6.277509 0
M  V30 18 C -2.296021 -0.446777 -3.998348 0
M  V30 19 Cl -3.211786 -1.870202 -4.422171 0
M  V30 20 C -1.753551 -0.335285 -2.741001 0
M  V30 21 N -1.874422 -1.322398 -1.725165 0
M  V30 22 C -2.862671 -1.563126 -0.700258 0
M  V30 23 C -3.455916 -2.929669 -0.728432 0
M  V30 24 C -2.538138 -4.028607 -1.132050 0
M  V30 25 C -3.280378 -5.148858 -1.837087 0
M  V30 26 C -2.574987 -6.412031 -1.401393 0
M  V30 27 N -2.304350 -6.150778 -0.002640 0
M  V30 28 C -2.064843 -4.761058 0.098084 0
M  V30 29 O -1.555175 -4.005380 0.964956 0
M  V30 30 C -1.364961 -3.645119 -1.940412 0
M  V30 31 C -0.822396 -2.285921 -1.649390 0
M  V30 32 C -0.832527 1.231545 0.091127 0
M  V30 33 C -0.038861 1.648487 1.138468 0
M  V30 34 C 3.062182 3.401266 2.215740 0
M  V30 35 N 3.468694 3.446589 3.501384 0
M  V30 36 H 3.471406 -0.027264 4.068388 0
M  V30 37 H 3.951479 -0.965947 5.546928 0
M  V30 38 H 2.266524 -0.299506 5.407435 0
M  V30 39 H 3.670278 1.763878 7.982756 0
M  V30 40 H 4.439775 0.137075 7.650286 0
M  V30 41 H 2.628413 0.342702 7.613740 0
M  V30 42 H 5.535831 0.918218 5.034970 0
M  V30 43 H 1.796725 1.963501 5.997689 0
M  V30 44 H 3.111722 3.124990 6.226835 0
M  V30 45 H 1.121381 1.208351 3.632305 0
M  V30 46 H 2.782004 2.335644 -0.523929 0
M  V30 47 H 1.432231 1.616849 -2.369216 0
M  V30 48 H -0.419053 2.681061 -3.348863 0
M  V30 49 H -2.618778 -0.424577 -6.943328 0
M  V30 50 H -3.423360 1.077058 -6.616100 0
M  V30 51 H -2.370928 -1.405268 0.282076 0
M  V30 52 H -3.648033 -0.782712 -0.766888 0
M  V30 53 H -3.876102 -3.174572 0.272900 0
M  V30 54 H -4.324930 -2.926658 -1.420499 0
M  V30 55 H -4.343800 -5.199763 -1.465090 0
M  V30 56 H -3.224287 -5.109721 -2.927438 0
M  V30 57 H -3.234247 -7.295690 -1.544953 0
M  V30 58 H -1.631250 -6.499401 -1.986609 0
M  V30 59 H -2.253541 -6.731914 0.878606 0
M  V30 60 H -1.488405 -3.861501 -3.042936 0
M  V30 61 H -0.521653 -4.358564 -1.676406 0
M  V30 62 H -0.372682 -2.354667 -0.620913 0
M  V30 63 H 0.013367 -2.104398 -2.378795 0
M  V30 64 H -1.837615 0.927608 0.223093 0
M  V30 65 H -0.524341 1.633924 2.126522 0
M  V30 66 H 3.379571 3.933353 1.320546 0
M  V30 END ATOM
M  V30 BEGIN BOND
M  V30 1 1 1 2
M  V30 2 1 2 3
M  V30 3 1 2 4
M  V30 4 1 2 5
M  V30 5 1 5 6
M  V30 6 1 6 7
M  V30 7 2 7 8
M  V30 8 1 8 9
M  V30 9 2 9 10
M  V30 10 1 10 11
M  V30 11 2 11 12
M  V30 12 1 12 13
M  V30 13 2 13 14
M  V30 14 1 14 15
M  V30 15 2 15 16
M  V30 16 1 16 17
M  V30 17 1 16 18
M  V30 18 1 18 19
M  V30 19 2 18 20
M  V30 20 1 20 21
M  V30 21 1 21 22
M  V30 22 1 22 23
M  V30 23 1 23 24
M  V30 24 1 24 25
M  V30 25 1 25 26
M  V30 26 1 26 27
M  V30 27 1 27 28
M  V30 28 2 28 29
M  V30 29 1 24 30
M  V30 30 1 30 31
M  V30 31 1 12 32
M  V30 32 2 32 33
M  V30 33 1 8 34
M  V30 34 2 34 35
M  V30 35 1 35 6
M  V30 36 1 33 9
M  V30 37 1 20 13
M  V30 38 1 31 21
M  V30 39 1 28 24
M  V30 40 1 1 36
M  V30 41 1 1 37
M  V30 42 1 1 38
M  V30 43 1 3 39
M  V30 44 1 3 40
M  V30 45 1 3 41
M  V30 46 1 4 42
M  V30 47 1 5 43
M  V30 48 1 5 44
M  V30 49 1 7 45
M  V30 50 1 10 46
M  V30 51 1 11 47
M  V30 52 1 14 48
M  V30 53 1 17 49
M  V30 54 1 17 50
M  V30 55 1 22 51
M  V30 56 1 22 52
M  V30 57 1 23 53
M  V30 58 1 23 54
M  V30 59 1 25 55
M  V30 60 1 25 56
M  V30 61 1 26 57
M  V30 62 1 26 58
M  V30 63 1 27 59
M  V30 64 1 30 60
M  V30 65 1 30 61
M  V30 66 1 31 62
M  V30 67 1 31 63
M  V30 68 1 32 64
M  V30 69 1 33 65
M  V30 70 1 34 66
M  V30 END BOND
M  V30 END CTAB
M  END
>  <Dataset>  (583) 
ChEMBL_Kinases

>  <Ligand_Instance>  (583) 
nan

>  <PDB_ID>  (583) 
nan

>  <Standardized_SMILES>  (583) 
CC(C)(O)Cn1cc(-c2ccc(-c3cnc(N)c(Cl)c3N3CCC4(CCNC4=O)CC3)cc2)cn1

>  <Name>  (583) 
nan

>  <Pocket>  (583) 
nan

>  <ATP_Site>  (583) 
nan

>  <Peripheral>  (583) 
nan

>  <Num_H_Atoms_ProtBoundConf>  (583) 
nan

>  <Num_Resolved_Atoms>  (583) 
nan

>  <Num_Not_Resolved_Atoms>  (583) 
nan

$$$$
CHEMBL3798401
     RDKit          3D

  0  0  0  0  0  0  0  0  0  0999 V3000
M  V30 BEGIN CTAB
M  V30 COUNTS 47 50 0 0 0
M  V30 BEGIN ATOM
M  V30 1 C -2.688703 -3.954873 1.737686 0
M  V30 2 C -1.313337 -4.472550 1.484822 0
M  V30 3 C -0.469712 -3.841354 0.592274 0
M  V30 4 C 0.785648 -4.299611 0.350405 0
M  V30 5 C 1.735979 -3.692965 -0.573862 0
M  V30 6 N 2.492961 -4.331801 -1.461582 0
M  V30 7 N 3.250318 -3.499240 -2.151012 0
M  V30 8 C 2.986195 -2.250299 -1.702723 0
M  V30 9 C 3.443523 -0.994779 -2.017380 0
M  V30 10 C 2.974877 0.153732 -1.366110 0
M  V30 11 C 2.028640 0.055538 -0.377537 0
M  V30 12 C 1.563300 1.275840 0.279885 0
M  V30 13 O 2.110923 2.348731 -0.155216 0
M  V30 14 N 0.593224 1.351313 1.317281 0
M  V30 15 C 0.223062 2.607141 1.878729 0 CFG=2
M  V30 16 C 0.736308 2.658270 3.313445 0
M  V30 17 C -1.159942 3.029547 1.722168 0
M  V30 18 C -2.306117 2.278356 1.856164 0
M  V30 19 Cl -2.117368 0.592877 2.283111 0
M  V30 20 C -3.597208 2.730083 1.691089 0
M  V30 21 C -3.786143 4.054801 1.360731 0
M  V30 22 C -2.706740 4.897595 1.201830 0
M  V30 23 C -1.452614 4.359372 1.386256 0
M  V30 24 Cl -0.073321 5.451900 1.179426 0
M  V30 25 C 1.595537 -1.211429 -0.090075 0
M  V30 26 C 2.035522 -2.350157 -0.709678 0
M  V30 27 C 1.227849 -5.436624 1.023538 0
M  V30 28 C 0.373197 -6.063007 1.917599 0
M  V30 29 N -0.864476 -5.576365 2.128978 0
M  V30 30 H -2.746743 -3.314255 2.639692 0
M  V30 31 H -3.024139 -3.326259 0.882025 0
M  V30 32 H -3.433410 -4.762350 1.864828 0
M  V30 33 H -0.812972 -2.965045 0.074636 0
M  V30 34 H 3.949621 -3.712425 -2.920185 0
M  V30 35 H 4.192853 -0.923918 -2.801164 0
M  V30 36 H 3.409266 1.073627 -1.701799 0
M  V30 37 H 0.268045 0.390692 1.537313 0
M  V30 38 H 0.877022 3.369965 1.344864 0
M  V30 39 H -0.051264 2.435105 4.059802 0
M  V30 40 H 1.103534 3.679703 3.571658 0
M  V30 41 H 1.622300 1.995202 3.402387 0
M  V30 42 H -4.443417 2.068781 1.815806 0
M  V30 43 H -4.792047 4.409453 1.231451 0
M  V30 44 H -2.811330 5.941887 0.943388 0
M  V30 45 H 0.852845 -1.346241 0.678057 0
M  V30 46 H 2.207532 -5.874940 0.897505 0
M  V30 47 H 0.601006 -6.953292 2.501091 0
M  V30 END ATOM
M  V30 BEGIN BOND
M  V30 1 1 1 2
M  V30 2 2 2 3
M  V30 3 1 3 4
M  V30 4 1 4 5
M  V30 5 2 5 6
M  V30 6 1 6 7
M  V30 7 1 7 8
M  V30 8 2 8 9
M  V30 9 1 9 10
M  V30 10 2 10 11
M  V30 11 1 11 12
M  V30 12 2 12 13
M  V30 13 1 12 14
M  V30 14 1 14 15
M  V30 15 1 15 16
M  V30 16 1 15 17
M  V30 17 2 17 18
M  V30 18 1 18 19
M  V30 19 1 18 20
M  V30 20 2 20 21
M  V30 21 1 21 22
M  V30 22 2 22 23
M  V30 23 1 23 24
M  V30 24 1 11 25
M  V30 25 2 25 26
M  V30 26 2 4 27
M  V30 27 1 27 28
M  V30 28 2 28 29
M  V30 29 1 29 2
M  V30 30 1 26 5
M  V30 31 1 26 8
M  V30 32 1 23 17
M  V30 33 1 1 30
M  V30 34 1 1 31
M  V30 35 1 1 32
M  V30 36 1 3 33
M  V30 37 1 7 34
M  V30 38 1 9 35
M  V30 39 1 10 36
M  V30 40 1 14 37
M  V30 41 1 15 38 CFG=3
M  V30 42 1 16 39
M  V30 43 1 16 40
M  V30 44 1 16 41
M  V30 45 1 20 42
M  V30 46 1 21 43
M  V30 47 1 22 44
M  V30 48 1 25 45
M  V30 49 1 27 46
M  V30 50 1 28 47
M  V30 END BOND
M  V30 END CTAB
M  END
>  <Dataset>  (584) 
ChEMBL_Kinases

>  <Ligand_Instance>  (584) 
nan

>  <PDB_ID>  (584) 
nan

>  <Standardized_SMILES>  (584) 
Cc1cc(-c2n[nH]c3ccc(C(=O)N[C@H](C)c4c(Cl)cccc4Cl)cc23)ccn1

>  <Name>  (584) 
nan

>  <Pocket>  (584) 
nan

>  <ATP_Site>  (584) 
nan

>  <Peripheral>  (584) 
nan

>  <Num_H_Atoms_ProtBoundConf>  (584) 
nan

>  <Num_Resolved_Atoms>  (584) 
nan

>  <Num_Not_Resolved_Atoms>  (584) 
nan

$$$$
CHEMBL590767
     RDKit          3D

  0  0  0  0  0  0  0  0  0  0999 V3000
M  V30 BEGIN CTAB
M  V30 COUNTS 70 75 0 0 0
M  V30 BEGIN ATOM
M  V30 1 C 5.066496 -3.364093 6.104390 0
M  V30 2 C 3.877890 -2.491473 5.687493 0
M  V30 3 C 4.382242 -1.539780 4.660173 0
M  V30 4 N 3.268352 -1.037146 3.852286 0
M  V30 5 C 3.465298 -0.407652 2.582813 0
M  V30 6 C 2.448891 0.090836 1.777758 0
M  V30 7 C 2.729231 0.685387 0.563443 0
M  V30 8 C 1.576967 1.181976 -0.212956 0
M  V30 9 O 0.659902 2.041140 -0.020521 0
M  V30 10 N 1.385300 0.600727 -1.502005 0
M  V30 11 C 0.274087 1.075490 -2.257825 0
M  V30 12 C 0.405895 2.167607 -3.124921 0
M  V30 13 C -0.657098 2.642022 -3.865281 0
M  V30 14 C -1.900059 2.048295 -3.774205 0
M  V30 15 C -2.043697 0.972149 -2.924321 0
M  V30 16 C -0.995689 0.485214 -2.178369 0
M  V30 17 C -3.351250 0.352339 -2.833244 0
M  V30 18 C -4.377030 0.866527 -3.595353 0
M  V30 19 C -5.464615 0.095134 -3.306010 0
M  V30 20 C -6.851118 0.150960 -3.803365 0
M  V30 21 N -7.182051 1.168338 -4.758133 0
M  V30 22 O -7.784519 -0.626256 -3.459701 0
M  V30 23 N -5.059508 -0.835081 -2.398977 0
M  V30 24 N -3.772646 -0.672857 -2.115792 0
M  V30 25 C -3.174028 -1.545098 -1.194138 0
M  V30 26 C -2.576190 -2.746606 -1.597012 0
M  V30 27 C -1.975163 -3.668624 -0.790605 0
M  V30 28 C -1.958008 -3.382913 0.554366 0
M  V30 29 F -1.364106 -4.282776 1.397861 0
M  V30 30 C -2.522704 -2.222938 1.041120 0
M  V30 31 C -3.124894 -1.310264 0.186093 0
M  V30 32 C -4.290165 2.009557 -4.520422 0
M  V30 33 C -2.945875 2.640487 -4.606535 0
M  V30 34 C 4.038869 0.788020 0.139055 0
M  V30 35 Cl 4.364929 1.547350 -1.406247 0
M  V30 36 C 5.010582 0.277453 0.975436 0
M  V30 37 N 4.733668 -0.300272 2.156177 0
M  V30 38 C 1.983265 -1.248017 4.475461 0
M  V30 39 C 1.757166 -2.740312 4.564179 0
M  V30 40 C 0.398872 -2.942704 5.230928 0
M  V30 41 N 2.814954 -3.340854 5.298260 0
M  V30 42 H 6.022904 -2.771311 6.113519 0
M  V30 43 H 4.896180 -3.830524 7.086606 0
M  V30 44 H 5.219343 -4.186887 5.360036 0
M  V30 45 H 3.580984 -1.971440 6.631915 0
M  V30 46 H 4.736394 -0.627040 5.223722 0
M  V30 47 H 5.215868 -1.886471 4.043679 0
M  V30 48 H 1.442403 -0.004886 2.136860 0
M  V30 49 H 1.975119 -0.140689 -1.956133 0
M  V30 50 H 1.383152 2.636917 -3.198505 0
M  V30 51 H -0.465261 3.497301 -4.515607 0
M  V30 52 H -1.027895 -0.332724 -1.507498 0
M  V30 53 H -6.985378 0.965202 -5.750301 0
M  V30 54 H -7.567334 1.892782 -4.082546 0
M  V30 55 H -2.610617 -2.937308 -2.675081 0
M  V30 56 H -1.543947 -4.561645 -1.192783 0
M  V30 57 H -2.479099 -2.052131 2.106950 0
M  V30 58 H -3.574758 -0.389061 0.561704 0
M  V30 59 H -4.545188 1.594865 -5.537403 0
M  V30 60 H -5.111314 2.730889 -4.316274 0
M  V30 61 H -2.558426 2.638950 -5.666413 0
M  V30 62 H -3.085234 3.727046 -4.331507 0
M  V30 63 H 6.024430 0.383921 0.593923 0
M  V30 64 H 1.151208 -0.698280 4.030906 0
M  V30 65 H 2.071699 -0.900805 5.538451 0
M  V30 66 H 1.692719 -3.226636 3.572231 0
M  V30 67 H -0.170854 -3.744076 4.729815 0
M  V30 68 H -0.193786 -2.024405 5.190441 0
M  V30 69 H 0.501759 -3.268313 6.293508 0
M  V30 70 H 3.014256 -4.328856 5.132937 0
M  V30 END ATOM
M  V30 BEGIN BOND
M  V30 1 1 1 2
M  V30 2 1 2 3
M  V30 3 1 3 4
M  V30 4 1 4 5
M  V30 5 2 5 6
M  V30 6 1 6 7
M  V30 7 1 7 8
M  V30 8 2 8 9
M  V30 9 1 8 10
M  V30 10 1 10 11
M  V30 11 2 11 12
M  V30 12 1 12 13
M  V30 13 2 13 14
M  V30 14 1 14 15
M  V30 15 2 15 16
M  V30 16 1 15 17
M  V30 17 2 17 18
M  V30 18 1 18 19
M  V30 19 1 19 20
M  V30 20 1 20 21
M  V30 21 2 20 22
M  V30 22 2 19 23
M  V30 23 1 23 24
M  V30 24 1 24 25
M  V30 25 2 25 26
M  V30 26 1 26 27
M  V30 27 2 27 28
M  V30 28 1 28 29
M  V30 29 1 28 30
M  V30 30 2 30 31
M  V30 31 1 18 32
M  V30 32 1 32 33
M  V30 33 2 7 34
M  V30 34 1 34 35
M  V30 35 1 34 36
M  V30 36 2 36 37
M  V30 37 1 4 38
M  V30 38 1 38 39
M  V30 39 1 39 40
M  V30 40 1 39 41
M  V30 41 1 41 2
M  V30 42 1 37 5
M  V30 43 1 16 11
M  V30 44 1 24 17
M  V30 45 1 31 25
M  V30 46 1 33 14
M  V30 47 1 1 42
M  V30 48 1 1 43
M  V30 49 1 1 44
M  V30 50 1 2 45
M  V30 51 1 3 46
M  V30 52 1 3 47
M  V30 53 1 6 48
M  V30 54 1 10 49
M  V30 55 1 12 50
M  V30 56 1 13 51
M  V30 57 1 16 52
M  V30 58 1 21 53
M  V30 59 1 21 54
M  V30 60 1 26 55
M  V30 61 1 27 56
M  V30 62 1 30 57
M  V30 63 1 31 58
M  V30 64 1 32 59
M  V30 65 1 32 60
M  V30 66 1 33 61
M  V30 67 1 33 62
M  V30 68 1 36 63
M  V30 69 1 38 64
M  V30 70 1 38 65
M  V30 71 1 39 66
M  V30 72 1 40 67
M  V30 73 1 40 68
M  V30 74 1 40 69
M  V30 75 1 41 70
M  V30 END BOND
M  V30 END CTAB
M  END
>  <Dataset>  (585) 
ChEMBL_Kinases

>  <Ligand_Instance>  (585) 
nan

>  <PDB_ID>  (585) 
nan

>  <Standardized_SMILES>  (585) 
CC1CN(c2cc(C(=O)Nc3ccc4c(c3)-c3c(c(C(N)=O)nn3-c3ccc(F)cc3)CC4)c(Cl)cn2)CC(C)N1

>  <Name>  (585) 
nan

>  <Pocket>  (585) 
nan

>  <ATP_Site>  (585) 
nan

>  <Peripheral>  (585) 
nan

>  <Num_H_Atoms_ProtBoundConf>  (585) 
nan

>  <Num_Resolved_Atoms>  (585) 
nan

>  <Num_Not_Resolved_Atoms>  (585) 
nan

$$$$
CHEMBL3798395
     RDKit          3D

  0  0  0  0  0  0  0  0  0  0999 V3000
M  V30 BEGIN CTAB
M  V30 COUNTS 45 48 0 0 0
M  V30 BEGIN ATOM
M  V30 1 C 0.054802 -3.893310 1.191838 0
M  V30 2 C -0.484967 -3.621641 -0.180785 0
M  V30 3 C -1.498827 -4.648669 -0.597559 0
M  V30 4 C 0.667392 -3.525433 -1.161538 0
M  V30 5 C 1.301308 -2.197102 -0.878642 0
M  V30 6 O 2.228328 -1.818381 -1.674531 0
M  V30 7 C 0.898609 -1.336564 0.260401 0
M  V30 8 C 1.794682 -0.563664 0.943806 0
M  V30 9 S 3.553015 -0.261630 0.816700 0
M  V30 10 C 3.762546 1.151724 -0.330376 0
M  V30 11 C 3.173626 2.347752 0.332174 0
M  V30 12 C 1.819844 2.612519 0.103862 0
M  V30 13 C 1.106502 3.650939 0.617377 0
M  V30 14 C 1.781097 4.531281 1.444919 0
M  V30 15 C 3.130688 4.311577 1.703730 0
M  V30 16 C 3.821403 3.234083 1.155646 0
M  V30 17 S 0.777698 0.194195 2.137594 0
M  V30 18 C -0.726944 -0.512300 1.701821 0
M  V30 19 C -2.083834 -0.300782 2.331779 0
M  V30 20 C -3.393302 -0.699056 2.214772 0
M  V30 21 C -4.173244 -0.092488 3.160326 0
M  V30 22 N -3.333513 0.679652 3.857186 0
M  V30 23 N -2.131365 0.554270 3.373798 0
M  V30 24 C -0.393401 -1.324458 0.631110 0
M  V30 25 C -1.143012 -2.230821 -0.263648 0
M  V30 26 H -0.263415 -4.897846 1.558103 0
M  V30 27 H 1.182877 -3.941366 1.174577 0
M  V30 28 H -0.227442 -3.105553 1.932850 0
M  V30 29 H -2.233232 -4.727168 0.230135 0
M  V30 30 H -2.056269 -4.273413 -1.479176 0
M  V30 31 H -1.027976 -5.625573 -0.776188 0
M  V30 32 H 1.367657 -4.360592 -1.117558 0
M  V30 33 H 0.187668 -3.437023 -2.177349 0
M  V30 34 H 3.177673 0.924695 -1.241312 0
M  V30 35 H 4.834765 1.297610 -0.570056 0
M  V30 36 H 1.263379 1.932884 -0.545961 0
M  V30 37 H 0.071465 3.804267 0.408141 0
M  V30 38 H 1.245632 5.371012 1.872767 0
M  V30 39 H 3.665794 5.000703 2.353956 0
M  V30 40 H 4.862849 3.035267 1.334486 0
M  V30 41 H -3.606544 -1.399944 1.430669 0
M  V30 42 H -5.225432 -0.318162 3.179778 0
M  V30 43 H -3.673354 1.262311 4.652016 0
M  V30 44 H -2.200451 -2.329441 -0.094491 0
M  V30 45 H -1.025939 -1.827366 -1.297003 0
M  V30 END ATOM
M  V30 BEGIN BOND
M  V30 1 1 1 2
M  V30 2 1 2 3
M  V30 3 1 2 4
M  V30 4 1 4 5
M  V30 5 2 5 6
M  V30 6 1 5 7
M  V30 7 2 7 8
M  V30 8 1 8 9
M  V30 9 1 9 10
M  V30 10 1 10 11
M  V30 11 2 11 12
M  V30 12 1 12 13
M  V30 13 2 13 14
M  V30 14 1 14 15
M  V30 15 2 15 16
M  V30 16 1 8 17
M  V30 17 1 17 18
M  V30 18 1 18 19
M  V30 19 1 19 20
M  V30 20 2 20 21
M  V30 21 1 21 22
M  V30 22 1 22 23
M  V30 23 2 18 24
M  V30 24 1 24 25
M  V30 25 1 25 2
M  V30 26 1 24 7
M  V30 27 1 16 11
M  V30 28 2 23 19
M  V30 29 1 1 26
M  V30 30 1 1 27
M  V30 31 1 1 28
M  V30 32 1 3 29
M  V30 33 1 3 30
M  V30 34 1 3 31
M  V30 35 1 4 32
M  V30 36 1 4 33
M  V30 37 1 10 34
M  V30 38 1 10 35
M  V30 39 1 12 36
M  V30 40 1 13 37
M  V30 41 1 14 38
M  V30 42 1 15 39
M  V30 43 1 16 40
M  V30 44 1 20 41
M  V30 45 1 21 42
M  V30 46 1 22 43
M  V30 47 1 25 44
M  V30 48 1 25 45
M  V30 END BOND
M  V30 END CTAB
M  END
>  <Dataset>  (586) 
ChEMBL_Kinases

>  <Ligand_Instance>  (586) 
nan

>  <PDB_ID>  (586) 
nan

>  <Standardized_SMILES>  (586) 
CC1(C)CC(=O)c2c(SCc3ccccc3)sc(-c3cc[nH]n3)c2C1

>  <Name>  (586) 
nan

>  <Pocket>  (586) 
nan

>  <ATP_Site>  (586) 
nan

>  <Peripheral>  (586) 
nan

>  <Num_H_Atoms_ProtBoundConf>  (586) 
nan

>  <Num_Resolved_Atoms>  (586) 
nan

>  <Num_Not_Resolved_Atoms>  (586) 
nan

$$$$
CHEMBL3798382
     RDKit          3D

  0  0  0  0  0  0  0  0  0  0999 V3000
M  V30 BEGIN CTAB
M  V30 COUNTS 52 56 0 0 0
M  V30 BEGIN ATOM
M  V30 1 C 0.498070 -2.987714 6.302260 0
M  V30 2 N 0.355143 -3.158815 4.869541 0
M  V30 3 N -0.331285 -4.108406 4.263947 0
M  V30 4 C -0.252506 -3.970392 2.910399 0
M  V30 5 C 0.539987 -2.856167 2.732157 0
M  V30 6 C 0.921578 -2.296880 1.534523 0
M  V30 7 C 1.738467 -1.150258 1.509316 0
M  V30 8 C 2.270365 -0.371806 0.410663 0
M  V30 9 C 3.639281 -0.679552 0.378736 0
M  V30 10 N 4.423274 -0.150577 -0.616454 0
M  V30 11 C 3.822774 0.662518 -1.542827 0
M  V30 12 N 4.690809 1.174090 -2.543220 0
M  V30 13 C 2.473724 0.910335 -1.433111 0
M  V30 14 Cl 1.958442 1.935050 -2.751061 0
M  V30 15 C 1.614684 0.433865 -0.481372 0
M  V30 16 N 0.277481 0.738924 -0.379084 0
M  V30 17 C -0.709520 0.326338 0.596757 0
M  V30 18 C -1.628987 -0.657104 -0.039428 0
M  V30 19 C -2.214279 -0.104812 -1.316913 0
M  V30 20 C -3.433903 0.710394 -1.019612 0
M  V30 21 C -4.463713 -0.347383 -0.705886 0
M  V30 22 N -4.062971 -1.514698 -1.456253 0
M  V30 23 C -2.796242 -1.247953 -2.068786 0
M  V30 24 O -2.468053 -1.986096 -3.044772 0
M  V30 25 C -1.194867 0.611485 -2.186124 0
M  V30 26 C -0.457271 1.590092 -1.257749 0
M  V30 27 C 2.117660 -0.645436 2.769442 0
M  V30 28 C 1.720079 -1.227950 3.980252 0
M  V30 29 C 0.919172 -2.349738 3.955048 0
M  V30 30 H 1.008562 -2.057628 6.548405 0
M  V30 31 H -0.538824 -2.897366 6.740025 0
M  V30 32 H 0.955073 -3.890109 6.761999 0
M  V30 33 H -0.710631 -4.597211 2.165884 0
M  V30 34 H 0.700768 -2.609919 0.528118 0
M  V30 35 H 4.225126 -1.296558 1.038470 0
M  V30 36 H 5.405991 0.536538 -2.985486 0
M  V30 37 H 4.457345 2.197622 -2.692954 0
M  V30 38 H -1.433709 1.200063 0.856628 0
M  V30 39 H -0.338584 0.127034 1.585621 0
M  V30 40 H -1.258146 -1.643935 -0.261101 0
M  V30 41 H -2.485644 -0.789207 0.667445 0
M  V30 42 H -3.340049 1.381556 -0.141112 0
M  V30 43 H -3.794630 1.249072 -1.910895 0
M  V30 44 H -4.524551 -0.600938 0.359021 0
M  V30 45 H -5.482169 -0.063440 -1.028245 0
M  V30 46 H -4.672060 -2.365148 -1.482860 0
M  V30 47 H -1.736285 1.116363 -2.983665 0
M  V30 48 H -0.453276 -0.142246 -2.502202 0
M  V30 49 H -1.361901 2.102913 -0.753306 0
M  V30 50 H -0.010314 2.433308 -1.713275 0
M  V30 51 H 2.754924 0.244806 2.895668 0
M  V30 52 H 2.029933 -0.813469 4.921117 0
M  V30 END ATOM
M  V30 BEGIN BOND
M  V30 1 1 1 2
M  V30 2 1 2 3
M  V30 3 2 3 4
M  V30 4 1 4 5
M  V30 5 2 5 6
M  V30 6 1 6 7
M  V30 7 1 7 8
M  V30 8 2 8 9
M  V30 9 1 9 10
M  V30 10 2 10 11
M  V30 11 1 11 12
M  V30 12 1 11 13
M  V30 13 1 13 14
M  V30 14 2 13 15
M  V30 15 1 15 16
M  V30 16 1 16 17
M  V30 17 1 17 18
M  V30 18 1 18 19
M  V30 19 1 19 20
M  V30 20 1 20 21
M  V30 21 1 21 22
M  V30 22 1 22 23
M  V30 23 2 23 24
M  V30 24 1 19 25
M  V30 25 1 25 26
M  V30 26 2 7 27
M  V30 27 1 27 28
M  V30 28 2 28 29
M  V30 29 1 29 2
M  V30 30 1 29 5
M  V30 31 1 15 8
M  V30 32 1 26 16
M  V30 33 1 23 19
M  V30 34 1 1 30
M  V30 35 1 1 31
M  V30 36 1 1 32
M  V30 37 1 4 33
M  V30 38 1 6 34
M  V30 39 1 9 35
M  V30 40 1 12 36
M  V30 41 1 12 37
M  V30 42 1 17 38
M  V30 43 1 17 39
M  V30 44 1 18 40
M  V30 45 1 18 41
M  V30 46 1 20 42
M  V30 47 1 20 43
M  V30 48 1 21 44
M  V30 49 1 21 45
M  V30 50 1 22 46
M  V30 51 1 25 47
M  V30 52 1 25 48
M  V30 53 1 26 49
M  V30 54 1 26 50
M  V30 55 1 27 51
M  V30 56 1 28 52
M  V30 END BOND
M  V30 END CTAB
M  END
>  <Dataset>  (587) 
ChEMBL_Kinases

>  <Ligand_Instance>  (587) 
nan

>  <PDB_ID>  (587) 
nan

>  <Standardized_SMILES>  (587) 
Cn1ncc2cc(-c3cnc(N)c(Cl)c3N3CCC4(CCNC4=O)CC3)ccc21

>  <Name>  (587) 
nan

>  <Pocket>  (587) 
nan

>  <ATP_Site>  (587) 
nan

>  <Peripheral>  (587) 
nan

>  <Num_H_Atoms_ProtBoundConf>  (587) 
nan

>  <Num_Resolved_Atoms>  (587) 
nan

>  <Num_Not_Resolved_Atoms>  (587) 
nan

$$$$
CHEMBL590754
     RDKit          3D

  0  0  0  0  0  0  0  0  0  0999 V3000
M  V30 BEGIN CTAB
M  V30 COUNTS 41 42 0 0 0
M  V30 BEGIN ATOM
M  V30 1 C -0.951835 -4.580831 2.995683 0
M  V30 2 O -1.042387 -3.239453 2.555090 0
M  V30 3 C -0.085475 -2.654809 1.740897 0
M  V30 4 C 0.986962 -3.438804 1.361549 0
M  V30 5 C 1.947093 -2.872739 0.552328 0
M  V30 6 C 1.863717 -1.564779 0.120024 0
M  V30 7 C 2.861594 -0.922114 -0.741159 0
M  V30 8 C 4.050245 -1.634827 -1.219957 0
M  V30 9 N 2.718950 0.320655 -1.112082 0
M  V30 10 O 3.665238 0.904812 -1.919405 0
M  V30 11 C 4.358303 2.050409 -1.545643 0
M  V30 12 N 5.281831 2.451663 -2.560709 0
M  V30 13 O 4.305931 2.768469 -0.491928 0
M  V30 14 C 0.764999 -0.839715 0.537611 0
M  V30 15 C -0.235182 -1.342703 1.348449 0
M  V30 16 O -1.337180 -0.665658 1.785813 0
M  V30 17 C -1.719309 0.640037 1.540409 0
M  V30 18 C -3.039502 0.784415 0.833047 0
M  V30 19 C -4.100652 0.752816 1.896817 0
M  V30 20 C -3.435189 1.562390 3.004479 0
M  V30 21 C -1.962880 1.453442 2.788445 0
M  V30 22 H 0.082687 -4.830387 3.310606 0
M  V30 23 H -1.245662 -5.296174 2.206581 0
M  V30 24 H -1.600824 -4.757390 3.878958 0
M  V30 25 H 1.167478 -4.456734 1.625603 0
M  V30 26 H 2.823293 -3.429442 0.211300 0
M  V30 27 H 3.837779 -2.264445 -2.117785 0
M  V30 28 H 4.414113 -2.327129 -0.433173 0
M  V30 29 H 4.890646 -0.934603 -1.398178 0
M  V30 30 H 4.784552 2.971878 -3.338165 0
M  V30 31 H 6.001120 2.718247 -3.268697 0
M  V30 32 H 0.689556 0.167192 0.211855 0
M  V30 33 H -0.967610 1.127876 0.888332 0
M  V30 34 H -3.061046 1.806685 0.384278 0
M  V30 35 H -3.192978 0.074891 0.023123 0
M  V30 36 H -5.030875 1.230988 1.530338 0
M  V30 37 H -4.351866 -0.244101 2.262386 0
M  V30 38 H -3.819694 2.608509 2.852035 0
M  V30 39 H -3.772742 1.251131 4.008436 0
M  V30 40 H -1.584800 2.476772 2.585853 0
M  V30 41 H -1.405564 1.077511 3.661638 0
M  V30 END ATOM
M  V30 BEGIN BOND
M  V30 1 1 1 2
M  V30 2 1 2 3
M  V30 3 2 3 4
M  V30 4 1 4 5
M  V30 5 2 5 6
M  V30 6 1 6 7
M  V30 7 1 7 8
M  V30 8 2 7 9
M  V30 9 1 9 10
M  V30 10 1 10 11
M  V30 11 1 11 12
M  V30 12 2 11 13
M  V30 13 1 6 14
M  V30 14 2 14 15
M  V30 15 1 15 16
M  V30 16 1 16 17
M  V30 17 1 17 18
M  V30 18 1 18 19
M  V30 19 1 19 20
M  V30 20 1 20 21
M  V30 21 1 15 3
M  V30 22 1 21 17
M  V30 23 1 1 22
M  V30 24 1 1 23
M  V30 25 1 1 24
M  V30 26 1 4 25
M  V30 27 1 5 26
M  V30 28 1 8 27
M  V30 29 1 8 28
M  V30 30 1 8 29
M  V30 31 1 12 30
M  V30 32 1 12 31
M  V30 33 1 14 32
M  V30 34 1 17 33
M  V30 35 1 18 34
M  V30 36 1 18 35
M  V30 37 1 19 36
M  V30 38 1 19 37
M  V30 39 1 20 38
M  V30 40 1 20 39
M  V30 41 1 21 40
M  V30 42 1 21 41
M  V30 END BOND
M  V30 END CTAB
M  END
>  <Dataset>  (588) 
ChEMBL_Kinases

>  <Ligand_Instance>  (588) 
nan

>  <PDB_ID>  (588) 
nan

>  <Standardized_SMILES>  (588) 
COc1ccc(/C(C)=N/OC(N)=O)cc1OC1CCCC1

>  <Name>  (588) 
FILAMINAST

>  <Pocket>  (588) 
nan

>  <ATP_Site>  (588) 
nan

>  <Peripheral>  (588) 
nan

>  <Num_H_Atoms_ProtBoundConf>  (588) 
nan

>  <Num_Resolved_Atoms>  (588) 
nan

>  <Num_Not_Resolved_Atoms>  (588) 
nan

$$$$
CHEMBL3798362
     RDKit          3D

  0  0  0  0  0  0  0  0  0  0999 V3000
M  V30 BEGIN CTAB
M  V30 COUNTS 54 58 0 0 0
M  V30 BEGIN ATOM
M  V30 1 C 1.018617 -3.121255 6.560971 0
M  V30 2 N 1.794283 -2.939572 5.331859 0
M  V30 3 C 1.324442 -2.218359 4.278338 0
M  V30 4 C 2.325884 -2.278224 3.328677 0
M  V30 5 C 2.275320 -1.643882 2.013710 0
M  V30 6 C 1.566125 -0.463301 1.940973 0
M  V30 7 C 1.437834 0.240816 0.762696 0
M  V30 8 C 2.022825 -0.221085 -0.394923 0
M  V30 9 C 2.069398 0.262124 -1.764052 0
M  V30 10 C 3.237956 0.368268 -2.486756 0
M  V30 11 N 3.220685 0.825325 -3.752309 0
M  V30 12 C 2.082337 1.191829 -4.356285 0
M  V30 13 C 0.901211 1.091677 -3.646105 0
M  V30 14 F -0.195482 1.495303 -4.369214 0
M  V30 15 C 0.873720 0.624520 -2.335685 0
M  V30 16 N -0.452682 0.612966 -1.822970 0
M  V30 17 C -1.352402 1.515357 -1.115277 0
M  V30 18 C -2.038451 0.886666 0.051120 0
M  V30 19 C -2.813243 -0.314494 -0.374670 0
M  V30 20 C -4.319081 -0.091261 -0.228812 0
M  V30 21 C -4.484392 -0.257961 1.266721 0
M  V30 22 N -3.696154 -1.427737 1.598788 0
M  V30 23 C -2.607728 -1.384892 0.653554 0
M  V30 24 O -1.623838 -2.170483 0.721514 0
M  V30 25 C -2.451370 -0.855263 -1.706338 0
M  V30 26 C -1.024394 -0.663729 -2.103080 0
M  V30 27 C 2.746220 -1.420092 -0.332701 0
M  V30 28 C 2.882457 -2.143101 0.860969 0
M  V30 29 C 3.380138 -3.027217 3.812474 0
M  V30 30 N 3.014305 -3.424553 5.066033 0
M  V30 31 H 0.153992 -3.771700 6.308770 0
M  V30 32 H 0.572331 -2.118067 6.823378 0
M  V30 33 H 1.630531 -3.477152 7.389057 0
M  V30 34 H 0.377940 -1.724276 4.229460 0
M  V30 35 H 1.063900 -0.002188 2.780177 0
M  V30 36 H 0.924421 1.165040 0.572794 0
M  V30 37 H 4.127403 0.053500 -1.936094 0
M  V30 38 H 2.164259 1.545783 -5.370527 0
M  V30 39 H -2.136643 1.813079 -1.837078 0
M  V30 40 H -0.838631 2.444275 -0.797064 0
M  V30 41 H -2.784692 1.657813 0.407516 0
M  V30 42 H -1.415208 0.684135 0.927281 0
M  V30 43 H -4.808929 -0.936457 -0.728536 0
M  V30 44 H -4.607555 0.902513 -0.578839 0
M  V30 45 H -5.526356 -0.458044 1.527192 0
M  V30 46 H -4.157234 0.643953 1.793032 0
M  V30 47 H -3.840031 -2.144846 2.325861 0
M  V30 48 H -2.765589 -1.912186 -1.821766 0
M  V30 49 H -3.054651 -0.290088 -2.455803 0
M  V30 50 H -0.879965 -0.958251 -3.182851 0
M  V30 51 H -0.418120 -1.433216 -1.547922 0
M  V30 52 H 3.281088 -1.948642 -1.137209 0
M  V30 53 H 3.424494 -3.068641 0.970497 0
M  V30 54 H 4.289663 -3.238177 3.288156 0
M  V30 END ATOM
M  V30 BEGIN BOND
M  V30 1 1 1 2
M  V30 2 1 2 3
M  V30 3 2 3 4
M  V30 4 1 4 5
M  V30 5 2 5 6
M  V30 6 1 6 7
M  V30 7 2 7 8
M  V30 8 1 8 9
M  V30 9 2 9 10
M  V30 10 1 10 11
M  V30 11 2 11 12
M  V30 12 1 12 13
M  V30 13 1 13 14
M  V30 14 2 13 15
M  V30 15 1 15 16
M  V30 16 1 16 17
M  V30 17 1 17 18
M  V30 18 1 18 19
M  V30 19 1 19 20
M  V30 20 1 20 21
M  V30 21 1 21 22
M  V30 22 1 22 23
M  V30 23 2 23 24
M  V30 24 1 19 25
M  V30 25 1 25 26
M  V30 26 1 8 27
M  V30 27 2 27 28
M  V30 28 1 4 29
M  V30 29 2 29 30
M  V30 30 1 30 2
M  V30 31 1 28 5
M  V30 32 1 15 9
M  V30 33 1 26 16
M  V30 34 1 23 19
M  V30 35 1 1 31
M  V30 36 1 1 32
M  V30 37 1 1 33
M  V30 38 1 3 34
M  V30 39 1 6 35
M  V30 40 1 7 36
M  V30 41 1 10 37
M  V30 42 1 12 38
M  V30 43 1 17 39
M  V30 44 1 17 40
M  V30 45 1 18 41
M  V30 46 1 18 42
M  V30 47 1 20 43
M  V30 48 1 20 44
M  V30 49 1 21 45
M  V30 50 1 21 46
M  V30 51 1 22 47
M  V30 52 1 25 48
M  V30 53 1 25 49
M  V30 54 1 26 50
M  V30 55 1 26 51
M  V30 56 1 27 52
M  V30 57 1 28 53
M  V30 58 1 29 54
M  V30 END BOND
M  V30 END CTAB
M  END
>  <Dataset>  (589) 
ChEMBL_Kinases

>  <Ligand_Instance>  (589) 
nan

>  <PDB_ID>  (589) 
nan

>  <Standardized_SMILES>  (589) 
Cn1cc(-c2ccc(-c3cncc(F)c3N3CCC4(CCNC4=O)CC3)cc2)cn1

>  <Name>  (589) 
nan

>  <Pocket>  (589) 
nan

>  <ATP_Site>  (589) 
nan

>  <Peripheral>  (589) 
nan

>  <Num_H_Atoms_ProtBoundConf>  (589) 
nan

>  <Num_Resolved_Atoms>  (589) 
nan

>  <Num_Not_Resolved_Atoms>  (589) 
nan

$$$$
CHEMBL3798143
     RDKit          3D

  0  0  0  0  0  0  0  0  0  0999 V3000
M  V30 BEGIN CTAB
M  V30 COUNTS 40 42 0 0 0
M  V30 BEGIN ATOM
M  V30 1 C -1.430932 -1.950415 5.636052 0
M  V30 2 C -0.482161 -1.437039 4.558324 0
M  V30 3 C -0.960764 -1.968974 3.254414 0
M  V30 4 C -0.112445 -1.525444 2.079696 0
M  V30 5 S 1.177790 -2.476228 1.339635 0
M  V30 6 C 1.634539 -1.291668 0.174414 0
M  V30 7 C 2.733336 -1.442274 -0.847919 0
M  V30 8 C 3.550059 -2.535202 -1.018994 0
M  V30 9 C 4.385717 -2.180484 -2.078422 0
M  V30 10 N 4.070518 -0.940891 -2.503646 0
M  V30 11 N 3.073189 -0.525392 -1.742713 0
M  V30 12 C 0.824207 -0.273157 0.388198 0
M  V30 13 C -0.071762 -0.406782 1.372501 0
M  V30 14 C -0.980903 0.731604 1.564767 0
M  V30 15 O -1.570733 1.075173 2.616237 0
M  V30 16 C -1.374553 1.715566 0.491986 0
M  V30 17 C -0.669730 1.219059 -0.772864 0
M  V30 18 C -0.806763 2.166451 -1.914738 0
M  V30 19 C -1.147567 -0.140159 -1.196126 0
M  V30 20 C 0.773246 1.038884 -0.325155 0
M  V30 21 H -1.647475 -1.166959 6.400224 0
M  V30 22 H -1.000375 -2.866901 6.084571 0
M  V30 23 H -2.424325 -2.230006 5.207006 0
M  V30 24 H -0.411712 -0.341889 4.562156 0
M  V30 25 H 0.544790 -1.892149 4.715895 0
M  V30 26 H -1.979627 -1.531568 3.030942 0
M  V30 27 H -1.112340 -3.054086 3.234088 0
M  V30 28 H 3.546177 -3.449003 -0.466429 0
M  V30 29 H 5.176345 -2.766274 -2.526807 0
M  V30 30 H 4.436689 -0.319020 -3.247419 0
M  V30 31 H -2.473881 1.660276 0.386528 0
M  V30 32 H -0.972518 2.697828 0.733882 0
M  V30 33 H -0.652962 1.635025 -2.885934 0
M  V30 34 H -1.880792 2.489716 -1.959988 0
M  V30 35 H -0.188769 3.060601 -1.833041 0
M  V30 36 H -0.303309 -0.840754 -1.413489 0
M  V30 37 H -1.760335 -0.641502 -0.428012 0
M  V30 38 H -1.758406 -0.112647 -2.130616 0
M  V30 39 H 1.029472 1.876841 0.358081 0
M  V30 40 H 1.422548 1.091399 -1.191456 0
M  V30 END ATOM
M  V30 BEGIN BOND
M  V30 1 1 1 2
M  V30 2 1 2 3
M  V30 3 1 3 4
M  V30 4 1 4 5
M  V30 5 1 5 6
M  V30 6 1 6 7
M  V30 7 1 7 8
M  V30 8 2 8 9
M  V30 9 1 9 10
M  V30 10 1 10 11
M  V30 11 2 6 12
M  V30 12 1 12 13
M  V30 13 1 13 14
M  V30 14 2 14 15
M  V30 15 1 14 16
M  V30 16 1 16 17
M  V30 17 1 17 18
M  V30 18 1 17 19
M  V30 19 1 17 20
M  V30 20 2 13 4
M  V30 21 2 11 7
M  V30 22 1 20 12
M  V30 23 1 1 21
M  V30 24 1 1 22
M  V30 25 1 1 23
M  V30 26 1 2 24
M  V30 27 1 2 25
M  V30 28 1 3 26
M  V30 29 1 3 27
M  V30 30 1 8 28
M  V30 31 1 9 29
M  V30 32 1 10 30
M  V30 33 1 16 31
M  V30 34 1 16 32
M  V30 35 1 18 33
M  V30 36 1 18 34
M  V30 37 1 18 35
M  V30 38 1 19 36
M  V30 39 1 19 37
M  V30 40 1 19 38
M  V30 41 1 20 39
M  V30 42 1 20 40
M  V30 END BOND
M  V30 END CTAB
M  END
>  <Dataset>  (590) 
ChEMBL_Kinases

>  <Ligand_Instance>  (590) 
nan

>  <PDB_ID>  (590) 
nan

>  <Standardized_SMILES>  (590) 
CCCc1sc(-c2cc[nH]n2)c2c1C(=O)CC(C)(C)C2

>  <Name>  (590) 
nan

>  <Pocket>  (590) 
nan

>  <ATP_Site>  (590) 
nan

>  <Peripheral>  (590) 
nan

>  <Num_H_Atoms_ProtBoundConf>  (590) 
nan

>  <Num_Resolved_Atoms>  (590) 
nan

>  <Num_Not_Resolved_Atoms>  (590) 
nan

$$$$
CHEMBL379835
     RDKit          3D

  0  0  0  0  0  0  0  0  0  0999 V3000
M  V30 BEGIN CTAB
M  V30 COUNTS 35 38 0 0 0
M  V30 BEGIN ATOM
M  V30 1 C -0.824251 -0.604538 4.596332 0
M  V30 2 C -0.241170 -0.722919 3.232305 0
M  V30 3 N 0.853520 -1.436723 2.843453 0
M  V30 4 N 1.035254 -1.273212 1.532802 0
M  V30 5 C 2.097337 -1.887278 0.808776 0
M  V30 6 C 3.461661 -1.678587 1.013854 0
M  V30 7 C 4.364294 -2.360299 0.216635 0
M  V30 8 C 3.946375 -3.241084 -0.775756 0
M  V30 9 C 2.592614 -3.452776 -0.984500 0
M  V30 10 C 1.702484 -2.765305 -0.181024 0
M  V30 11 C 0.072418 -0.452918 1.024382 0
M  V30 12 C -0.733998 -0.101868 2.083121 0
M  V30 13 C -1.812737 0.735112 1.876082 0
M  V30 14 O -2.585319 1.086016 2.825969 0
M  V30 15 C -2.015591 1.179408 0.569437 0
M  V30 16 C -3.052613 2.007458 0.266825 0
M  V30 17 C -3.361608 2.515504 -0.978004 0
M  V30 18 Cl -4.716518 3.577845 -1.287033 0
M  V30 19 C -2.484144 2.100734 -1.985130 0
M  V30 20 C -1.411969 1.264572 -1.760455 0
M  V30 21 C -1.192312 0.812888 -0.475532 0
M  V30 22 N -0.149772 -0.004386 -0.238403 0
M  V30 23 O 0.661804 -0.364767 -1.272639 0
M  V30 24 H -0.067780 -0.929412 5.345763 0
M  V30 25 H -1.228686 0.410071 4.779952 0
M  V30 26 H -1.653788 -1.342229 4.649767 0
M  V30 27 H 3.680960 -0.989150 1.793206 0
M  V30 28 H 5.403236 -2.158311 0.421818 0
M  V30 29 H 4.704720 -3.758739 -1.382852 0
M  V30 30 H 2.266374 -4.137666 -1.756144 0
M  V30 31 H 0.647695 -2.984203 -0.405073 0
M  V30 32 H -3.700649 2.294806 1.094445 0
M  V30 33 H -2.685806 2.475515 -2.988500 0
M  V30 34 H -0.811241 1.016143 -2.606954 0
M  V30 35 H 1.133369 0.298846 -1.867634 0
M  V30 END ATOM
M  V30 BEGIN BOND
M  V30 1 1 1 2
M  V30 2 2 2 3
M  V30 3 1 3 4
M  V30 4 1 4 5
M  V30 5 2 5 6
M  V30 6 1 6 7
M  V30 7 2 7 8
M  V30 8 1 8 9
M  V30 9 2 9 10
M  V30 10 1 4 11
M  V30 11 2 11 12
M  V30 12 1 12 13
M  V30 13 2 13 14
M  V30 14 1 13 15
M  V30 15 2 15 16
M  V30 16 1 16 17
M  V30 17 1 17 18
M  V30 18 2 17 19
M  V30 19 1 19 20
M  V30 20 2 20 21
M  V30 21 1 21 22
M  V30 22 1 22 23
M  V30 23 1 12 2
M  V30 24 1 21 15
M  V30 25 1 10 5
M  V30 26 1 22 11
M  V30 27 1 1 24
M  V30 28 1 1 25
M  V30 29 1 1 26
M  V30 30 1 6 27
M  V30 31 1 7 28
M  V30 32 1 8 29
M  V30 33 1 9 30
M  V30 34 1 10 31
M  V30 35 1 16 32
M  V30 36 1 19 33
M  V30 37 1 20 34
M  V30 38 1 23 35
M  V30 END BOND
M  V30 END CTAB
M  END
>  <Dataset>  (591) 
ChEMBL_Kinases

>  <Ligand_Instance>  (591) 
nan

>  <PDB_ID>  (591) 
nan

>  <Standardized_SMILES>  (591) 
Cc1nn(-c2ccccc2)c2c1c(=O)c1cc(Cl)ccc1n2O

>  <Name>  (591) 
nan

>  <Pocket>  (591) 
nan

>  <ATP_Site>  (591) 
nan

>  <Peripheral>  (591) 
nan

>  <Num_H_Atoms_ProtBoundConf>  (591) 
nan

>  <Num_Resolved_Atoms>  (591) 
nan

>  <Num_Not_Resolved_Atoms>  (591) 
nan

$$$$
CHEMBL3798318
     RDKit          3D

  0  0  0  0  0  0  0  0  0  0999 V3000
M  V30 BEGIN CTAB
M  V30 COUNTS 69 74 0 0 0
M  V30 BEGIN ATOM
M  V30 1 O 4.513071 -1.513949 2.543312 0
M  V30 2 C 3.492736 -0.871356 2.941666 0
M  V30 3 N 2.539707 -1.443778 3.861908 0
M  V30 4 C 1.941552 -0.394973 4.674089 0
M  V30 5 C 2.406884 0.884758 4.019576 0
M  V30 6 C 2.962223 0.488232 2.669606 0
M  V30 7 C 1.858269 0.439201 1.610967 0
M  V30 8 C 2.401991 1.206374 0.427725 0
M  V30 9 N 2.460935 2.580362 0.751374 0
M  V30 10 C 1.774443 3.693453 0.285363 0
M  V30 11 C 1.996319 5.003932 0.638947 0
M  V30 12 Cl 3.238221 5.445382 1.788572 0
M  V30 13 C 1.327279 6.108899 0.174194 0
M  V30 14 N 0.326950 5.944270 -0.736783 0
M  V30 15 C 0.047645 4.664196 -1.136374 0
M  V30 16 C 0.758815 3.590682 -0.628542 0
M  V30 17 C 0.147487 2.415802 -1.174296 0
M  V30 18 C -0.619777 1.666660 -0.263952 0
M  V30 19 C -1.272365 0.514724 -0.647013 0
M  V30 20 C -1.169562 0.087503 -1.955154 0
M  V30 21 C -1.890591 -1.138492 -2.281967 0
M  V30 22 C -1.628261 -2.142712 -3.190420 0
M  V30 23 N -2.606010 -3.055876 -3.104785 0
M  V30 24 N -3.515143 -2.746711 -2.204410 0
M  V30 25 C -4.716162 -3.352122 -1.725646 0
M  V30 26 C -4.601078 -4.264076 -0.567879 0
M  V30 27 N -3.787694 -5.418291 -0.704459 0
M  V30 28 C -2.394206 -5.239969 -0.822602 0
M  V30 29 C -1.703335 -6.263717 0.045146 0
M  V30 30 C -2.807565 -7.193043 0.511897 0
M  V30 31 C -3.988472 -6.288308 0.430027 0
M  V30 32 C -3.081026 -1.562044 -1.690346 0
M  V30 33 C -0.431220 0.782294 -2.890478 0
M  V30 34 C 0.217398 1.934844 -2.492706 0
M  V30 35 C 3.449763 2.747669 1.804451 0
M  V30 36 C 4.038015 1.444544 2.307921 0
M  V30 37 H 2.274114 -2.466724 3.975040 0
M  V30 38 H 0.838230 -0.447399 4.666392 0
M  V30 39 H 2.321186 -0.465791 5.712658 0
M  V30 40 H 1.592840 1.628399 3.916178 0
M  V30 41 H 3.213660 1.307875 4.651066 0
M  V30 42 H 1.002288 0.977843 2.054426 0
M  V30 43 H 1.578831 -0.591181 1.348006 0
M  V30 44 H 2.023482 0.913333 -0.546641 0
M  V30 45 H 3.470198 0.790742 0.325257 0
M  V30 46 H 1.530127 7.125679 0.475643 0
M  V30 47 H -0.762893 4.687916 -1.856091 0
M  V30 48 H -0.728267 1.970745 0.764759 0
M  V30 49 H -1.858081 -0.038434 0.087573 0
M  V30 50 H -0.760996 -2.143361 -3.840959 0
M  V30 51 H -5.161429 -3.907604 -2.610219 0
M  V30 52 H -5.474531 -2.539364 -1.552002 0
M  V30 53 H -4.309231 -3.717158 0.349489 0
M  V30 54 H -5.644837 -4.638744 -0.348516 0
M  V30 55 H -2.115084 -4.210652 -0.510345 0
M  V30 56 H -2.004729 -5.452398 -1.866401 0
M  V30 57 H -1.235891 -5.806376 0.961611 0
M  V30 58 H -0.968150 -6.888014 -0.476989 0
M  V30 59 H -2.962367 -8.067774 -0.121723 0
M  V30 60 H -2.662562 -7.441654 1.592460 0
M  V30 61 H -4.956260 -6.828928 0.370814 0
M  V30 62 H -3.964763 -5.615566 1.338321 0
M  V30 63 H -3.561361 -0.966016 -0.908143 0
M  V30 64 H -0.358716 0.444011 -3.894976 0
M  V30 65 H 0.818116 2.545198 -3.152467 0
M  V30 66 H 2.994858 3.196660 2.716838 0
M  V30 67 H 4.339319 3.310279 1.419180 0
M  V30 68 H 4.540826 1.719499 3.286973 0
M  V30 69 H 4.873673 1.054819 1.708189 0
M  V30 END ATOM
M  V30 BEGIN BOND
M  V30 1 2 1 2
M  V30 2 1 2 3
M  V30 3 1 3 4
M  V30 4 1 4 5
M  V30 5 1 5 6
M  V30 6 1 6 7
M  V30 7 1 7 8
M  V30 8 1 8 9
M  V30 9 1 9 10
M  V30 10 2 10 11
M  V30 11 1 11 12
M  V30 12 1 11 13
M  V30 13 2 13 14
M  V30 14 1 14 15
M  V30 15 2 15 16
M  V30 16 1 16 17
M  V30 17 2 17 18
M  V30 18 1 18 19
M  V30 19 2 19 20
M  V30 20 1 20 21
M  V30 21 1 21 22
M  V30 22 2 22 23
M  V30 23 1 23 24
M  V30 24 1 24 25
M  V30 25 1 25 26
M  V30 26 1 26 27
M  V30 27 1 27 28
M  V30 28 1 28 29
M  V30 29 1 29 30
M  V30 30 1 30 31
M  V30 31 1 24 32
M  V30 32 1 20 33
M  V30 33 2 33 34
M  V30 34 1 9 35
M  V30 35 1 35 36
M  V30 36 1 6 2
M  V30 37 1 16 10
M  V30 38 1 34 17
M  V30 39 1 36 6
M  V30 40 2 32 21
M  V30 41 1 31 27
M  V30 42 1 3 37
M  V30 43 1 4 38
M  V30 44 1 4 39
M  V30 45 1 5 40
M  V30 46 1 5 41
M  V30 47 1 7 42
M  V30 48 1 7 43
M  V30 49 1 8 44
M  V30 50 1 8 45
M  V30 51 1 13 46
M  V30 52 1 15 47
M  V30 53 1 18 48
M  V30 54 1 19 49
M  V30 55 1 22 50
M  V30 56 1 25 51
M  V30 57 1 25 52
M  V30 58 1 26 53
M  V30 59 1 26 54
M  V30 60 1 28 55
M  V30 61 1 28 56
M  V30 62 1 29 57
M  V30 63 1 29 58
M  V30 64 1 30 59
M  V30 65 1 30 60
M  V30 66 1 31 61
M  V30 67 1 31 62
M  V30 68 1 32 63
M  V30 69 1 33 64
M  V30 70 1 34 65
M  V30 71 1 35 66
M  V30 72 1 35 67
M  V30 73 1 36 68
M  V30 74 1 36 69
M  V30 END BOND
M  V30 END CTAB
M  END
>  <Dataset>  (592) 
ChEMBL_Kinases

>  <Ligand_Instance>  (592) 
nan

>  <PDB_ID>  (592) 
nan

>  <Standardized_SMILES>  (592) 
O=C1NCCC12CCN(c1c(Cl)cncc1-c1ccc(-c3cnn(CCN4CCCC4)c3)cc1)CC2

>  <Name>  (592) 
nan

>  <Pocket>  (592) 
nan

>  <ATP_Site>  (592) 
nan

>  <Peripheral>  (592) 
nan

>  <Num_H_Atoms_ProtBoundConf>  (592) 
nan

>  <Num_Resolved_Atoms>  (592) 
nan

>  <Num_Not_Resolved_Atoms>  (592) 
nan

$$$$
CHEMBL3798316
     RDKit          3D

  0  0  0  0  0  0  0  0  0  0999 V3000
M  V30 BEGIN CTAB
M  V30 COUNTS 37 39 0 0 0
M  V30 BEGIN ATOM
M  V30 1 C 1.450208 -1.941901 2.516629 0
M  V30 2 C 1.092512 -2.558333 1.193733 0
M  V30 3 C 0.868450 -4.038614 1.420377 0
M  V30 4 C 2.245332 -2.369564 0.263415 0
M  V30 5 C 2.007851 -1.144785 -0.566901 0
M  V30 6 O 2.668856 -0.943208 -1.640672 0
M  V30 7 C 1.016977 -0.153648 -0.169484 0
M  V30 8 C 1.108855 1.266762 -0.357600 0
M  V30 9 S 2.434138 2.203952 -1.114920 0
M  V30 10 C 2.160102 2.386337 -2.849552 0
M  V30 11 O 3.742311 1.531901 -0.827996 0
M  V30 12 O 2.495293 3.564693 -0.486526 0
M  V30 13 S -0.395591 1.927827 0.332479 0
M  V30 14 C -1.069004 0.386462 0.824841 0
M  V30 15 C -2.340165 0.168078 1.485418 0
M  V30 16 C -3.192339 1.201650 1.810558 0
M  V30 17 C -4.268297 0.550916 2.416094 0
M  V30 18 N -4.054153 -0.797624 2.442963 0
M  V30 19 N -2.858398 -0.990066 1.861308 0
M  V30 20 C -0.134001 -0.521148 0.445589 0
M  V30 21 C -0.183846 -1.996340 0.616256 0
M  V30 22 H 2.029808 -2.705082 3.084131 0
M  V30 23 H 0.575703 -1.676946 3.115500 0
M  V30 24 H 2.135755 -1.067269 2.400041 0
M  V30 25 H 0.077921 -4.225055 2.179191 0
M  V30 26 H 0.617958 -4.488359 0.436211 0
M  V30 27 H 1.838613 -4.430497 1.803853 0
M  V30 28 H 3.225630 -2.261211 0.769779 0
M  V30 29 H 2.313113 -3.215092 -0.447254 0
M  V30 30 H 1.052682 2.415714 -3.057262 0
M  V30 31 H 2.545639 3.348537 -3.238382 0
M  V30 32 H 2.661252 1.573296 -3.397466 0
M  V30 33 H -3.079613 2.259637 1.648414 0
M  V30 34 H -5.134356 1.089773 2.797536 0
M  V30 35 H -4.741306 -1.466218 2.854921 0
M  V30 36 H -0.319870 -2.504388 -0.372083 0
M  V30 37 H -0.996373 -2.336611 1.249832 0
M  V30 END ATOM
M  V30 BEGIN BOND
M  V30 1 1 1 2
M  V30 2 1 2 3
M  V30 3 1 2 4
M  V30 4 1 4 5
M  V30 5 2 5 6
M  V30 6 1 5 7
M  V30 7 2 7 8
M  V30 8 1 8 9
M  V30 9 1 9 10
M  V30 10 2 9 11
M  V30 11 2 9 12
M  V30 12 1 8 13
M  V30 13 1 13 14
M  V30 14 1 14 15
M  V30 15 1 15 16
M  V30 16 2 16 17
M  V30 17 1 17 18
M  V30 18 1 18 19
M  V30 19 2 14 20
M  V30 20 1 20 21
M  V30 21 1 21 2
M  V30 22 1 20 7
M  V30 23 2 19 15
M  V30 24 1 1 22
M  V30 25 1 1 23
M  V30 26 1 1 24
M  V30 27 1 3 25
M  V30 28 1 3 26
M  V30 29 1 3 27
M  V30 30 1 4 28
M  V30 31 1 4 29
M  V30 32 1 10 30
M  V30 33 1 10 31
M  V30 34 1 10 32
M  V30 35 1 16 33
M  V30 36 1 17 34
M  V30 37 1 18 35
M  V30 38 1 21 36
M  V30 39 1 21 37
M  V30 END BOND
M  V30 END CTAB
M  END
>  <Dataset>  (593) 
ChEMBL_Kinases

>  <Ligand_Instance>  (593) 
nan

>  <PDB_ID>  (593) 
nan

>  <Standardized_SMILES>  (593) 
CC1(C)CC(=O)c2c(S(C)(=O)=O)sc(-c3cc[nH]n3)c2C1

>  <Name>  (593) 
nan

>  <Pocket>  (593) 
nan

>  <ATP_Site>  (593) 
nan

>  <Peripheral>  (593) 
nan

>  <Num_H_Atoms_ProtBoundConf>  (593) 
nan

>  <Num_Resolved_Atoms>  (593) 
nan

>  <Num_Not_Resolved_Atoms>  (593) 
nan

$$$$
CHEMBL3798294
     RDKit          3D

  0  0  0  0  0  0  0  0  0  0999 V3000
M  V30 BEGIN CTAB
M  V30 COUNTS 65 69 0 0 0
M  V30 BEGIN ATOM
M  V30 1 C 6.117111 -0.374918 -3.092666 0
M  V30 2 N 5.427594 -0.182007 -1.808355 0
M  V30 3 C 5.340565 -1.494365 -1.188205 0
M  V30 4 C 6.259413 0.698009 -0.995122 0
M  V30 5 C 5.627112 0.957684 0.350866 0
M  V30 6 N 4.335283 1.587413 0.257525 0
M  V30 7 C 3.128157 0.998482 0.171746 0
M  V30 8 C 2.125664 1.960212 0.098537 0
M  V30 9 C 0.673682 1.783759 -0.005627 0
M  V30 10 C 0.135451 0.699802 -0.668589 0
M  V30 11 C -1.233386 0.525667 -0.772364 0
M  V30 12 C -2.118710 1.419328 -0.221810 0
M  V30 13 C -3.545006 1.487248 -0.161110 0
M  V30 14 C -4.265853 2.624692 -0.519568 0
M  V30 15 N -5.610709 2.656117 -0.460062 0
M  V30 16 C -6.306969 1.578425 -0.048125 0
M  V30 17 C -5.619692 0.420778 0.319417 0
M  V30 18 Cl -6.703916 -0.858233 0.822238 0
M  V30 19 C -4.224314 0.366399 0.265373 0
M  V30 20 N -3.746204 -0.888881 0.689125 0
M  V30 21 C -3.520349 -0.872676 2.096833 0
M  V30 22 C -2.384146 -1.823561 2.437955 0
M  V30 23 C -2.733168 -3.253688 2.091168 0
M  V30 24 C -3.003620 -4.068474 3.301331 0
M  V30 25 C -2.280748 -5.381868 3.147993 0
M  V30 26 N -1.626226 -5.251312 1.843238 0
M  V30 27 C -1.511176 -3.866870 1.479583 0
M  V30 28 O -0.510332 -3.485038 0.790531 0
M  V30 29 C -3.824002 -3.297212 1.037312 0
M  V30 30 C -3.441695 -2.190776 0.064883 0
M  V30 31 C -1.571350 2.526382 0.455617 0
M  V30 32 C -0.185213 2.705558 0.561649 0
M  V30 33 C 2.818995 3.153131 0.146539 0
M  V30 34 N 4.139821 2.902245 0.241574 0
M  V30 35 H 7.201150 -0.244351 -2.905955 0
M  V30 36 H 5.730859 0.347273 -3.838510 0
M  V30 37 H 5.997474 -1.431573 -3.442440 0
M  V30 38 H 4.800283 -2.140509 -1.908355 0
M  V30 39 H 6.371817 -1.875642 -1.014364 0
M  V30 40 H 4.769160 -1.502316 -0.243104 0
M  V30 41 H 7.229507 0.191049 -0.786131 0
M  V30 42 H 6.455405 1.631700 -1.541264 0
M  V30 43 H 5.583001 -0.022000 0.901158 0
M  V30 44 H 6.311302 1.651666 0.901929 0
M  V30 45 H 2.901820 -0.058928 0.157416 0
M  V30 46 H 0.758015 -0.055800 -1.133527 0
M  V30 47 H -1.743707 -0.266448 -1.267002 0
M  V30 48 H -3.709016 3.491354 -0.851482 0
M  V30 49 H -7.372438 1.712835 -0.038862 0
M  V30 50 H -3.211698 0.098964 2.529821 0
M  V30 51 H -4.398852 -1.182064 2.699182 0
M  V30 52 H -2.272688 -1.779192 3.537463 0
M  V30 53 H -1.424010 -1.494750 1.997264 0
M  V30 54 H -2.569962 -3.535408 4.187646 0
M  V30 55 H -4.085614 -4.167040 3.507039 0
M  V30 56 H -2.954594 -6.250792 3.203204 0
M  V30 57 H -1.456513 -5.467433 3.894199 0
M  V30 58 H -1.333998 -6.146760 1.356257 0
M  V30 59 H -4.826803 -3.111549 1.411998 0
M  V30 60 H -3.830408 -4.228718 0.449928 0
M  V30 61 H -2.338315 -2.219218 -0.090741 0
M  V30 62 H -3.910106 -2.296836 -0.928793 0
M  V30 63 H -2.105347 3.343453 0.958067 0
M  V30 64 H 0.280690 3.529102 1.065231 0
M  V30 65 H 2.310460 4.110671 0.108086 0
M  V30 END ATOM
M  V30 BEGIN BOND
M  V30 1 1 1 2
M  V30 2 1 2 3
M  V30 3 1 2 4
M  V30 4 1 4 5
M  V30 5 1 5 6
M  V30 6 1 6 7
M  V30 7 2 7 8
M  V30 8 1 8 9
M  V30 9 2 9 10
M  V30 10 1 10 11
M  V30 11 2 11 12
M  V30 12 1 12 13
M  V30 13 2 13 14
M  V30 14 1 14 15
M  V30 15 2 15 16
M  V30 16 1 16 17
M  V30 17 1 17 18
M  V30 18 2 17 19
M  V30 19 1 19 20
M  V30 20 1 20 21
M  V30 21 1 21 22
M  V30 22 1 22 23
M  V30 23 1 23 24
M  V30 24 1 24 25
M  V30 25 1 25 26
M  V30 26 1 26 27
M  V30 27 2 27 28
M  V30 28 1 23 29
M  V30 29 1 29 30
M  V30 30 1 12 31
M  V30 31 2 31 32
M  V30 32 1 8 33
M  V30 33 2 33 34
M  V30 34 1 34 6
M  V30 35 1 32 9
M  V30 36 1 19 13
M  V30 37 1 30 20
M  V30 38 1 27 23
M  V30 39 1 1 35
M  V30 40 1 1 36
M  V30 41 1 1 37
M  V30 42 1 3 38
M  V30 43 1 3 39
M  V30 44 1 3 40
M  V30 45 1 4 41
M  V30 46 1 4 42
M  V30 47 1 5 43
M  V30 48 1 5 44
M  V30 49 1 7 45
M  V30 50 1 10 46
M  V30 51 1 11 47
M  V30 52 1 14 48
M  V30 53 1 16 49
M  V30 54 1 21 50
M  V30 55 1 21 51
M  V30 56 1 22 52
M  V30 57 1 22 53
M  V30 58 1 24 54
M  V30 59 1 24 55
M  V30 60 1 25 56
M  V30 61 1 25 57
M  V30 62 1 26 58
M  V30 63 1 29 59
M  V30 64 1 29 60
M  V30 65 1 30 61
M  V30 66 1 30 62
M  V30 67 1 31 63
M  V30 68 1 32 64
M  V30 69 1 33 65
M  V30 END BOND
M  V30 END CTAB
M  END
>  <Dataset>  (594) 
ChEMBL_Kinases

>  <Ligand_Instance>  (594) 
nan

>  <PDB_ID>  (594) 
nan

>  <Standardized_SMILES>  (594) 
CN(C)CCn1cc(-c2ccc(-c3cncc(Cl)c3N3CCC4(CCNC4=O)CC3)cc2)cn1

>  <Name>  (594) 
nan

>  <Pocket>  (594) 
nan

>  <ATP_Site>  (594) 
nan

>  <Peripheral>  (594) 
nan

>  <Num_H_Atoms_ProtBoundConf>  (594) 
nan

>  <Num_Resolved_Atoms>  (594) 
nan

>  <Num_Not_Resolved_Atoms>  (594) 
nan

$$$$
CHEMBL3798283
     RDKit          3D

  0  0  0  0  0  0  0  0  0  0999 V3000
M  V30 BEGIN CTAB
M  V30 COUNTS 58 62 0 0 0
M  V30 BEGIN ATOM
M  V30 1 C 1.744332 -3.787830 3.837175 0
M  V30 2 N 2.790160 -2.783099 3.991617 0
M  V30 3 C 4.065462 -3.207368 4.480825 0
M  V30 4 C 2.595501 -1.399069 3.676275 0
M  V30 5 N 2.689028 -0.291244 4.448871 0
M  V30 6 N 2.429719 0.783314 3.759328 0
M  V30 7 C 2.442766 2.141350 4.288683 0
M  V30 8 C 2.143071 0.493263 2.479333 0
M  V30 9 C 1.800205 1.196244 1.316715 0
M  V30 10 C 1.560903 0.534717 0.101349 0
M  V30 11 C 1.241397 1.514603 -0.904076 0
M  V30 12 C 2.009043 2.636251 -1.118650 0
M  V30 13 N 1.703883 3.529356 -2.052891 0
M  V30 14 C 0.622740 3.351952 -2.818417 0
M  V30 15 C -0.200145 2.238006 -2.655605 0
M  V30 16 Cl -1.551247 2.222677 -3.769436 0
M  V30 17 C 0.120659 1.296108 -1.671095 0
M  V30 18 N -0.819003 0.237581 -1.642119 0
M  V30 19 C -1.931202 0.495782 -0.724979 0
M  V30 20 C -2.387359 -0.831633 -0.155472 0
M  V30 21 C -3.107700 -1.592021 -1.236500 0
M  V30 22 C -3.052941 -3.087736 -1.044829 0
M  V30 23 C -4.251454 -3.586987 -1.820923 0
M  V30 24 N -5.205720 -2.498068 -1.771050 0
M  V30 25 C -4.544328 -1.313613 -1.291587 0
M  V30 26 O -5.334915 -0.349824 -1.041482 0
M  V30 27 C -2.474281 -1.209861 -2.581935 0
M  V30 28 C -0.994348 -1.064941 -2.299413 0
M  V30 29 C 1.676558 -0.839874 0.093251 0
M  V30 30 C 2.013986 -1.524141 1.241024 0
M  V30 31 C 2.251733 -0.888314 2.441992 0
M  V30 32 H 1.735301 -4.217350 2.819678 0
M  V30 33 H 1.862792 -4.593985 4.596714 0
M  V30 34 H 0.727859 -3.335686 4.003318 0
M  V30 35 H 3.917116 -3.507699 5.558694 0
M  V30 36 H 4.378969 -4.134428 3.966616 0
M  V30 37 H 4.821337 -2.398758 4.409980 0
M  V30 38 H 2.173580 2.090921 5.353346 0
M  V30 39 H 1.787112 2.819851 3.702704 0
M  V30 40 H 3.468735 2.568637 4.221197 0
M  V30 41 H 1.762291 2.255417 1.532238 0
M  V30 42 H 2.879823 2.762942 -0.489723 0
M  V30 43 H 0.466849 4.143369 -3.550970 0
M  V30 44 H -2.828244 0.861557 -1.306097 0
M  V30 45 H -1.713815 1.236819 0.041462 0
M  V30 46 H -1.501333 -1.351846 0.254092 0
M  V30 47 H -3.057843 -0.635113 0.728407 0
M  V30 48 H -2.100983 -3.528674 -1.410716 0
M  V30 49 H -3.175676 -3.299478 0.051415 0
M  V30 50 H -4.692356 -4.503871 -1.337363 0
M  V30 51 H -3.933059 -3.817945 -2.872710 0
M  V30 52 H -6.191982 -2.722291 -2.077268 0
M  V30 53 H -2.943801 -0.320158 -3.006166 0
M  V30 54 H -2.581770 -2.047409 -3.287112 0
M  V30 55 H -0.725744 -1.838096 -1.561230 0
M  V30 56 H -0.386427 -1.122124 -3.223589 0
M  V30 57 H 1.481674 -1.230159 -0.874362 0
M  V30 58 H 2.067697 -2.587873 1.088729 0
M  V30 END ATOM
M  V30 BEGIN BOND
M  V30 1 1 1 2
M  V30 2 1 2 3
M  V30 3 1 2 4
M  V30 4 2 4 5
M  V30 5 1 5 6
M  V30 6 1 6 7
M  V30 7 1 6 8
M  V30 8 2 8 9
M  V30 9 1 9 10
M  V30 10 1 10 11
M  V30 11 2 11 12
M  V30 12 1 12 13
M  V30 13 2 13 14
M  V30 14 1 14 15
M  V30 15 1 15 16
M  V30 16 2 15 17
M  V30 17 1 17 18
M  V30 18 1 18 19
M  V30 19 1 19 20
M  V30 20 1 20 21
M  V30 21 1 21 22
M  V30 22 1 22 23
M  V30 23 1 23 24
M  V30 24 1 24 25
M  V30 25 2 25 26
M  V30 26 1 21 27
M  V30 27 1 27 28
M  V30 28 2 10 29
M  V30 29 1 29 30
M  V30 30 2 30 31
M  V30 31 1 31 4
M  V30 32 1 31 8
M  V30 33 1 17 11
M  V30 34 1 28 18
M  V30 35 1 25 21
M  V30 36 1 1 32
M  V30 37 1 1 33
M  V30 38 1 1 34
M  V30 39 1 3 35
M  V30 40 1 3 36
M  V30 41 1 3 37
M  V30 42 1 7 38
M  V30 43 1 7 39
M  V30 44 1 7 40
M  V30 45 1 9 41
M  V30 46 1 12 42
M  V30 47 1 14 43
M  V30 48 1 19 44
M  V30 49 1 19 45
M  V30 50 1 20 46
M  V30 51 1 20 47
M  V30 52 1 22 48
M  V30 53 1 22 49
M  V30 54 1 23 50
M  V30 55 1 23 51
M  V30 56 1 24 52
M  V30 57 1 27 53
M  V30 58 1 27 54
M  V30 59 1 28 55
M  V30 60 1 28 56
M  V30 61 1 29 57
M  V30 62 1 30 58
M  V30 END BOND
M  V30 END CTAB
M  END
>  <Dataset>  (595) 
ChEMBL_Kinases

>  <Ligand_Instance>  (595) 
nan

>  <PDB_ID>  (595) 
nan

>  <Standardized_SMILES>  (595) 
CN(C)c1nn(C)c2cc(-c3cncc(Cl)c3N3CCC4(CCNC4=O)CC3)ccc12

>  <Name>  (595) 
nan

>  <Pocket>  (595) 
nan

>  <ATP_Site>  (595) 
nan

>  <Peripheral>  (595) 
nan

>  <Num_H_Atoms_ProtBoundConf>  (595) 
nan

>  <Num_Resolved_Atoms>  (595) 
nan

>  <Num_Not_Resolved_Atoms>  (595) 
nan

$$$$
CHEMBL590713
     RDKit          3D

  0  0  0  0  0  0  0  0  0  0999 V3000
M  V30 BEGIN CTAB
M  V30 COUNTS 66 72 0 0 0
M  V30 BEGIN ATOM
M  V30 1 N 6.740128 -5.180154 2.237188 0
M  V30 2 C 6.644415 -3.765460 2.123490 0
M  V30 3 O 7.621052 -2.966768 2.320009 0
M  V30 4 C 5.361467 -3.175342 1.761647 0
M  V30 5 N 5.155224 -1.835385 1.624745 0
M  V30 6 N 3.894905 -1.591193 1.290585 0
M  V30 7 C 3.476265 -0.248844 1.099563 0
M  V30 8 C 3.625419 0.229676 -0.208378 0
M  V30 9 C 3.278477 1.509754 -0.562664 0
M  V30 10 C 2.765971 2.352484 0.401669 0
M  V30 11 C 2.607885 1.908093 1.698926 0
M  V30 12 C 2.953845 0.623681 2.063430 0
M  V30 13 O 2.083148 2.931939 2.458124 0
M  V30 14 C 1.620900 3.920317 1.532541 0
M  V30 15 O 2.337673 3.674910 0.330261 0
M  V30 16 C 3.280793 -2.778930 1.210413 0
M  V30 17 C 4.171866 -3.790132 1.499694 0
M  V30 18 C 3.850900 -5.216642 1.508754 0
M  V30 19 C 2.448120 -5.558848 1.175125 0
M  V30 20 C 1.569128 -4.431575 0.882100 0
M  V30 21 C 0.263605 -4.792962 0.575195 0
M  V30 22 C -0.664003 -3.790575 0.277542 0
M  V30 23 C -0.317135 -2.444768 0.280132 0
M  V30 24 N -1.324073 -1.496749 -0.034205 0
M  V30 25 C -2.012819 -1.074984 1.139984 0
M  V30 26 O -1.580786 -1.629096 2.177047 0
M  V30 27 C -3.102101 -0.103163 1.130088 0
M  V30 28 N -3.569789 0.496736 0.017865 0
M  V30 29 C -4.581799 1.392635 0.049708 0
M  V30 30 N -5.010190 1.976635 -1.175569 0
M  V30 31 C -4.336439 1.579931 -2.396885 0
M  V30 32 C -5.329575 1.391273 -3.516010 0
M  V30 33 O -6.573890 1.951665 -3.248465 0
M  V30 34 C -6.429817 3.202386 -2.617868 0
M  V30 35 C -6.093822 2.936507 -1.151605 0
M  V30 36 C -5.168512 1.716089 1.255778 0
M  V30 37 C -4.708091 1.115131 2.413509 0
M  V30 38 C -3.666659 0.197895 2.352508 0
M  V30 39 Cl -3.119241 -0.537207 3.853992 0
M  V30 40 C 1.003889 -2.119426 0.593226 0
M  V30 41 C 1.906683 -3.115263 0.884202 0
M  V30 42 H 7.127357 -5.759295 1.450003 0
M  V30 43 H 6.369771 -5.433478 3.185763 0
M  V30 44 H 4.028050 -0.405045 -1.004936 0
M  V30 45 H 3.415738 1.836801 -1.605553 0
M  V30 46 H 2.865641 0.191644 3.048210 0
M  V30 47 H 0.541373 3.777603 1.278071 0
M  V30 48 H 1.846199 4.911869 1.961217 0
M  V30 49 H 4.066182 -5.628649 2.528561 0
M  V30 50 H 4.564962 -5.773793 0.845654 0
M  V30 51 H 1.959256 -6.208564 1.957131 0
M  V30 52 H 2.434762 -6.221298 0.260433 0
M  V30 53 H -0.089437 -5.830995 0.551707 0
M  V30 54 H -1.682688 -4.059036 0.037247 0
M  V30 55 H -1.614919 -1.084979 -0.970401 0
M  V30 56 H -3.523385 2.265923 -2.670321 0
M  V30 57 H -3.829040 0.582227 -2.250372 0
M  V30 58 H -5.498405 0.308599 -3.752572 0
M  V30 59 H -4.904762 1.916398 -4.420691 0
M  V30 60 H -5.574120 3.716334 -3.056103 0
M  V30 61 H -7.341067 3.789750 -2.732091 0
M  V30 62 H -6.963216 2.504357 -0.616828 0
M  V30 63 H -5.769548 3.838407 -0.634074 0
M  V30 64 H -5.982315 2.438469 1.269544 0
M  V30 65 H -5.162008 1.360982 3.373877 0
M  V30 66 H 1.199386 -1.072802 0.576372 0
M  V30 END ATOM
M  V30 BEGIN BOND
M  V30 1 1 1 2
M  V30 2 2 2 3
M  V30 3 1 2 4
M  V30 4 2 4 5
M  V30 5 1 5 6
M  V30 6 1 6 7
M  V30 7 2 7 8
M  V30 8 1 8 9
M  V30 9 2 9 10
M  V30 10 1 10 11
M  V30 11 2 11 12
M  V30 12 1 11 13
M  V30 13 1 13 14
M  V30 14 1 14 15
M  V30 15 1 6 16
M  V30 16 2 16 17
M  V30 17 1 17 18
M  V30 18 1 18 19
M  V30 19 1 19 20
M  V30 20 2 20 21
M  V30 21 1 21 22
M  V30 22 2 22 23
M  V30 23 1 23 24
M  V30 24 1 24 25
M  V30 25 2 25 26
M  V30 26 1 25 27
M  V30 27 2 27 28
M  V30 28 1 28 29
M  V30 29 1 29 30
M  V30 30 1 30 31
M  V30 31 1 31 32
M  V30 32 1 32 33
M  V30 33 1 33 34
M  V30 34 1 34 35
M  V30 35 2 29 36
M  V30 36 1 36 37
M  V30 37 2 37 38
M  V30 38 1 38 39
M  V30 39 1 23 40
M  V30 40 2 40 41
M  V30 41 1 17 4
M  V30 42 1 41 20
M  V30 43 1 12 7
M  V30 44 1 41 16
M  V30 45 1 15 10
M  V30 46 1 38 27
M  V30 47 1 35 30
M  V30 48 1 1 42
M  V30 49 1 1 43
M  V30 50 1 8 44
M  V30 51 1 9 45
M  V30 52 1 12 46
M  V30 53 1 14 47
M  V30 54 1 14 48
M  V30 55 1 18 49
M  V30 56 1 18 50
M  V30 57 1 19 51
M  V30 58 1 19 52
M  V30 59 1 21 53
M  V30 60 1 22 54
M  V30 61 1 24 55
M  V30 62 1 31 56
M  V30 63 1 31 57
M  V30 64 1 32 58
M  V30 65 1 32 59
M  V30 66 1 34 60
M  V30 67 1 34 61
M  V30 68 1 35 62
M  V30 69 1 35 63
M  V30 70 1 36 64
M  V30 71 1 37 65
M  V30 72 1 40 66
M  V30 END BOND
M  V30 END CTAB
M  END
>  <Dataset>  (596) 
ChEMBL_Kinases

>  <Ligand_Instance>  (596) 
nan

>  <PDB_ID>  (596) 
nan

>  <Standardized_SMILES>  (596) 
NC(=O)c1nn(-c2ccc3c(c2)OCO3)c2c1CCc1ccc(NC(=O)c3nc(N4CCOCC4)ccc3Cl)cc1-2

>  <Name>  (596) 
nan

>  <Pocket>  (596) 
nan

>  <ATP_Site>  (596) 
nan

>  <Peripheral>  (596) 
nan

>  <Num_H_Atoms_ProtBoundConf>  (596) 
nan

>  <Num_Resolved_Atoms>  (596) 
nan

>  <Num_Not_Resolved_Atoms>  (596) 
nan

$$$$
CHEMBL3798266
     RDKit          3D

  0  0  0  0  0  0  0  0  0  0999 V3000
M  V30 BEGIN CTAB
M  V30 COUNTS 48 52 0 0 0
M  V30 BEGIN ATOM
M  V30 1 C -0.721207 -4.904029 -0.066648 0
M  V30 2 C 0.224871 -3.762398 0.126366 0
M  V30 3 C 1.013247 -3.480783 -1.124387 0
M  V30 4 N 1.191004 -4.182705 1.152053 0
M  V30 5 C 2.174194 -3.281093 1.611655 0
M  V30 6 O 3.291636 -3.651929 2.037389 0
M  V30 7 C 1.829169 -1.868125 1.570108 0
M  V30 8 C 2.697387 -0.881671 1.982885 0
M  V30 9 C 2.331653 0.445401 1.920764 0
M  V30 10 C 1.086449 0.791223 1.441492 0
M  V30 11 N 0.706882 2.161351 1.376220 0
M  V30 12 C -0.281506 2.659599 2.147492 0
M  V30 13 O -0.978652 2.041000 2.988953 0
M  V30 14 N -0.463194 3.972692 1.914701 0
M  V30 15 C 0.436645 4.334440 0.962500 0
M  V30 16 N 0.741683 5.490598 0.322767 0
M  V30 17 C 1.729100 5.495194 -0.601810 0
M  V30 18 C 2.449896 4.365544 -0.929291 0
M  V30 19 C 2.169559 3.168669 -0.300166 0
M  V30 20 C 1.157622 3.201386 0.635891 0
M  V30 21 C 0.244575 -0.222446 1.037731 0
M  V30 22 C 0.570213 -1.583991 1.082165 0
M  V30 23 N -0.392792 -2.560732 0.627449 0
M  V30 24 C -1.761935 -2.204211 0.760317 0
M  V30 25 C -2.751685 -2.616358 -0.100586 0
M  V30 26 C -4.094055 -2.319659 -0.000106 0
M  V30 27 C -4.502525 -1.535100 1.058726 0
M  V30 28 C -3.555716 -1.090015 1.957148 0
M  V30 29 C -2.230501 -1.424658 1.796587 0
M  V30 30 H -1.583895 -4.777710 0.593450 0
M  V30 31 H -0.213859 -5.855115 0.239214 0
M  V30 32 H -1.023766 -5.068145 -1.124145 0
M  V30 33 H 2.047457 -3.136556 -0.910387 0
M  V30 34 H 0.536007 -2.675595 -1.739506 0
M  V30 35 H 1.094475 -4.362990 -1.783356 0
M  V30 36 H 1.179661 -5.158642 1.569654 0
M  V30 37 H 3.673445 -1.184172 2.356401 0
M  V30 38 H 3.049661 1.171544 2.256526 0
M  V30 39 H -1.140010 4.630852 2.345642 0
M  V30 40 H 1.892036 6.470795 -1.053316 0
M  V30 41 H 3.222838 4.458536 -1.680455 0
M  V30 42 H 2.725058 2.278370 -0.546507 0
M  V30 43 H -0.717647 0.126697 0.664536 0
M  V30 44 H -2.503532 -3.224322 -0.952982 0
M  V30 45 H -4.827364 -2.669366 -0.703201 0
M  V30 46 H -5.529879 -1.244987 1.228882 0
M  V30 47 H -3.884276 -0.468504 2.794427 0
M  V30 48 H -1.564401 -1.035097 2.551484 0
M  V30 END ATOM
M  V30 BEGIN BOND
M  V30 1 1 1 2
M  V30 2 1 2 3
M  V30 3 1 2 4
M  V30 4 1 4 5
M  V30 5 2 5 6
M  V30 6 1 5 7
M  V30 7 2 7 8
M  V30 8 1 8 9
M  V30 9 2 9 10
M  V30 10 1 10 11
M  V30 11 1 11 12
M  V30 12 2 12 13
M  V30 13 1 12 14
M  V30 14 1 14 15
M  V30 15 2 15 16
M  V30 16 1 16 17
M  V30 17 2 17 18
M  V30 18 1 18 19
M  V30 19 2 19 20
M  V30 20 1 10 21
M  V30 21 2 21 22
M  V30 22 1 22 23
M  V30 23 1 23 24
M  V30 24 2 24 25
M  V30 25 1 25 26
M  V30 26 2 26 27
M  V30 27 1 27 28
M  V30 28 2 28 29
M  V30 29 1 23 2
M  V30 30 1 29 24
M  V30 31 1 22 7
M  V30 32 1 20 11
M  V30 33 1 20 15
M  V30 34 1 1 30
M  V30 35 1 1 31
M  V30 36 1 1 32
M  V30 37 1 3 33
M  V30 38 1 3 34
M  V30 39 1 3 35
M  V30 40 1 4 36
M  V30 41 1 8 37
M  V30 42 1 9 38
M  V30 43 1 14 39
M  V30 44 1 17 40
M  V30 45 1 18 41
M  V30 46 1 19 42
M  V30 47 1 21 43
M  V30 48 1 25 44
M  V30 49 1 26 45
M  V30 50 1 27 46
M  V30 51 1 28 47
M  V30 52 1 29 48
M  V30 END BOND
M  V30 END CTAB
M  END
>  <Dataset>  (597) 
ChEMBL_Kinases

>  <Ligand_Instance>  (597) 
nan

>  <PDB_ID>  (597) 
nan

>  <Standardized_SMILES>  (597) 
CC1(C)NC(=O)c2ccc(-n3c(=O)[nH]c4ncccc43)cc2N1c1ccccc1

>  <Name>  (597) 
nan

>  <Pocket>  (597) 
nan

>  <ATP_Site>  (597) 
nan

>  <Peripheral>  (597) 
nan

>  <Num_H_Atoms_ProtBoundConf>  (597) 
nan

>  <Num_Resolved_Atoms>  (597) 
nan

>  <Num_Not_Resolved_Atoms>  (597) 
nan

$$$$
CHEMBL5070612
     RDKit          3D

  0  0  0  0  0  0  0  0  0  0999 V3000
M  V30 BEGIN CTAB
M  V30 COUNTS 57 61 0 0 0
M  V30 BEGIN ATOM
M  V30 1 C 5.265692 -3.365274 -1.020146 0
M  V30 2 C 4.941450 -2.836834 0.330894 0
M  V30 3 N 5.696190 -2.784444 1.457204 0
M  V30 4 N 4.985943 -2.219573 2.441806 0
M  V30 5 C 3.754397 -1.887675 1.993542 0
M  V30 6 N 2.683866 -1.301115 2.596096 0
M  V30 7 C 1.547418 -1.079996 1.898867 0
M  V30 8 C 0.399258 -0.453289 2.542262 0
M  V30 9 C 0.482170 -0.090228 3.873075 0
M  V30 10 C -0.605744 0.495005 4.459884 0
M  V30 11 C -1.803514 0.748869 3.788440 0
M  V30 12 N -2.797457 1.362773 4.595230 0
M  V30 13 S -3.715877 2.692733 4.005211 0
M  V30 14 O -4.564018 3.302489 5.080501 0
M  V30 15 O -2.722059 3.767009 3.603479 0
M  V30 16 C -4.667014 2.305611 2.602530 0
M  V30 17 C -4.494977 2.964887 1.382750 0
M  V30 18 C -5.225240 2.692041 0.244392 0
M  V30 19 Cl -4.896984 3.603963 -1.216718 0
M  V30 20 C -6.186819 1.699418 0.329600 0
M  V30 21 C -6.383209 1.028408 1.518105 0
M  V30 22 C -5.640844 1.324067 2.629395 0
M  V30 23 F -5.873398 0.638329 3.765061 0
M  V30 24 C -1.870495 0.375461 2.442695 0
M  V30 25 C -0.771950 -0.214505 1.853459 0
M  V30 26 N 1.493146 -1.447813 0.605625 0
M  V30 27 C 2.538583 -2.032437 -0.021966 0
M  V30 28 O 2.545389 -2.434143 -1.350150 0
M  V30 29 C 1.403354 -2.246870 -2.170242 0
M  V30 30 C 1.822235 -1.446368 -3.372178 0
M  V30 31 C 0.762599 -1.572100 -4.434443 0
M  V30 32 N 0.801543 -2.897554 -5.012404 0
M  V30 33 C 1.280938 -3.884786 -4.065238 0
M  V30 34 C 0.848671 -3.567670 -2.652343 0
M  V30 35 F -0.519907 -3.637985 -2.535450 0
M  V30 36 C 3.718691 -2.273203 0.664978 0
M  V30 37 H 6.287563 -3.808741 -0.969255 0
M  V30 38 H 5.203912 -2.591613 -1.811391 0
M  V30 39 H 4.599672 -4.221747 -1.306171 0
M  V30 40 H 5.283806 -2.035912 3.429069 0
M  V30 41 H 1.412354 -0.291694 4.379423 0
M  V30 42 H -0.457127 0.747523 5.501078 0
M  V30 43 H -2.990158 1.024395 5.552452 0
M  V30 44 H -3.730405 3.747640 1.331136 0
M  V30 45 H -6.735649 1.523283 -0.597160 0
M  V30 46 H -7.153563 0.286797 1.452339 0
M  V30 47 H -2.813437 0.599458 1.996203 0
M  V30 48 H -0.874245 -0.484542 0.810726 0
M  V30 49 H 0.566147 -1.755629 -1.601466 0
M  V30 50 H 2.815144 -1.844002 -3.682281 0
M  V30 51 H 1.893229 -0.354596 -3.137164 0
M  V30 52 H -0.220877 -1.469129 -3.936042 0
M  V30 53 H 0.849345 -0.830812 -5.251285 0
M  V30 54 H 1.458451 -2.930429 -5.838728 0
M  V30 55 H 2.367948 -3.943568 -4.144968 0
M  V30 56 H 0.798259 -4.847594 -4.338561 0
M  V30 57 H 1.269618 -4.360038 -2.000669 0
M  V30 END ATOM
M  V30 BEGIN BOND
M  V30 1 1 1 2
M  V30 2 2 2 3
M  V30 3 1 3 4
M  V30 4 1 4 5
M  V30 5 2 5 6
M  V30 6 1 6 7
M  V30 7 1 7 8
M  V30 8 2 8 9
M  V30 9 1 9 10
M  V30 10 2 10 11
M  V30 11 1 11 12
M  V30 12 1 12 13
M  V30 13 2 13 14
M  V30 14 2 13 15
M  V30 15 1 13 16
M  V30 16 2 16 17
M  V30 17 1 17 18
M  V30 18 1 18 19
M  V30 19 2 18 20
M  V30 20 1 20 21
M  V30 21 2 21 22
M  V30 22 1 22 23
M  V30 23 1 11 24
M  V30 24 2 24 25
M  V30 25 2 7 26
M  V30 26 1 26 27
M  V30 27 1 27 28
M  V30 28 1 28 29
M  V30 29 1 29 30
M  V30 30 1 30 31
M  V30 31 1 31 32
M  V30 32 1 32 33
M  V30 33 1 33 34
M  V30 34 1 34 35
M  V30 35 2 27 36
M  V30 36 1 36 2
M  V30 37 1 36 5
M  V30 38 1 25 8
M  V30 39 1 34 29
M  V30 40 1 22 16
M  V30 41 1 1 37
M  V30 42 1 1 38
M  V30 43 1 1 39
M  V30 44 1 4 40
M  V30 45 1 9 41
M  V30 46 1 10 42
M  V30 47 1 12 43
M  V30 48 1 17 44
M  V30 49 1 20 45
M  V30 50 1 21 46
M  V30 51 1 24 47
M  V30 52 1 25 48
M  V30 53 1 29 49
M  V30 54 1 30 50
M  V30 55 1 30 51
M  V30 56 1 31 52
M  V30 57 1 31 53
M  V30 58 1 32 54
M  V30 59 1 33 55
M  V30 60 1 33 56
M  V30 61 1 34 57
M  V30 END BOND
M  V30 END CTAB
M  END
>  <Dataset>  (598) 
ChEMBL_Kinases

>  <Ligand_Instance>  (598) 
nan

>  <PDB_ID>  (598) 
nan

>  <Standardized_SMILES>  (598) 
Cc1n[nH]c2nc(-c3ccc(NS(=O)(=O)c4cc(Cl)ccc4F)cc3)nc(OC3CCNCC3F)c12

>  <Name>  (598) 
nan

>  <Pocket>  (598) 
nan

>  <ATP_Site>  (598) 
nan

>  <Peripheral>  (598) 
nan

>  <Num_H_Atoms_ProtBoundConf>  (598) 
nan

>  <Num_Resolved_Atoms>  (598) 
nan

>  <Num_Not_Resolved_Atoms>  (598) 
nan

$$$$
CHEMBL3798232
     RDKit          3D

  0  0  0  0  0  0  0  0  0  0999 V3000
M  V30 BEGIN CTAB
M  V30 COUNTS 40 43 0 0 0
M  V30 BEGIN ATOM
M  V30 1 O -0.032491 -0.913250 4.072432 0
M  V30 2 C 0.585650 -1.524928 3.134458 0
M  V30 3 C 1.066521 -2.933339 3.356947 0
M  V30 4 C 1.975360 -3.229682 2.175115 0
M  V30 5 C 2.783910 -1.932675 1.982208 0
M  V30 6 C 1.972970 -0.992821 1.170413 0
M  V30 7 C 2.169663 -0.349321 0.003556 0
M  V30 8 C 3.274968 -0.331308 -0.932608 0
M  V30 9 C 4.517861 -0.910522 -1.036311 0
M  V30 10 C 5.207772 -0.554546 -2.170103 0
M  V30 11 N 4.338750 0.274132 -2.770549 0
M  V30 12 N 3.232679 0.410691 -2.076342 0
M  V30 13 S 0.683702 0.568283 -0.208009 0
M  V30 14 C -0.111968 0.033725 1.281334 0
M  V30 15 N -1.406286 0.476617 1.657786 0
M  V30 16 C -2.121307 1.381950 0.825945 0
M  V30 17 C -2.446385 0.926641 -0.547579 0
M  V30 18 C -3.794607 0.232210 -0.505610 0
M  V30 19 C -4.453854 0.747450 0.733590 0
M  V30 20 C -3.483084 1.668708 1.413588 0
M  V30 21 C 0.804008 -0.822108 1.864522 0
M  V30 22 H 1.706723 -2.999517 4.265099 0
M  V30 23 H 0.243748 -3.648479 3.433490 0
M  V30 24 H 2.658976 -4.067490 2.376254 0
M  V30 25 H 1.375818 -3.450346 1.269083 0
M  V30 26 H 2.968992 -1.515250 3.010408 0
M  V30 27 H 3.723132 -2.249823 1.551381 0
M  V30 28 H 4.895315 -1.579114 -0.283288 0
M  V30 29 H 6.195500 -0.900326 -2.434510 0
M  V30 30 H 4.541278 0.753445 -3.698736 0
M  V30 31 H -1.750799 0.082203 2.564288 0
M  V30 32 H -1.532076 2.339097 0.719145 0
M  V30 33 H -2.631223 1.844720 -1.180297 0
M  V30 34 H -1.690556 0.358906 -1.081950 0
M  V30 35 H -3.652898 -0.883293 -0.470391 0
M  V30 36 H -4.378187 0.440727 -1.425987 0
M  V30 37 H -5.407553 1.230355 0.453319 0
M  V30 38 H -4.671258 -0.079930 1.452835 0
M  V30 39 H -3.408101 1.506456 2.512160 0
M  V30 40 H -3.747183 2.743308 1.248739 0
M  V30 END ATOM
M  V30 BEGIN BOND
M  V30 1 2 1 2
M  V30 2 1 2 3
M  V30 3 1 3 4
M  V30 4 1 4 5
M  V30 5 1 5 6
M  V30 6 2 6 7
M  V30 7 1 7 8
M  V30 8 1 8 9
M  V30 9 2 9 10
M  V30 10 1 10 11
M  V30 11 1 11 12
M  V30 12 1 7 13
M  V30 13 1 13 14
M  V30 14 1 14 15
M  V30 15 1 15 16
M  V30 16 1 16 17
M  V30 17 1 17 18
M  V30 18 1 18 19
M  V30 19 1 19 20
M  V30 20 2 14 21
M  V30 21 1 21 2
M  V30 22 1 21 6
M  V30 23 2 12 8
M  V30 24 1 20 16
M  V30 25 1 3 22
M  V30 26 1 3 23
M  V30 27 1 4 24
M  V30 28 1 4 25
M  V30 29 1 5 26
M  V30 30 1 5 27
M  V30 31 1 9 28
M  V30 32 1 10 29
M  V30 33 1 11 30
M  V30 34 1 15 31
M  V30 35 1 16 32
M  V30 36 1 17 33
M  V30 37 1 17 34
M  V30 38 1 18 35
M  V30 39 1 18 36
M  V30 40 1 19 37
M  V30 41 1 19 38
M  V30 42 1 20 39
M  V30 43 1 20 40
M  V30 END BOND
M  V30 END CTAB
M  END
>  <Dataset>  (599) 
ChEMBL_Kinases

>  <Ligand_Instance>  (599) 
nan

>  <PDB_ID>  (599) 
nan

>  <Standardized_SMILES>  (599) 
O=C1CCCc2c(-c3cc[nH]n3)sc(NC3CCCC3)c21

>  <Name>  (599) 
nan

>  <Pocket>  (599) 
nan

>  <ATP_Site>  (599) 
nan

>  <Peripheral>  (599) 
nan

>  <Num_H_Atoms_ProtBoundConf>  (599) 
nan

>  <Num_Resolved_Atoms>  (599) 
nan

>  <Num_Not_Resolved_Atoms>  (599) 
nan

$$$$
CHEMBL379822
     RDKit          3D

  0  0  0  0  0  0  0  0  0  0999 V3000
M  V30 BEGIN CTAB
M  V30 COUNTS 61 62 0 0 0
M  V30 BEGIN ATOM
M  V30 1 C 4.923013 -1.792327 5.112630 0
M  V30 2 O 3.975757 -1.606880 4.100193 0
M  V30 3 C 4.246155 -0.983247 2.913718 0
M  V30 4 C 5.483917 -0.454073 2.539485 0
M  V30 5 C 5.735810 0.169455 1.343451 0
M  V30 6 C 4.670488 0.269856 0.456089 0
M  V30 7 C 3.447927 -0.248081 0.815792 0
M  V30 8 C 3.180527 -0.869904 2.001505 0
M  V30 9 C 1.884192 -1.430552 2.365025 0
M  V30 10 C 0.833088 -0.613565 2.220405 0
M  V30 11 C 0.632490 0.787171 1.765386 0
M  V30 12 C -0.693819 1.163908 2.276346 0
M  V30 13 C -0.453377 2.313306 3.295184 0
M  V30 14 O 0.378360 1.804627 4.260590 0
M  V30 15 C -1.701404 1.718695 1.316464 0
M  V30 16 O -2.244849 0.849309 0.473497 0
M  V30 17 C -2.099079 -0.013218 -0.505164 0
M  V30 18 O -0.940734 -0.105777 -0.845053 0
M  V30 19 C -3.269854 -0.678483 -1.000097 0
M  V30 20 C -3.235673 -1.602206 -2.144657 0
M  V30 21 C -2.802864 -1.160208 -3.472183 0
M  V30 22 C -1.452302 -0.633214 -3.714754 0
M  V30 23 C -3.009181 -2.309713 -4.466330 0
M  V30 24 C -2.831915 -3.018103 -1.758518 0
M  V30 25 C -1.515024 -3.184369 -1.129686 0
M  V30 26 C -3.893427 -3.630894 -0.845941 0
M  V30 27 O -1.289128 0.081134 2.969483 0
M  V30 28 C -0.537010 -1.047027 2.565307 0
M  V30 29 O -1.049596 -2.219351 2.535874 0
M  V30 30 H 4.882705 -2.841679 5.507719 0
M  V30 31 H 4.574623 -1.151102 5.981426 0
M  V30 32 H 5.939490 -1.466858 4.904156 0
M  V30 33 H 6.325941 -0.517125 3.204251 0
M  V30 34 H 6.705555 0.564062 1.096237 0
M  V30 35 H 4.858254 0.763572 -0.503389 0
M  V30 36 H 2.709626 -0.133927 0.064891 0
M  V30 37 H 1.755862 -2.438286 2.731358 0
M  V30 38 H 1.452232 1.357749 2.330208 0
M  V30 39 H 0.788589 0.969887 0.706984 0
M  V30 40 H 0.014150 3.121903 2.677341 0
M  V30 41 H -1.452624 2.620855 3.628281 0
M  V30 42 H 0.717189 2.584983 4.789266 0
M  V30 43 H -2.454032 2.302874 1.937609 0
M  V30 44 H -1.200236 2.568520 0.737328 0
M  V30 45 H -4.081762 0.109466 -1.144114 0
M  V30 46 H -3.717170 -1.263183 -0.138867 0
M  V30 47 H -4.369408 -1.806153 -2.325990 0
M  V30 48 H -3.603512 -0.433103 -3.840342 0
M  V30 49 H -0.589313 -1.116705 -3.294962 0
M  V30 50 H -1.423429 0.452863 -3.452542 0
M  V30 51 H -1.235755 -0.607216 -4.839449 0
M  V30 52 H -3.123828 -1.868870 -5.502475 0
M  V30 53 H -3.963062 -2.822969 -4.229421 0
M  V30 54 H -2.172735 -3.001207 -4.490213 0
M  V30 55 H -2.906885 -3.611589 -2.701403 0
M  V30 56 H -1.389198 -2.718696 -0.140905 0
M  V30 57 H -1.373070 -4.289130 -0.913306 0
M  V30 58 H -0.708654 -2.975056 -1.856518 0
M  V30 59 H -3.626041 -4.727280 -0.784298 0
M  V30 60 H -4.883688 -3.578553 -1.330134 0
M  V30 61 H -3.850116 -3.264934 0.182662 0
M  V30 END ATOM
M  V30 BEGIN BOND
M  V30 1 1 1 2
M  V30 2 1 2 3
M  V30 3 2 3 4
M  V30 4 1 4 5
M  V30 5 2 5 6
M  V30 6 1 6 7
M  V30 7 2 7 8
M  V30 8 1 8 9
M  V30 9 2 9 10
M  V30 10 1 10 11
M  V30 11 1 11 12
M  V30 12 1 12 13
M  V30 13 1 13 14
M  V30 14 1 12 15
M  V30 15 1 15 16
M  V30 16 1 16 17
M  V30 17 2 17 18
M  V30 18 1 17 19
M  V30 19 1 19 20
M  V30 20 1 20 21
M  V30 21 1 21 22
M  V30 22 1 21 23
M  V30 23 1 20 24
M  V30 24 1 24 25
M  V30 25 1 24 26
M  V30 26 1 12 27
M  V30 27 1 27 28
M  V30 28 2 28 29
M  V30 29 1 8 3
M  V30 30 1 28 10
M  V30 31 1 1 30
M  V30 32 1 1 31
M  V30 33 1 1 32
M  V30 34 1 4 33
M  V30 35 1 5 34
M  V30 36 1 6 35
M  V30 37 1 7 36
M  V30 38 1 9 37
M  V30 39 1 11 38
M  V30 40 1 11 39
M  V30 41 1 13 40
M  V30 42 1 13 41
M  V30 43 1 14 42
M  V30 44 1 15 43
M  V30 45 1 15 44
M  V30 46 1 19 45
M  V30 47 1 19 46
M  V30 48 1 20 47
M  V30 49 1 21 48
M  V30 50 1 22 49
M  V30 51 1 22 50
M  V30 52 1 22 51
M  V30 53 1 23 52
M  V30 54 1 23 53
M  V30 55 1 23 54
M  V30 56 1 24 55
M  V30 57 1 25 56
M  V30 58 1 25 57
M  V30 59 1 25 58
M  V30 60 1 26 59
M  V30 61 1 26 60
M  V30 62 1 26 61
M  V30 END BOND
M  V30 END CTAB
M  END
>  <Dataset>  (600) 
ChEMBL_Kinases

>  <Ligand_Instance>  (600) 
nan

>  <PDB_ID>  (600) 
nan

>  <Standardized_SMILES>  (600) 
COc1ccccc1/C=C1\CC(CO)(COC(=O)CC(C(C)C)C(C)C)OC1=O

>  <Name>  (600) 
nan

>  <Pocket>  (600) 
nan

>  <ATP_Site>  (600) 
nan

>  <Peripheral>  (600) 
nan

>  <Num_H_Atoms_ProtBoundConf>  (600) 
nan

>  <Num_Resolved_Atoms>  (600) 
nan

>  <Num_Not_Resolved_Atoms>  (600) 
nan

$$$$
CHEMBL5070699
     RDKit          3D

  0  0  0  0  0  0  0  0  0  0999 V3000
M  V30 BEGIN CTAB
M  V30 COUNTS 51 54 0 0 0
M  V30 BEGIN ATOM
M  V30 1 C 6.659060 -1.630497 1.793621 0
M  V30 2 C 5.503262 -1.178292 2.606754 0
M  V30 3 C 5.435637 -1.118929 3.965484 0
M  V30 4 N 4.222783 -0.656370 4.300057 0
M  V30 5 C 3.585681 -0.384062 5.594198 0
M  V30 6 N 3.537823 -0.428014 3.184771 0
M  V30 7 C 4.294661 -0.738474 2.106909 0
M  V30 8 N 3.872971 -0.613013 0.734571 0
M  V30 9 C 2.569694 -0.138591 0.405502 0
M  V30 10 C 1.504832 -1.001161 0.240191 0
M  V30 11 C 0.203964 -0.590098 -0.082269 0
M  V30 12 C -0.011555 0.761570 -0.241090 0
M  V30 13 C 1.068819 1.626084 -0.072477 0
M  V30 14 N 0.791224 3.002814 -0.246334 0
M  V30 15 N 2.299511 1.171335 0.237846 0
M  V30 16 C -1.351441 0.881980 -0.547810 0
M  V30 17 C -1.917853 2.173933 -0.779497 0
M  V30 18 N -2.357725 3.226572 -0.969427 0
M  V30 19 C -1.873417 -0.391465 -0.558448 0
M  V30 20 N -3.245347 -0.645253 -0.841576 0
M  V30 21 C -4.380479 0.180294 -1.182039 0
M  V30 22 C -5.270595 -0.086963 0.045910 0
M  V30 23 C -5.291275 -1.613427 -0.055957 0
M  V30 24 C -4.030024 -1.890300 -0.884894 0 CFG=1
M  V30 25 C -4.458864 -2.244502 -2.271241 0
M  V30 26 N -0.939226 -1.311496 -0.276177 0
M  V30 27 C -1.016469 -2.728107 -0.180091 0
M  V30 28 H 6.487952 -1.369867 0.726748 0
M  V30 29 H 7.585996 -1.141457 2.147030 0
M  V30 30 H 6.718442 -2.733578 1.947519 0
M  V30 31 H 6.173034 -1.376703 4.708735 0
M  V30 32 H 3.466469 0.729640 5.717303 0
M  V30 33 H 2.548362 -0.785007 5.627092 0
M  V30 34 H 4.132363 -0.848681 6.417901 0
M  V30 35 H 4.548524 -0.878481 -0.011051 0
M  V30 36 H 1.724423 -2.068483 0.376739 0
M  V30 37 H 0.336679 3.472493 0.570867 0
M  V30 38 H 0.865274 3.803550 -0.920776 0
M  V30 39 H -4.223988 1.248949 -1.182407 0
M  V30 40 H -4.966793 -0.191176 -2.049966 0
M  V30 41 H -4.710804 0.216234 0.958499 0
M  V30 42 H -6.257546 0.364498 -0.048250 0
M  V30 43 H -5.247219 -2.030907 0.948570 0
M  V30 44 H -6.213795 -1.872259 -0.584010 0
M  V30 45 H -3.550833 -2.721042 -0.362712 0
M  V30 46 H -4.216996 -3.318166 -2.429730 0
M  V30 47 H -5.541498 -2.114085 -2.381625 0
M  V30 48 H -3.973643 -1.644596 -3.072891 0
M  V30 49 H -1.369982 -3.250300 -1.097450 0
M  V30 50 H 0.033350 -3.143987 -0.067299 0
M  V30 51 H -1.505719 -3.108866 0.759337 0
M  V30 END ATOM
M  V30 BEGIN BOND
M  V30 1 1 1 2
M  V30 2 2 2 3
M  V30 3 1 3 4
M  V30 4 1 4 5
M  V30 5 1 4 6
M  V30 6 2 6 7
M  V30 7 1 7 8
M  V30 8 1 8 9
M  V30 9 2 9 10
M  V30 10 1 10 11
M  V30 11 2 11 12
M  V30 12 1 12 13
M  V30 13 1 13 14
M  V30 14 2 13 15
M  V30 15 1 12 16
M  V30 16 1 16 17
M  V30 17 3 17 18
M  V30 18 2 16 19
M  V30 19 1 19 20
M  V30 20 1 20 21
M  V30 21 1 21 22
M  V30 22 1 22 23
M  V30 23 1 23 24
M  V30 24 1 24 25
M  V30 25 1 19 26
M  V30 26 1 26 27
M  V30 27 1 7 2
M  V30 28 1 15 9
M  V30 29 1 24 20
M  V30 30 1 26 11
M  V30 31 1 1 28
M  V30 32 1 1 29
M  V30 33 1 1 30
M  V30 34 1 3 31
M  V30 35 1 5 32
M  V30 36 1 5 33
M  V30 37 1 5 34
M  V30 38 1 8 35
M  V30 39 1 10 36
M  V30 40 1 14 37
M  V30 41 1 14 38
M  V30 42 1 21 39
M  V30 43 1 21 40
M  V30 44 1 22 41
M  V30 45 1 22 42
M  V30 46 1 23 43
M  V30 47 1 23 44
M  V30 48 1 24 45 CFG=1
M  V30 49 1 25 46
M  V30 50 1 25 47
M  V30 51 1 25 48
M  V30 52 1 27 49
M  V30 53 1 27 50
M  V30 54 1 27 51
M  V30 END BOND
M  V30 END CTAB
M  END
>  <Dataset>  (601) 
ChEMBL_Kinases

>  <Ligand_Instance>  (601) 
nan

>  <PDB_ID>  (601) 
nan

>  <Standardized_SMILES>  (601) 
Cc1cn(C)nc1Nc1cc2c(c(N)n1)c(C#N)c(N1CCC[C@H]1C)n2C

>  <Name>  (601) 
nan

>  <Pocket>  (601) 
nan

>  <ATP_Site>  (601) 
nan

>  <Peripheral>  (601) 
nan

>  <Num_H_Atoms_ProtBoundConf>  (601) 
nan

>  <Num_Resolved_Atoms>  (601) 
nan

>  <Num_Not_Resolved_Atoms>  (601) 
nan

$$$$
CHEMBL590753
     RDKit          3D

  0  0  0  0  0  0  0  0  0  0999 V3000
M  V30 BEGIN CTAB
M  V30 COUNTS 39 42 0 0 0
M  V30 BEGIN ATOM
M  V30 1 N 2.287095 -3.310006 3.093368 0
M  V30 2 C 1.879419 -2.962578 1.775863 0
M  V30 3 N 2.295728 -3.562247 0.620600 0
M  V30 4 C 1.795401 -3.094146 -0.548859 0
M  V30 5 C 0.899986 -2.041173 -0.467700 0
M  V30 6 C 0.444202 -1.395180 0.690394 0
M  V30 7 C -0.482469 -0.328911 0.370003 0
M  V30 8 C -0.085573 0.794716 -0.318701 0
M  V30 9 C 1.189759 1.243976 -0.858375 0
M  V30 10 C 1.754700 0.896102 -2.065207 0
M  V30 11 C 2.968643 1.350008 -2.520434 0
M  V30 12 C 3.640638 2.218037 -1.673076 0
M  V30 13 F 4.856094 2.676033 -2.122097 0
M  V30 14 C 3.141629 2.611252 -0.452855 0
M  V30 15 C 1.899521 2.119782 -0.036761 0
M  V30 16 N -1.188846 1.560730 -0.476044 0
M  V30 17 C -2.192568 0.885685 0.111669 0
M  V30 18 N -1.791013 -0.290771 0.647728 0
M  V30 19 C -2.756818 -1.099870 1.338728 0
M  V30 20 C -2.978311 -0.649934 2.731282 0
M  V30 21 C -1.810648 -0.645344 3.691290 0
M  V30 22 C -2.983307 -1.578635 3.885620 0
M  V30 23 N 1.013792 -1.953920 1.762010 0
M  V30 24 H 2.934724 -3.235207 3.878590 0
M  V30 25 H 1.529626 -3.989728 3.403719 0
M  V30 26 H 2.121652 -3.565851 -1.447070 0
M  V30 27 H 0.575840 -1.765051 -1.485906 0
M  V30 28 H 1.187408 0.228483 -2.664930 0
M  V30 29 H 3.328243 1.022451 -3.482845 0
M  V30 30 H 3.743815 3.289010 0.134376 0
M  V30 31 H 1.557497 2.458824 0.924764 0
M  V30 32 H -3.189171 1.341318 0.095439 0
M  V30 33 H -2.447922 -2.183360 1.298775 0
M  V30 34 H -3.733842 -1.077938 0.759601 0
M  V30 35 H -3.655984 0.258760 2.789224 0
M  V30 36 H -1.753069 0.249621 4.383756 0
M  V30 37 H -0.880391 -1.165595 3.484920 0
M  V30 38 H -3.673013 -1.294068 4.722504 0
M  V30 39 H -2.855504 -2.656078 3.772754 0
M  V30 END ATOM
M  V30 BEGIN BOND
M  V30 1 1 1 2
M  V30 2 2 2 3
M  V30 3 1 3 4
M  V30 4 2 4 5
M  V30 5 1 5 6
M  V30 6 1 6 7
M  V30 7 2 7 8
M  V30 8 1 8 9
M  V30 9 2 9 10
M  V30 10 1 10 11
M  V30 11 2 11 12
M  V30 12 1 12 13
M  V30 13 1 12 14
M  V30 14 2 14 15
M  V30 15 1 8 16
M  V30 16 2 16 17
M  V30 17 1 17 18
M  V30 18 1 18 19
M  V30 19 1 19 20
M  V30 20 1 20 21
M  V30 21 1 21 22
M  V30 22 2 6 23
M  V30 23 1 23 2
M  V30 24 1 18 7
M  V30 25 1 22 20
M  V30 26 1 15 9
M  V30 27 1 1 24
M  V30 28 1 1 25
M  V30 29 1 4 26
M  V30 30 1 5 27
M  V30 31 1 10 28
M  V30 32 1 11 29
M  V30 33 1 14 30
M  V30 34 1 15 31
M  V30 35 1 17 32
M  V30 36 1 19 33
M  V30 37 1 19 34
M  V30 38 1 20 35
M  V30 39 1 21 36
M  V30 40 1 21 37
M  V30 41 1 22 38
M  V30 42 1 22 39
M  V30 END BOND
M  V30 END CTAB
M  END
>  <Dataset>  (602) 
ChEMBL_Kinases

>  <Ligand_Instance>  (602) 
nan

>  <PDB_ID>  (602) 
nan

>  <Standardized_SMILES>  (602) 
Nc1nccc(-c2c(-c3ccc(F)cc3)ncn2CC2CC2)n1

>  <Name>  (602) 
nan

>  <Pocket>  (602) 
nan

>  <ATP_Site>  (602) 
nan

>  <Peripheral>  (602) 
nan

>  <Num_H_Atoms_ProtBoundConf>  (602) 
nan

>  <Num_Resolved_Atoms>  (602) 
nan

>  <Num_Not_Resolved_Atoms>  (602) 
nan

$$$$
CHEMBL379747
     RDKit          3D

  0  0  0  0  0  0  0  0  0  0999 V3000
M  V30 BEGIN CTAB
M  V30 COUNTS 41 44 0 0 0
M  V30 BEGIN ATOM
M  V30 1 F 1.224318 -5.012549 4.621312 0
M  V30 2 C 1.172101 -3.920696 3.807991 0
M  V30 3 C 0.736086 -4.151143 2.503171 0
M  V30 4 C 0.655976 -3.095217 1.620256 0
M  V30 5 C 1.009405 -1.820899 2.040884 0
M  V30 6 C 0.957754 -0.635404 1.173972 0
M  V30 7 N 1.727004 -0.606818 0.045938 0
M  V30 8 C 1.503938 0.583209 -0.577478 0
M  V30 9 C 2.116126 1.053776 -1.833190 0
M  V30 10 N 1.367734 0.700733 -3.018948 0
M  V30 11 C 1.154822 -0.690942 -3.270232 0
M  V30 12 C -0.347669 -0.439713 -3.105810 0
M  V30 13 C -0.019549 1.034646 -3.052972 0
M  V30 14 C 0.594005 1.302648 0.159292 0
M  V30 15 C 0.233583 0.558525 1.267433 0
M  V30 16 C -0.655942 0.724210 2.413106 0
M  V30 17 C -1.685696 -0.224657 2.438368 0
M  V30 18 C -2.629852 -0.232502 3.445932 0
M  V30 19 N -2.556699 0.678515 4.407565 0
M  V30 20 C -1.584973 1.601307 4.415247 0
M  V30 21 C -0.609286 1.658970 3.430677 0
M  V30 22 C 1.444802 -1.578593 3.336550 0
M  V30 23 C 1.526200 -2.640887 4.227628 0
M  V30 24 H 0.445852 -5.102556 2.099748 0
M  V30 25 H 0.335036 -3.128416 0.580005 0
M  V30 26 H 2.384085 -1.334540 -0.321249 0
M  V30 27 H 3.099859 0.530232 -1.910703 0
M  V30 28 H 2.312356 2.123992 -1.821341 0
M  V30 29 H 1.553232 -1.423392 -2.567960 0
M  V30 30 H 1.374888 -0.935383 -4.344268 0
M  V30 31 H -0.952542 -0.686493 -4.003793 0
M  V30 32 H -0.706948 -0.891038 -2.172060 0
M  V30 33 H -0.348243 1.577838 -3.971603 0
M  V30 34 H -0.460675 1.543697 -2.179241 0
M  V30 35 H 0.152739 2.263009 0.031946 0
M  V30 36 H -1.817584 -1.009160 1.683725 0
M  V30 37 H -3.433916 -0.979080 3.459794 0
M  V30 38 H -1.504741 2.351626 5.187765 0
M  V30 39 H 0.204405 2.340912 3.333938 0
M  V30 40 H 1.730094 -0.608926 3.712332 0
M  V30 41 H 1.850747 -2.574893 5.261353 0
M  V30 END ATOM
M  V30 BEGIN BOND
M  V30 1 1 1 2
M  V30 2 2 2 3
M  V30 3 1 3 4
M  V30 4 2 4 5
M  V30 5 1 5 6
M  V30 6 1 6 7
M  V30 7 1 7 8
M  V30 8 1 8 9
M  V30 9 1 9 10
M  V30 10 1 10 11
M  V30 11 1 11 12
M  V30 12 1 12 13
M  V30 13 2 8 14
M  V30 14 1 14 15
M  V30 15 1 15 16
M  V30 16 2 16 17
M  V30 17 1 17 18
M  V30 18 2 18 19
M  V30 19 1 19 20
M  V30 20 2 20 21
M  V30 21 1 5 22
M  V30 22 2 22 23
M  V30 23 1 23 2
M  V30 24 2 15 6
M  V30 25 1 21 16
M  V30 26 1 13 10
M  V30 27 1 3 24
M  V30 28 1 4 25
M  V30 29 1 7 26
M  V30 30 1 9 27
M  V30 31 1 9 28
M  V30 32 1 11 29
M  V30 33 1 11 30
M  V30 34 1 12 31
M  V30 35 1 12 32
M  V30 36 1 13 33
M  V30 37 1 13 34
M  V30 38 1 14 35
M  V30 39 1 17 36
M  V30 40 1 18 37
M  V30 41 1 20 38
M  V30 42 1 21 39
M  V30 43 1 22 40
M  V30 44 1 23 41
M  V30 END BOND
M  V30 END CTAB
M  END
>  <Dataset>  (603) 
ChEMBL_Kinases

>  <Ligand_Instance>  (603) 
nan

>  <PDB_ID>  (603) 
nan

>  <Standardized_SMILES>  (603) 
Fc1ccc(-c2[nH]c(CN3CCC3)cc2-c2ccncc2)cc1

>  <Name>  (603) 
nan

>  <Pocket>  (603) 
nan

>  <ATP_Site>  (603) 
nan

>  <Peripheral>  (603) 
nan

>  <Num_H_Atoms_ProtBoundConf>  (603) 
nan

>  <Num_Resolved_Atoms>  (603) 
nan

>  <Num_Not_Resolved_Atoms>  (603) 
nan

$$$$
CHEMBL507188
     RDKit          3D

  0  0  0  0  0  0  0  0  0  0999 V3000
M  V30 BEGIN CTAB
M  V30 COUNTS 32 35 0 0 0
M  V30 BEGIN ATOM
M  V30 1 N -1.188652 -3.526494 4.044718 0
M  V30 2 C -0.299145 -3.009040 3.063088 0
M  V30 3 N 0.834319 -3.602174 2.896344 0
M  V30 4 C 1.615059 -2.979494 1.888569 0
M  V30 5 O 2.758280 -3.263343 1.447858 0
M  V30 6 C 0.820409 -1.862817 1.397901 0
M  V30 7 C 1.195188 -0.941161 0.529532 0
M  V30 8 C 2.552013 -0.922985 -0.065536 0
M  V30 9 C 2.977883 0.336100 -0.706809 0
M  V30 10 N 2.669350 1.594424 -0.063041 0
M  V30 11 C 1.324313 2.152938 0.109985 0
M  V30 12 O 1.024322 3.339777 0.370107 0
M  V30 13 C 0.086151 1.361883 -0.004299 0
M  V30 14 N -1.190825 1.696110 -0.317908 0
M  V30 15 C -1.928936 0.550542 -0.330993 0
M  V30 16 C -3.228954 0.599400 -0.637857 0
M  V30 17 Br -4.693345 1.716977 -1.100317 0
M  V30 18 C -3.707886 -0.737390 -0.600097 0
M  V30 19 S -2.280603 -1.907246 -0.138686 0
M  V30 20 C -1.184590 -0.527083 -0.036212 0
M  V30 21 C 0.104940 -0.016297 0.177030 0
M  V30 22 N -0.365687 -1.919669 2.162388 0
M  V30 23 H -2.118151 -3.689364 3.603865 0
M  V30 24 H -0.945286 -3.712898 5.049195 0
M  V30 25 H 3.331928 -1.206556 0.686937 0
M  V30 26 H 2.578929 -1.710841 -0.843252 0
M  V30 27 H 2.644237 0.345931 -1.787302 0
M  V30 28 H 4.090951 0.308047 -0.789213 0
M  V30 29 H 3.342221 2.314096 0.372697 0
M  V30 30 H -1.270312 2.726287 -0.464119 0
M  V30 31 H -4.648989 -1.528832 -0.729355 0
M  V30 32 H -1.201248 -1.323127 2.222152 0
M  V30 END ATOM
M  V30 BEGIN BOND
M  V30 1 1 1 2
M  V30 2 2 2 3
M  V30 3 1 3 4
M  V30 4 2 4 5
M  V30 5 1 4 6
M  V30 6 2 6 7
M  V30 7 1 7 8
M  V30 8 1 8 9
M  V30 9 1 9 10
M  V30 10 1 10 11
M  V30 11 2 11 12
M  V30 12 1 11 13
M  V30 13 1 13 14
M  V30 14 1 14 15
M  V30 15 1 15 16
M  V30 16 1 16 17
M  V30 17 2 16 18
M  V30 18 1 18 19
M  V30 19 1 19 20
M  V30 20 1 20 21
M  V30 21 1 6 22
M  V30 22 1 22 2
M  V30 23 1 21 7
M  V30 24 2 21 13
M  V30 25 2 20 15
M  V30 26 1 1 23
M  V30 27 1 1 24
M  V30 28 1 8 25
M  V30 29 1 8 26
M  V30 30 1 9 27
M  V30 31 1 9 28
M  V30 32 1 10 29
M  V30 33 1 14 30
M  V30 34 1 18 31
M  V30 35 1 22 32
M  V30 END BOND
M  V30 END CTAB
M  END
>  <Dataset>  (604) 
ChEMBL_Kinases

>  <Ligand_Instance>  (604) 
nan

>  <PDB_ID>  (604) 
nan

>  <Standardized_SMILES>  (604) 
NC1=NC(=O)/C(=C2\CCNC(=O)c3[nH]c4c(Br)csc4c32)N1

>  <Name>  (604) 
nan

>  <Pocket>  (604) 
nan

>  <ATP_Site>  (604) 
nan

>  <Peripheral>  (604) 
nan

>  <Num_H_Atoms_ProtBoundConf>  (604) 
nan

>  <Num_Resolved_Atoms>  (604) 
nan

>  <Num_Not_Resolved_Atoms>  (604) 
nan

$$$$
CHEMBL3702256
     RDKit          3D

  0  0  0  0  0  0  0  0  0  0999 V3000
M  V30 BEGIN CTAB
M  V30 COUNTS 48 50 0 0 0
M  V30 BEGIN ATOM
M  V30 1 C 0.873927 -1.159039 1.304027 0
M  V30 2 C 1.519577 0.100800 1.745166 0
M  V30 3 C 2.864959 0.089217 1.730177 0
M  V30 4 C 3.997013 -0.737864 1.411071 0
M  V30 5 O 5.169418 -0.244852 1.585126 0
M  V30 6 N 4.113634 -2.056080 0.916569 0
M  V30 7 C 5.190427 -2.933913 0.573728 0
M  V30 8 C 6.080207 -2.451198 -0.535109 0
M  V30 9 O 6.666373 -1.259594 -0.194932 0
M  V30 10 S 3.319396 1.715419 2.330328 0
M  V30 11 C 1.662551 2.334758 2.572181 0
M  V30 12 N 1.125049 3.495770 3.005899 0
M  V30 13 C -0.203006 3.673565 3.080012 0
M  V30 14 N -0.950393 2.635599 2.699619 0
M  V30 15 C -0.428907 1.492315 2.272491 0
M  V30 16 N -1.525601 0.652379 1.957136 0
M  V30 17 C -2.158690 0.736922 0.656462 0
M  V30 18 C -1.572890 1.693409 -0.178740 0
M  V30 19 C -2.087859 1.874749 -1.455205 0
M  V30 20 C -3.142684 1.084639 -1.784851 0
M  V30 21 N -3.697629 0.175353 -0.987261 0
M  V30 22 C -3.248895 -0.048099 0.253593 0
M  V30 23 O -3.587625 -0.874867 1.278358 0
M  V30 24 C -4.542781 -1.835800 1.453325 0
M  V30 25 C -4.506669 -3.032128 0.551182 0
M  V30 26 C -4.658377 -2.750568 -0.909585 0
M  V30 27 F -3.328553 -3.707571 0.834909 0
M  V30 28 C 0.917269 1.246070 2.173766 0
M  V30 29 H -0.223016 -1.189224 1.431149 0
M  V30 30 H 1.231424 -2.013409 1.940644 0
M  V30 31 H 1.149084 -1.378475 0.259890 0
M  V30 32 H 3.153825 -2.487728 0.762363 0
M  V30 33 H 5.803878 -3.177989 1.498824 0
M  V30 34 H 4.770465 -3.931790 0.263654 0
M  V30 35 H 5.432731 -2.269918 -1.444571 0
M  V30 36 H 6.803891 -3.222079 -0.864934 0
M  V30 37 H 6.666867 -0.613738 -0.971030 0
M  V30 38 H -0.421609 4.663440 3.448290 0
M  V30 39 H -1.865008 -0.023655 2.689011 0
M  V30 40 H -0.734972 2.320725 0.084355 0
M  V30 41 H -1.699293 2.582387 -2.154143 0
M  V30 42 H -3.631716 1.131515 -2.749829 0
M  V30 43 H -4.412688 -2.233892 2.512725 0
M  V30 44 H -5.598718 -1.408116 1.482456 0
M  V30 45 H -5.396069 -3.658369 0.841974 0
M  V30 46 H -5.044996 -3.656337 -1.462543 0
M  V30 47 H -5.420858 -1.962410 -1.041529 0
M  V30 48 H -3.678436 -2.547544 -1.371474 0
M  V30 END ATOM
M  V30 BEGIN BOND
M  V30 1 1 1 2
M  V30 2 2 2 3
M  V30 3 1 3 4
M  V30 4 2 4 5
M  V30 5 1 4 6
M  V30 6 1 6 7
M  V30 7 1 7 8
M  V30 8 1 8 9
M  V30 9 1 3 10
M  V30 10 1 10 11
M  V30 11 2 11 12
M  V30 12 1 12 13
M  V30 13 2 13 14
M  V30 14 1 14 15
M  V30 15 1 15 16
M  V30 16 1 16 17
M  V30 17 2 17 18
M  V30 18 1 18 19
M  V30 19 2 19 20
M  V30 20 1 20 21
M  V30 21 2 21 22
M  V30 22 1 22 23
M  V30 23 1 23 24
M  V30 24 1 24 25
M  V30 25 1 25 26
M  V30 26 1 25 27
M  V30 27 2 15 28
M  V30 28 1 28 2
M  V30 29 1 28 11
M  V30 30 1 22 17
M  V30 31 1 1 29
M  V30 32 1 1 30
M  V30 33 1 1 31
M  V30 34 1 6 32
M  V30 35 1 7 33
M  V30 36 1 7 34
M  V30 37 1 8 35
M  V30 38 1 8 36
M  V30 39 1 9 37
M  V30 40 1 13 38
M  V30 41 1 16 39
M  V30 42 1 18 40
M  V30 43 1 19 41
M  V30 44 1 20 42
M  V30 45 1 24 43
M  V30 46 1 24 44
M  V30 47 1 25 45
M  V30 48 1 26 46
M  V30 49 1 26 47
M  V30 50 1 26 48
M  V30 END BOND
M  V30 END CTAB
M  END
>  <Dataset>  (605) 
ChEMBL_Kinases

>  <Ligand_Instance>  (605) 
nan

>  <PDB_ID>  (605) 
nan

>  <Standardized_SMILES>  (605) 
Cc1c(C(=O)NCCO)sc2ncnc(Nc3cccnc3OCC(C)F)c12

>  <Name>  (605) 
nan

>  <Pocket>  (605) 
nan

>  <ATP_Site>  (605) 
nan

>  <Peripheral>  (605) 
nan

>  <Num_H_Atoms_ProtBoundConf>  (605) 
nan

>  <Num_Resolved_Atoms>  (605) 
nan

>  <Num_Not_Resolved_Atoms>  (605) 
nan

$$$$
CHEMBL3702257
     RDKit          3D

  0  0  0  0  0  0  0  0  0  0999 V3000
M  V30 BEGIN CTAB
M  V30 COUNTS 58 60 0 0 0
M  V30 BEGIN ATOM
M  V30 1 C -0.864163 -1.334813 2.080936 0
M  V30 2 C -1.242455 0.049992 1.709809 0
M  V30 3 C -0.271788 0.950472 1.831505 0
M  V30 4 C 1.106403 1.153826 2.193957 0
M  V30 5 O 1.596094 2.339247 2.118838 0
M  V30 6 N 2.132658 0.318279 2.645235 0
M  V30 7 C 3.449551 0.048998 3.053151 0
M  V30 8 C 4.500150 0.125955 2.017216 0
M  V30 9 C 4.764298 1.332387 1.227899 0
M  V30 10 N 3.746493 1.785646 0.331328 0
M  V30 11 C 3.528439 0.903858 -0.783420 0
M  V30 12 C 4.058401 3.118793 -0.142514 0
M  V30 13 S -1.039655 2.551268 1.318320 0
M  V30 14 C -2.670585 1.805925 0.975468 0
M  V30 15 N -3.845496 2.323286 0.543867 0
M  V30 16 C -4.924249 1.569118 0.369588 0
M  V30 17 N -4.749915 0.293779 0.649291 0
M  V30 18 C -3.614987 -0.236476 1.071082 0
M  V30 19 N -3.819170 -1.627246 1.258413 0
M  V30 20 C -3.946725 -2.766599 0.422587 0
M  V30 21 C -5.179535 -3.377678 0.680739 0
M  V30 22 C -5.572248 -4.528060 -0.013866 0
M  V30 23 C -4.691581 -5.027308 -0.958068 0
M  V30 24 N -3.517965 -4.431359 -1.192716 0
M  V30 25 C -3.149780 -3.343401 -0.534785 0
M  V30 26 O -1.943514 -2.642734 -0.707738 0
M  V30 27 C -0.987216 -3.081780 -1.655928 0
M  V30 28 C 0.230691 -2.190109 -1.690392 0
M  V30 29 C 1.186393 -2.741074 -2.734637 0
M  V30 30 F -0.063822 -0.890728 -1.973909 0
M  V30 31 C -2.461011 0.468095 1.277264 0
M  V30 32 H -1.631260 -2.091041 1.943039 0
M  V30 33 H -0.015745 -1.658107 1.427585 0
M  V30 34 H -0.535001 -1.375837 3.145907 0
M  V30 35 H 1.615066 -0.616643 2.695605 0
M  V30 36 H 3.506030 -0.963039 3.577708 0
M  V30 37 H 3.742481 0.722168 3.946311 0
M  V30 38 H 4.342434 -0.712528 1.231575 0
M  V30 39 H 5.482063 -0.267921 2.482595 0
M  V30 40 H 5.657770 1.090803 0.561741 0
M  V30 41 H 5.150630 2.193037 1.839070 0
M  V30 42 H 3.208649 -0.100041 -0.421877 0
M  V30 43 H 4.408509 0.808421 -1.448091 0
M  V30 44 H 2.688299 1.285066 -1.379206 0
M  V30 45 H 3.175358 3.759462 0.116716 0
M  V30 46 H 4.199697 3.116250 -1.258339 0
M  V30 47 H 4.969515 3.491833 0.333101 0
M  V30 48 H -5.740296 2.178328 0.026009 0
M  V30 49 H -3.892465 -1.701287 2.317373 0
M  V30 50 H -5.946281 -3.079957 1.392141 0
M  V30 51 H -6.510431 -5.041903 0.141136 0
M  V30 52 H -4.878713 -5.906825 -1.557374 0
M  V30 53 H -1.428509 -3.182837 -2.661885 0
M  V30 54 H -0.616172 -4.078705 -1.279250 0
M  V30 55 H 0.770738 -2.249122 -0.729838 0
M  V30 56 H 0.986027 -2.299333 -3.744772 0
M  V30 57 H 1.084527 -3.852883 -2.745262 0
M  V30 58 H 2.207977 -2.424769 -2.452976 0
M  V30 END ATOM
M  V30 BEGIN BOND
M  V30 1 1 1 2
M  V30 2 2 2 3
M  V30 3 1 3 4
M  V30 4 2 4 5
M  V30 5 1 4 6
M  V30 6 1 6 7
M  V30 7 1 7 8
M  V30 8 1 8 9
M  V30 9 1 9 10
M  V30 10 1 10 11
M  V30 11 1 10 12
M  V30 12 1 3 13
M  V30 13 1 13 14
M  V30 14 2 14 15
M  V30 15 1 15 16
M  V30 16 2 16 17
M  V30 17 1 17 18
M  V30 18 1 18 19
M  V30 19 1 19 20
M  V30 20 2 20 21
M  V30 21 1 21 22
M  V30 22 2 22 23
M  V30 23 1 23 24
M  V30 24 2 24 25
M  V30 25 1 25 26
M  V30 26 1 26 27
M  V30 27 1 27 28
M  V30 28 1 28 29
M  V30 29 1 28 30
M  V30 30 2 18 31
M  V30 31 1 31 2
M  V30 32 1 31 14
M  V30 33 1 25 20
M  V30 34 1 1 32
M  V30 35 1 1 33
M  V30 36 1 1 34
M  V30 37 1 6 35
M  V30 38 1 7 36
M  V30 39 1 7 37
M  V30 40 1 8 38
M  V30 41 1 8 39
M  V30 42 1 9 40
M  V30 43 1 9 41
M  V30 44 1 11 42
M  V30 45 1 11 43
M  V30 46 1 11 44
M  V30 47 1 12 45
M  V30 48 1 12 46
M  V30 49 1 12 47
M  V30 50 1 16 48
M  V30 51 1 19 49
M  V30 52 1 21 50
M  V30 53 1 22 51
M  V30 54 1 23 52
M  V30 55 1 27 53
M  V30 56 1 27 54
M  V30 57 1 28 55
M  V30 58 1 29 56
M  V30 59 1 29 57
M  V30 60 1 29 58
M  V30 END BOND
M  V30 END CTAB
M  END
>  <Dataset>  (606) 
ChEMBL_Kinases

>  <Ligand_Instance>  (606) 
nan

>  <PDB_ID>  (606) 
nan

>  <Standardized_SMILES>  (606) 
Cc1c(C(=O)NCCCN(C)C)sc2ncnc(Nc3cccnc3OCC(C)F)c12

>  <Name>  (606) 
nan

>  <Pocket>  (606) 
nan

>  <ATP_Site>  (606) 
nan

>  <Peripheral>  (606) 
nan

>  <Num_H_Atoms_ProtBoundConf>  (606) 
nan

>  <Num_Resolved_Atoms>  (606) 
nan

>  <Num_Not_Resolved_Atoms>  (606) 
nan

$$$$
CHEMBL3797440
     RDKit          3D

  0  0  0  0  0  0  0  0  0  0999 V3000
M  V30 BEGIN CTAB
M  V30 COUNTS 55 59 0 0 0
M  V30 BEGIN ATOM
M  V30 1 C 0.256303 -3.260534 6.351359 0
M  V30 2 N 0.161670 -3.291893 4.914629 0
M  V30 3 C 0.668803 -2.368853 3.957943 0
M  V30 4 C 1.094282 -1.074731 4.182470 0
M  V30 5 C 1.578898 -0.245892 3.162097 0
M  V30 6 C 1.637298 -0.746310 1.851768 0
M  V30 7 C 2.167286 0.241323 0.944455 0
M  V30 8 C 3.352455 0.907589 1.277669 0
M  V30 9 N 3.934158 1.841135 0.501959 0
M  V30 10 C 3.355375 2.178692 -0.687348 0
M  V30 11 N 4.025319 3.172050 -1.454277 0
M  V30 12 C 2.185562 1.571440 -1.094053 0
M  V30 13 F 1.637430 1.918782 -2.263220 0
M  V30 14 C 1.629734 0.621613 -0.263155 0
M  V30 15 N 0.424325 0.038717 -0.736871 0
M  V30 16 C -0.768258 0.735742 -0.310205 0
M  V30 17 C -1.629510 1.219515 -1.447834 0
M  V30 18 C -2.036176 0.113136 -2.365766 0
M  V30 19 C -3.085157 -0.796068 -1.767741 0
M  V30 20 C -4.351563 0.009433 -1.973313 0
M  V30 21 N -4.104146 0.568575 -3.295174 0
M  V30 22 C -2.689582 0.628710 -3.570949 0
M  V30 23 O -2.372836 1.078416 -4.702583 0
M  V30 24 C -0.796547 -0.653066 -2.770348 0
M  V30 25 C 0.004376 -1.092934 -1.568945 0
M  V30 26 C 1.202070 -2.040302 1.683126 0
M  V30 27 C 0.725905 -2.851306 2.691550 0
M  V30 28 C 0.265918 -4.248183 2.467143 0
M  V30 29 S -0.632181 -4.524419 3.976911 0
M  V30 30 O -0.438194 -5.874215 4.540866 0
M  V30 31 O -2.070606 -4.121789 3.852005 0
M  V30 32 H 0.268441 -4.272154 6.795361 0
M  V30 33 H -0.647202 -2.692178 6.712396 0
M  V30 34 H 1.125073 -2.636978 6.643529 0
M  V30 35 H 1.055616 -0.667113 5.203908 0
M  V30 36 H 1.885896 0.764933 3.476462 0
M  V30 37 H 3.854022 0.676904 2.212559 0
M  V30 38 H 4.696950 3.096418 -2.260681 0
M  V30 39 H 3.742381 4.126528 -1.082232 0
M  V30 40 H -0.610494 1.559578 0.383617 0
M  V30 41 H -1.385510 -0.014304 0.264255 0
M  V30 42 H -1.117236 1.985968 -2.059828 0
M  V30 43 H -2.500598 1.721419 -0.978499 0
M  V30 44 H -2.900230 -1.058052 -0.714812 0
M  V30 45 H -3.145835 -1.687342 -2.432305 0
M  V30 46 H -5.259362 -0.626366 -1.938415 0
M  V30 47 H -4.397018 0.851380 -1.262830 0
M  V30 48 H -4.949386 0.847405 -3.861119 0
M  V30 49 H -1.109289 -1.573917 -3.294879 0
M  V30 50 H -0.211108 -0.045574 -3.470584 0
M  V30 51 H 0.878542 -1.646922 -1.962924 0
M  V30 52 H -0.657595 -1.729532 -0.948350 0
M  V30 53 H 1.289302 -2.342427 0.650509 0
M  V30 54 H 1.116447 -4.951832 2.366004 0
M  V30 55 H -0.409138 -4.281152 1.581939 0
M  V30 END ATOM
M  V30 BEGIN BOND
M  V30 1 1 1 2
M  V30 2 1 2 3
M  V30 3 2 3 4
M  V30 4 1 4 5
M  V30 5 2 5 6
M  V30 6 1 6 7
M  V30 7 2 7 8
M  V30 8 1 8 9
M  V30 9 2 9 10
M  V30 10 1 10 11
M  V30 11 1 10 12
M  V30 12 1 12 13
M  V30 13 2 12 14
M  V30 14 1 14 15
M  V30 15 1 15 16
M  V30 16 1 16 17
M  V30 17 1 17 18
M  V30 18 1 18 19
M  V30 19 1 19 20
M  V30 20 1 20 21
M  V30 21 1 21 22
M  V30 22 2 22 23
M  V30 23 1 18 24
M  V30 24 1 24 25
M  V30 25 1 6 26
M  V30 26 2 26 27
M  V30 27 1 27 28
M  V30 28 1 28 29
M  V30 29 2 29 30
M  V30 30 2 29 31
M  V30 31 1 29 2
M  V30 32 1 27 3
M  V30 33 1 14 7
M  V30 34 1 25 15
M  V30 35 1 22 18
M  V30 36 1 1 32
M  V30 37 1 1 33
M  V30 38 1 1 34
M  V30 39 1 4 35
M  V30 40 1 5 36
M  V30 41 1 8 37
M  V30 42 1 11 38
M  V30 43 1 11 39
M  V30 44 1 16 40
M  V30 45 1 16 41
M  V30 46 1 17 42
M  V30 47 1 17 43
M  V30 48 1 19 44
M  V30 49 1 19 45
M  V30 50 1 20 46
M  V30 51 1 20 47
M  V30 52 1 21 48
M  V30 53 1 24 49
M  V30 54 1 24 50
M  V30 55 1 25 51
M  V30 56 1 25 52
M  V30 57 1 26 53
M  V30 58 1 28 54
M  V30 59 1 28 55
M  V30 END BOND
M  V30 END CTAB
M  END
>  <Dataset>  (607) 
ChEMBL_Kinases

>  <Ligand_Instance>  (607) 
nan

>  <PDB_ID>  (607) 
nan

>  <Standardized_SMILES>  (607) 
CN1c2ccc(-c3cnc(N)c(F)c3N3CCC4(CCNC4=O)CC3)cc2CS1(=O)=O

>  <Name>  (607) 
nan

>  <Pocket>  (607) 
nan

>  <ATP_Site>  (607) 
nan

>  <Peripheral>  (607) 
nan

>  <Num_H_Atoms_ProtBoundConf>  (607) 
nan

>  <Num_Resolved_Atoms>  (607) 
nan

>  <Num_Not_Resolved_Atoms>  (607) 
nan

$$$$
CHEMBL3797431
     RDKit          3D

  0  0  0  0  0  0  0  0  0  0999 V3000
M  V30 BEGIN CTAB
M  V30 COUNTS 40 42 0 0 0
M  V30 BEGIN ATOM
M  V30 1 C 0.169296 -2.774276 4.917554 0
M  V30 2 C 0.402622 -3.356269 3.562785 0
M  V30 3 C 1.821271 -3.387694 3.112813 0
M  V30 4 S 2.615878 -1.770569 2.978504 0
M  V30 5 C 1.876170 -0.882648 1.659754 0
M  V30 6 S 2.539818 -1.101009 0.008475 0
M  V30 7 C 1.464056 -0.017898 -0.824358 0
M  V30 8 C 1.491804 0.264259 -2.272902 0
M  V30 9 C 2.408681 -0.352588 -3.074685 0
M  V30 10 C 2.153351 0.140784 -4.349082 0
M  V30 11 N 1.129682 1.010010 -4.294617 0
M  V30 12 N 0.758700 1.058246 -3.032180 0
M  V30 13 C 0.619580 0.479824 0.218755 0
M  V30 14 C 0.886097 -0.000403 1.450052 0
M  V30 15 C 0.036171 0.536787 2.509012 0
M  V30 16 O 0.160559 0.188388 3.711206 0
M  V30 17 N -1.012575 1.502028 2.302110 0
M  V30 18 C -0.835516 2.300998 1.105334 0
M  V30 19 C -0.462832 1.445864 -0.085351 0 CFG=2
M  V30 20 C -1.666979 0.679434 -0.590231 0
M  V30 21 C -2.212565 -0.316636 0.385658 0
M  V30 22 H 0.056371 -3.568697 5.702077 0
M  V30 23 H -0.847993 -2.285649 4.898057 0
M  V30 24 H 0.887201 -1.993374 5.215225 0
M  V30 25 H 0.067291 -4.429576 3.620893 0
M  V30 26 H -0.285789 -2.905076 2.804897 0
M  V30 27 H 1.807101 -3.860013 2.085280 0
M  V30 28 H 2.424126 -4.097587 3.720721 0
M  V30 29 H 3.205285 -1.081852 -2.871577 0
M  V30 30 H 2.624565 -0.058934 -5.306204 0
M  V30 31 H 0.686160 1.554236 -5.051570 0
M  V30 32 H -1.817446 1.596381 2.972179 0
M  V30 33 H -0.109748 3.117457 1.278643 0
M  V30 34 H -1.808629 2.777054 0.865937 0
M  V30 35 H -0.193112 2.165321 -0.884099 0
M  V30 36 H -2.461379 1.368689 -0.953339 0
M  V30 37 H -1.336780 0.097405 -1.474614 0
M  V30 38 H -2.976167 -0.911264 -0.198399 0
M  V30 39 H -1.411546 -1.074877 0.584980 0
M  V30 40 H -2.649302 0.095278 1.298136 0
M  V30 END ATOM
M  V30 BEGIN BOND
M  V30 1 1 1 2
M  V30 2 1 2 3
M  V30 3 1 3 4
M  V30 4 1 4 5
M  V30 5 1 5 6
M  V30 6 1 6 7
M  V30 7 1 7 8
M  V30 8 1 8 9
M  V30 9 2 9 10
M  V30 10 1 10 11
M  V30 11 1 11 12
M  V30 12 2 7 13
M  V30 13 1 13 14
M  V30 14 1 14 15
M  V30 15 2 15 16
M  V30 16 1 15 17
M  V30 17 1 17 18
M  V30 18 1 18 19
M  V30 19 1 19 20
M  V30 20 1 20 21
M  V30 21 2 14 5
M  V30 22 2 12 8
M  V30 23 1 19 13
M  V30 24 1 1 22
M  V30 25 1 1 23
M  V30 26 1 1 24
M  V30 27 1 2 25
M  V30 28 1 2 26
M  V30 29 1 3 27
M  V30 30 1 3 28
M  V30 31 1 9 29
M  V30 32 1 10 30
M  V30 33 1 11 31
M  V30 34 1 17 32
M  V30 35 1 18 33
M  V30 36 1 18 34
M  V30 37 1 19 35 CFG=3
M  V30 38 1 20 36
M  V30 39 1 20 37
M  V30 40 1 21 38
M  V30 41 1 21 39
M  V30 42 1 21 40
M  V30 END BOND
M  V30 END CTAB
M  END
>  <Dataset>  (608) 
ChEMBL_Kinases

>  <Ligand_Instance>  (608) 
nan

>  <PDB_ID>  (608) 
nan

>  <Standardized_SMILES>  (608) 
CCCSc1sc(-c2cc[nH]n2)c2c1C(=O)NC[C@@H]2CC

>  <Name>  (608) 
nan

>  <Pocket>  (608) 
nan

>  <ATP_Site>  (608) 
nan

>  <Peripheral>  (608) 
nan

>  <Num_H_Atoms_ProtBoundConf>  (608) 
nan

>  <Num_Resolved_Atoms>  (608) 
nan

>  <Num_Not_Resolved_Atoms>  (608) 
nan

$$$$
CHEMBL3797394
     RDKit          3D

  0  0  0  0  0  0  0  0  0  0999 V3000
M  V30 BEGIN CTAB
M  V30 COUNTS 38 41 0 0 0
M  V30 BEGIN ATOM
M  V30 1 C 0.598317 -2.654527 5.369844 0
M  V30 2 S 2.018463 -1.842397 4.633508 0
M  V30 3 C 1.788424 -1.579164 2.838808 0
M  V30 4 S 2.232663 -2.691793 1.530972 0
M  V30 5 C 1.689980 -1.696138 0.268041 0
M  V30 6 C 1.793695 -2.101561 -1.180564 0
M  V30 7 C 2.325017 -3.289910 -1.608029 0
M  V30 8 C 2.252426 -3.308795 -2.978430 0
M  V30 9 N 1.692098 -2.157120 -3.328771 0
M  V30 10 N 1.417953 -1.437677 -2.270060 0
M  V30 11 C 1.190385 -0.559216 0.835721 0
M  V30 12 C 1.263846 -0.545803 2.179509 0
M  V30 13 C 0.713244 0.667588 2.835914 0
M  V30 14 O 0.712879 0.832629 4.100982 0
M  V30 15 N 0.160042 1.698784 2.022022 0
M  V30 16 C -0.447166 1.239798 0.780896 0
M  V30 17 C -1.593300 0.349468 1.124788 0
M  V30 18 C -2.644209 0.544587 0.059871 0
M  V30 19 C -2.314637 1.843412 -0.627861 0
M  V30 20 C -1.056057 2.390052 0.010106 0
M  V30 21 C 0.641207 0.551153 0.014526 0
M  V30 22 H 0.865724 -3.676064 5.763633 0
M  V30 23 H -0.151980 -2.831817 4.569659 0
M  V30 24 H 0.072000 -2.051953 6.136633 0
M  V30 25 H 2.735065 -4.090863 -1.020710 0
M  V30 26 H 2.595918 -4.122060 -3.607957 0
M  V30 27 H 1.494591 -1.859658 -4.311151 0
M  V30 28 H 0.187617 2.706460 2.296719 0
M  V30 29 H -1.370942 -0.707513 1.250983 0
M  V30 30 H -2.072285 0.679665 2.089165 0
M  V30 31 H -2.593225 -0.326280 -0.642914 0
M  V30 32 H -3.664013 0.565045 0.487600 0
M  V30 33 H -2.172668 1.612064 -1.715606 0
M  V30 34 H -3.122324 2.567129 -0.488160 0
M  V30 35 H -1.224745 3.292680 0.616287 0
M  V30 36 H -0.356230 2.640437 -0.805840 0
M  V30 37 H 1.485569 1.280703 -0.150743 0
M  V30 38 H 0.331375 0.247522 -0.997214 0
M  V30 END ATOM
M  V30 BEGIN BOND
M  V30 1 1 1 2
M  V30 2 1 2 3
M  V30 3 1 3 4
M  V30 4 1 4 5
M  V30 5 1 5 6
M  V30 6 1 6 7
M  V30 7 2 7 8
M  V30 8 1 8 9
M  V30 9 1 9 10
M  V30 10 2 5 11
M  V30 11 1 11 12
M  V30 12 1 12 13
M  V30 13 2 13 14
M  V30 14 1 13 15
M  V30 15 1 15 16
M  V30 16 1 16 17
M  V30 17 1 17 18
M  V30 18 1 18 19
M  V30 19 1 19 20
M  V30 20 1 16 21
M  V30 21 2 12 3
M  V30 22 1 20 16
M  V30 23 2 10 6
M  V30 24 1 21 11
M  V30 25 1 1 22
M  V30 26 1 1 23
M  V30 27 1 1 24
M  V30 28 1 7 25
M  V30 29 1 8 26
M  V30 30 1 9 27
M  V30 31 1 15 28
M  V30 32 1 17 29
M  V30 33 1 17 30
M  V30 34 1 18 31
M  V30 35 1 18 32
M  V30 36 1 19 33
M  V30 37 1 19 34
M  V30 38 1 20 35
M  V30 39 1 20 36
M  V30 40 1 21 37
M  V30 41 1 21 38
M  V30 END BOND
M  V30 END CTAB
M  END
>  <Dataset>  (609) 
ChEMBL_Kinases

>  <Ligand_Instance>  (609) 
nan

>  <PDB_ID>  (609) 
nan

>  <Standardized_SMILES>  (609) 
CSc1sc(-c2cc[nH]n2)c2c1C(=O)NC1(CCCC1)C2

>  <Name>  (609) 
nan

>  <Pocket>  (609) 
nan

>  <ATP_Site>  (609) 
nan

>  <Peripheral>  (609) 
nan

>  <Num_H_Atoms_ProtBoundConf>  (609) 
nan

>  <Num_Resolved_Atoms>  (609) 
nan

>  <Num_Not_Resolved_Atoms>  (609) 
nan

$$$$
CHEMBL3797371
     RDKit          3D

  0  0  0  0  0  0  0  0  0  0999 V3000
M  V30 BEGIN CTAB
M  V30 COUNTS 50 53 0 0 0
M  V30 BEGIN ATOM
M  V30 1 C -1.294144 -4.066090 2.711154 0
M  V30 2 C -0.595558 -4.284800 1.416103 0
M  V30 3 C 0.533005 -3.496729 1.236246 0
M  V30 4 C 1.247397 -3.630224 0.062942 0
M  V30 5 C 2.453720 -2.925239 -0.359467 0
M  V30 6 N 3.542775 -3.480202 -0.923599 0
M  V30 7 N 4.424123 -2.536678 -1.166476 0
M  V30 8 C 3.927902 -1.345877 -0.765532 0
M  V30 9 C 4.439682 -0.048404 -0.791558 0
M  V30 10 C 3.672685 1.010323 -0.291780 0
M  V30 11 C 2.420047 0.802652 0.227297 0
M  V30 12 C 1.661076 1.942794 0.736055 0
M  V30 13 O 2.243873 3.068695 0.652420 0
M  V30 14 N 0.366224 1.810362 1.285319 0
M  V30 15 C -0.383182 2.937301 1.787869 0
M  V30 16 C -0.467569 2.697084 3.301897 0
M  V30 17 C -1.754311 3.047566 1.290828 0
M  V30 18 C -2.496015 1.863248 1.279667 0
M  V30 19 C -3.801155 1.942452 0.811897 0
M  V30 20 C -4.413401 3.089233 0.362592 0
M  V30 21 C -3.663489 4.247600 0.381967 0
M  V30 22 Cl -4.336338 5.754816 -0.162964 0
M  V30 23 C -2.359347 4.203717 0.842074 0
M  V30 24 C 1.953066 -0.490395 0.234297 0
M  V30 25 C 2.671218 -1.566885 -0.246724 0
M  V30 26 C 0.804469 -4.550322 -0.889819 0
M  V30 27 C -0.320399 -5.321904 -0.687247 0
M  V30 28 C -0.796993 -6.307521 -1.705021 0
M  V30 29 N -0.974499 -5.148283 0.473139 0
M  V30 30 H -0.582356 -3.798733 3.515342 0
M  V30 31 H -2.083317 -3.289000 2.581824 0
M  V30 32 H -1.812833 -4.989386 3.025268 0
M  V30 33 H 0.942553 -2.771457 1.906972 0
M  V30 34 H 5.354150 -2.728023 -1.604881 0
M  V30 35 H 5.434423 0.109320 -1.204867 0
M  V30 36 H 4.158094 1.980396 -0.356439 0
M  V30 37 H -0.098346 0.877446 1.346545 0
M  V30 38 H 0.174528 3.890032 1.688567 0
M  V30 39 H -1.193415 3.360118 3.782418 0
M  V30 40 H 0.577757 2.902988 3.676250 0
M  V30 41 H -0.665392 1.645588 3.552256 0
M  V30 42 H -2.121657 0.904351 1.607782 0
M  V30 43 H -4.383243 1.011417 0.803467 0
M  V30 44 H -5.437430 3.062460 0.013998 0
M  V30 45 H -1.705029 5.073534 0.888161 0
M  V30 46 H 0.981775 -0.697972 0.629641 0
M  V30 47 H 1.303376 -4.730622 -1.855087 0
M  V30 48 H 0.119398 -6.747060 -2.180367 0
M  V30 49 H -1.405629 -5.796255 -2.491442 0
M  V30 50 H -1.360746 -7.128870 -1.259720 0
M  V30 END ATOM
M  V30 BEGIN BOND
M  V30 1 1 1 2
M  V30 2 2 2 3
M  V30 3 1 3 4
M  V30 4 1 4 5
M  V30 5 2 5 6
M  V30 6 1 6 7
M  V30 7 1 7 8
M  V30 8 2 8 9
M  V30 9 1 9 10
M  V30 10 2 10 11
M  V30 11 1 11 12
M  V30 12 2 12 13
M  V30 13 1 12 14
M  V30 14 1 14 15
M  V30 15 1 15 16
M  V30 16 1 15 17
M  V30 17 2 17 18
M  V30 18 1 18 19
M  V30 19 2 19 20
M  V30 20 1 20 21
M  V30 21 1 21 22
M  V30 22 2 21 23
M  V30 23 1 11 24
M  V30 24 2 24 25
M  V30 25 2 4 26
M  V30 26 1 26 27
M  V30 27 1 27 28
M  V30 28 2 27 29
M  V30 29 1 29 2
M  V30 30 1 25 5
M  V30 31 1 25 8
M  V30 32 1 23 17
M  V30 33 1 1 30
M  V30 34 1 1 31
M  V30 35 1 1 32
M  V30 36 1 3 33
M  V30 37 1 7 34
M  V30 38 1 9 35
M  V30 39 1 10 36
M  V30 40 1 14 37
M  V30 41 1 15 38
M  V30 42 1 16 39
M  V30 43 1 16 40
M  V30 44 1 16 41
M  V30 45 1 18 42
M  V30 46 1 19 43
M  V30 47 1 20 44
M  V30 48 1 23 45
M  V30 49 1 24 46
M  V30 50 1 26 47
M  V30 51 1 28 48
M  V30 52 1 28 49
M  V30 53 1 28 50
M  V30 END BOND
M  V30 END CTAB
M  END
>  <Dataset>  (610) 
ChEMBL_Kinases

>  <Ligand_Instance>  (610) 
nan

>  <PDB_ID>  (610) 
nan

>  <Standardized_SMILES>  (610) 
Cc1cc(-c2n[nH]c3ccc(C(=O)NC(C)c4cccc(Cl)c4)cc23)cc(C)n1

>  <Name>  (610) 
nan

>  <Pocket>  (610) 
nan

>  <ATP_Site>  (610) 
nan

>  <Peripheral>  (610) 
nan

>  <Num_H_Atoms_ProtBoundConf>  (610) 
nan

>  <Num_Resolved_Atoms>  (610) 
nan

>  <Num_Not_Resolved_Atoms>  (610) 
nan

$$$$
CHEMBL3797366
     RDKit          3D

  0  0  0  0  0  0  0  0  0  0999 V3000
M  V30 BEGIN CTAB
M  V30 COUNTS 31 33 0 0 0
M  V30 BEGIN ATOM
M  V30 1 C -2.310531 -2.683126 4.213895 0
M  V30 2 S -1.295232 -1.210207 4.248149 0
M  V30 3 C -0.258392 -1.050554 2.776342 0
M  V30 4 S 1.492629 -1.729003 2.527310 0
M  V30 5 C 1.649278 -1.147701 0.990174 0
M  V30 6 C 2.901642 -1.361119 0.170418 0
M  V30 7 C 3.997213 -2.050869 0.640345 0
M  V30 8 C 4.947831 -2.040034 -0.390006 0
M  V30 9 N 4.383085 -1.349229 -1.423453 0
M  V30 10 N 3.160432 -0.948304 -1.077376 0
M  V30 11 C 0.500868 -0.483402 0.636123 0
M  V30 12 C -0.450030 -0.462683 1.591761 0
M  V30 13 C -1.710269 0.246877 1.253632 0
M  V30 14 O -2.683985 0.347081 2.044142 0
M  V30 15 N -1.927914 0.879710 -0.003680 0
M  V30 16 C -3.255100 1.140933 -0.557632 0
M  V30 17 C -0.702994 1.255755 -0.712262 0
M  V30 18 C 0.316146 0.160563 -0.690676 0
M  V30 19 H -1.947587 -3.470632 3.508135 0
M  V30 20 H -2.396374 -3.194579 5.194354 0
M  V30 21 H -3.373376 -2.490754 3.902068 0
M  V30 22 H 4.178751 -2.534819 1.590735 0
M  V30 23 H 5.935285 -2.490916 -0.369571 0
M  V30 24 H 4.829409 -1.157428 -2.347989 0
M  V30 25 H -3.688927 2.092176 -0.207367 0
M  V30 26 H -3.111270 1.151187 -1.677408 0
M  V30 27 H -3.988780 0.361598 -0.338656 0
M  V30 28 H -1.022679 1.506572 -1.741556 0
M  V30 29 H -0.302771 2.185168 -0.261003 0
M  V30 30 H 0.007192 -0.577726 -1.475700 0
M  V30 31 H 1.281088 0.581155 -1.097786 0
M  V30 END ATOM
M  V30 BEGIN BOND
M  V30 1 1 1 2
M  V30 2 1 2 3
M  V30 3 1 3 4
M  V30 4 1 4 5
M  V30 5 1 5 6
M  V30 6 1 6 7
M  V30 7 2 7 8
M  V30 8 1 8 9
M  V30 9 1 9 10
M  V30 10 2 5 11
M  V30 11 1 11 12
M  V30 12 1 12 13
M  V30 13 2 13 14
M  V30 14 1 13 15
M  V30 15 1 15 16
M  V30 16 1 15 17
M  V30 17 1 17 18
M  V30 18 2 12 3
M  V30 19 2 10 6
M  V30 20 1 18 11
M  V30 21 1 1 19
M  V30 22 1 1 20
M  V30 23 1 1 21
M  V30 24 1 7 22
M  V30 25 1 8 23
M  V30 26 1 9 24
M  V30 27 1 16 25
M  V30 28 1 16 26
M  V30 29 1 16 27
M  V30 30 1 17 28
M  V30 31 1 17 29
M  V30 32 1 18 30
M  V30 33 1 18 31
M  V30 END BOND
M  V30 END CTAB
M  END
>  <Dataset>  (611) 
ChEMBL_Kinases

>  <Ligand_Instance>  (611) 
nan

>  <PDB_ID>  (611) 
nan

>  <Standardized_SMILES>  (611) 
CSc1sc(-c2cc[nH]n2)c2c1C(=O)N(C)CC2

>  <Name>  (611) 
nan

>  <Pocket>  (611) 
nan

>  <ATP_Site>  (611) 
nan

>  <Peripheral>  (611) 
nan

>  <Num_H_Atoms_ProtBoundConf>  (611) 
nan

>  <Num_Resolved_Atoms>  (611) 
nan

>  <Num_Not_Resolved_Atoms>  (611) 
nan

$$$$
CHEMBL3797335
     RDKit          3D

  0  0  0  0  0  0  0  0  0  0999 V3000
M  V30 BEGIN CTAB
M  V30 COUNTS 35 38 0 0 0
M  V30 BEGIN ATOM
M  V30 1 O -0.709748 -0.973642 3.634162 0
M  V30 2 C -0.026099 -1.539391 2.714281 0
M  V30 3 N 0.086716 -2.955837 2.799715 0
M  V30 4 C 1.358283 -3.425072 2.290606 0
M  V30 5 C 1.439050 -2.968364 0.840354 0
M  V30 6 C 1.325618 -1.490557 0.681970 0
M  V30 7 C 1.876827 -0.754657 -0.305093 0
M  V30 8 C 2.683918 -1.022406 -1.487491 0
M  V30 9 C 3.128237 -2.187298 -2.040365 0
M  V30 10 C 3.887040 -2.000902 -3.171585 0
M  V30 11 N 3.897290 -0.663162 -3.302346 0
M  V30 12 N 3.208614 -0.091595 -2.339516 0
M  V30 13 S 1.421347 0.908603 0.054827 0
M  V30 14 C 0.497047 0.556334 1.529631 0
M  V30 15 S -0.329912 1.819815 2.533259 0
M  V30 16 C -2.002453 2.073694 1.950495 0
M  V30 17 C -3.132402 1.404878 2.374449 0
M  V30 18 C -4.361094 1.714204 1.826833 0
M  V30 19 C -4.536377 2.678569 0.853302 0
M  V30 20 C -3.385689 3.350664 0.430318 0
M  V30 21 C -2.154629 3.042163 0.977608 0
M  V30 22 C 0.620153 -0.823986 1.618902 0
M  V30 23 H -0.660352 -3.587421 3.186060 0
M  V30 24 H 2.219741 -3.117438 2.883631 0
M  V30 25 H 1.274552 -4.530576 2.235991 0
M  V30 26 H 2.458990 -3.318687 0.517061 0
M  V30 27 H 0.626656 -3.495573 0.300549 0
M  V30 28 H 2.953890 -3.178865 -1.711077 0
M  V30 29 H 4.372103 -2.699044 -3.824031 0
M  V30 30 H 4.362169 -0.053161 -4.038418 0
M  V30 31 H -2.961479 0.659627 3.133897 0
M  V30 32 H -5.229793 1.172169 2.179871 0
M  V30 33 H -5.505597 2.912212 0.431405 0
M  V30 34 H -3.485841 4.104397 -0.323180 0
M  V30 35 H -1.322612 3.608852 0.593215 0
M  V30 END ATOM
M  V30 BEGIN BOND
M  V30 1 2 1 2
M  V30 2 1 2 3
M  V30 3 1 3 4
M  V30 4 1 4 5
M  V30 5 1 5 6
M  V30 6 2 6 7
M  V30 7 1 7 8
M  V30 8 1 8 9
M  V30 9 2 9 10
M  V30 10 1 10 11
M  V30 11 1 11 12
M  V30 12 1 7 13
M  V30 13 1 13 14
M  V30 14 1 14 15
M  V30 15 1 15 16
M  V30 16 2 16 17
M  V30 17 1 17 18
M  V30 18 2 18 19
M  V30 19 1 19 20
M  V30 20 2 20 21
M  V30 21 2 14 22
M  V30 22 1 22 2
M  V30 23 1 22 6
M  V30 24 2 12 8
M  V30 25 1 21 16
M  V30 26 1 3 23
M  V30 27 1 4 24
M  V30 28 1 4 25
M  V30 29 1 5 26
M  V30 30 1 5 27
M  V30 31 1 9 28
M  V30 32 1 10 29
M  V30 33 1 11 30
M  V30 34 1 17 31
M  V30 35 1 18 32
M  V30 36 1 19 33
M  V30 37 1 20 34
M  V30 38 1 21 35
M  V30 END BOND
M  V30 END CTAB
M  END
>  <Dataset>  (612) 
ChEMBL_Kinases

>  <Ligand_Instance>  (612) 
nan

>  <PDB_ID>  (612) 
nan

>  <Standardized_SMILES>  (612) 
O=C1NCCc2c(-c3cc[nH]n3)sc(Sc3ccccc3)c21

>  <Name>  (612) 
nan

>  <Pocket>  (612) 
nan

>  <ATP_Site>  (612) 
nan

>  <Peripheral>  (612) 
nan

>  <Num_H_Atoms_ProtBoundConf>  (612) 
nan

>  <Num_Resolved_Atoms>  (612) 
nan

>  <Num_Not_Resolved_Atoms>  (612) 
nan

$$$$
CHEMBL3797718
     RDKit          3D

  0  0  0  0  0  0  0  0  0  0999 V3000
M  V30 BEGIN CTAB
M  V30 COUNTS 38 41 0 0 0
M  V30 BEGIN ATOM
M  V30 1 O -0.298070 -0.588129 4.180689 0
M  V30 2 C 0.480726 -1.050036 3.305594 0
M  V30 3 N 1.097797 -2.278852 3.664268 0
M  V30 4 C 1.356946 -3.130792 2.518710 0
M  V30 5 C 2.208819 -2.342490 1.565241 0
M  V30 6 C 1.632755 -1.030127 1.181482 0
M  V30 7 C 1.878166 -0.316018 -0.006998 0
M  V30 8 C 2.726278 -0.598584 -1.178157 0
M  V30 9 C 3.618641 -1.558162 -1.510279 0
M  V30 10 C 4.136159 -1.372853 -2.771471 0
M  V30 11 N 3.525317 -0.258974 -3.198707 0
M  V30 12 N 2.702194 0.198910 -2.279153 0
M  V30 13 S 0.883662 1.152860 0.120672 0
M  V30 14 C 0.166162 0.823203 1.709789 0
M  V30 15 S -0.928744 1.887918 2.532586 0
M  V30 16 C -2.616017 1.628348 1.940701 0
M  V30 17 C -2.685134 2.162735 0.521874 0
M  V30 18 C -2.866253 1.025632 -0.421133 0
M  V30 19 C -2.764026 -0.225427 0.373732 0
M  V30 20 C -2.943579 0.160629 1.824559 0
M  V30 21 C 0.749332 -0.384473 2.007607 0
M  V30 22 H 1.342492 -2.544919 4.665407 0
M  V30 23 H 2.018845 -3.951055 2.912854 0
M  V30 24 H 0.455880 -3.569104 2.071750 0
M  V30 25 H 3.193111 -2.181348 2.066159 0
M  V30 26 H 2.273514 -2.978257 0.648689 0
M  V30 27 H 3.891956 -2.362195 -0.856222 0
M  V30 28 H 4.861145 -1.986349 -3.283849 0
M  V30 29 H 3.642359 0.224026 -4.124616 0
M  V30 30 H -3.365578 2.159971 2.591138 0
M  V30 31 H -3.555562 2.863577 0.400639 0
M  V30 32 H -1.778161 2.776090 0.275282 0
M  V30 33 H -3.861730 1.071161 -0.945196 0
M  V30 34 H -2.083901 1.028801 -1.218743 0
M  V30 35 H -1.786843 -0.768855 0.207358 0
M  V30 36 H -3.552519 -0.973604 0.095303 0
M  V30 37 H -4.012599 -0.047179 2.087529 0
M  V30 38 H -2.268820 -0.487212 2.407095 0
M  V30 END ATOM
M  V30 BEGIN BOND
M  V30 1 2 1 2
M  V30 2 1 2 3
M  V30 3 1 3 4
M  V30 4 1 4 5
M  V30 5 1 5 6
M  V30 6 2 6 7
M  V30 7 1 7 8
M  V30 8 1 8 9
M  V30 9 2 9 10
M  V30 10 1 10 11
M  V30 11 1 11 12
M  V30 12 1 7 13
M  V30 13 1 13 14
M  V30 14 1 14 15
M  V30 15 1 15 16
M  V30 16 1 16 17
M  V30 17 1 17 18
M  V30 18 1 18 19
M  V30 19 1 19 20
M  V30 20 2 14 21
M  V30 21 1 21 2
M  V30 22 1 21 6
M  V30 23 2 12 8
M  V30 24 1 20 16
M  V30 25 1 3 22
M  V30 26 1 4 23
M  V30 27 1 4 24
M  V30 28 1 5 25
M  V30 29 1 5 26
M  V30 30 1 9 27
M  V30 31 1 10 28
M  V30 32 1 11 29
M  V30 33 1 16 30
M  V30 34 1 17 31
M  V30 35 1 17 32
M  V30 36 1 18 33
M  V30 37 1 18 34
M  V30 38 1 19 35
M  V30 39 1 19 36
M  V30 40 1 20 37
M  V30 41 1 20 38
M  V30 END BOND
M  V30 END CTAB
M  END
>  <Dataset>  (613) 
ChEMBL_Kinases

>  <Ligand_Instance>  (613) 
nan

>  <PDB_ID>  (613) 
nan

>  <Standardized_SMILES>  (613) 
O=C1NCCc2c(-c3cc[nH]n3)sc(SC3CCCC3)c21

>  <Name>  (613) 
nan

>  <Pocket>  (613) 
nan

>  <ATP_Site>  (613) 
nan

>  <Peripheral>  (613) 
nan

>  <Num_H_Atoms_ProtBoundConf>  (613) 
nan

>  <Num_Resolved_Atoms>  (613) 
nan

>  <Num_Not_Resolved_Atoms>  (613) 
nan

$$$$
CHEMBL5072183
     RDKit          3D

  0  0  0  0  0  0  0  0  0  0999 V3000
M  V30 BEGIN CTAB
M  V30 COUNTS 60 64 0 0 0
M  V30 BEGIN ATOM
M  V30 1 C -1.270079 -3.574539 4.355679 0
M  V30 2 C -0.450476 -2.369490 4.180762 0
M  V30 3 C -0.320723 -1.462331 5.210791 0
M  V30 4 C 0.448869 -0.328469 5.049981 0
M  V30 5 C 1.065736 -0.162646 3.824028 0
M  V30 6 N 1.903574 0.966982 3.494258 0
M  V30 7 C 1.054769 1.973467 2.939461 0
M  V30 8 O -0.160220 1.581177 2.902818 0
M  V30 9 C 1.539782 3.290111 2.474689 0
M  V30 10 C 2.845629 3.701112 2.518468 0
M  V30 11 C 3.141832 4.980297 2.038290 0
M  V30 12 N 2.160155 5.762904 1.554272 0
M  V30 13 C 0.882813 5.358911 1.512261 0
M  V30 14 C -0.205058 6.244654 0.968249 0
M  V30 15 F -1.410004 5.965883 1.571619 0
M  V30 16 F 0.215058 7.547885 1.159763 0
M  V30 17 F -0.271978 5.924156 -0.385244 0
M  V30 18 C 0.531144 4.106700 1.972218 0
M  V30 19 N 0.918661 -1.063841 2.844110 0
M  V30 20 C 0.165992 -2.195628 2.967637 0
M  V30 21 C 0.086295 -3.099052 1.823753 0
M  V30 22 C 0.196800 -4.474929 1.815490 0
M  V30 23 C 0.093640 -5.165990 0.625005 0
M  V30 24 C -0.119435 -4.506382 -0.568100 0
M  V30 25 C -0.232077 -3.130184 -0.575605 0
M  V30 26 C -0.127406 -2.448337 0.620586 0
M  V30 27 O -0.443516 -2.364583 -1.692183 0
M  V30 28 C -0.669437 -2.578213 -3.050183 0
M  V30 29 C -0.108693 -1.333201 -3.754208 0
M  V30 30 C -1.032223 -0.154638 -3.545962 0
M  V30 31 O -2.229507 -0.480441 -4.161766 0
M  V30 32 C -2.902919 -1.506541 -3.530680 0
M  V30 33 C -2.115670 -2.790049 -3.423212 0
M  V30 34 C 0.119371 -3.735093 -3.639458 0
M  V30 35 C -0.301763 -5.046237 -3.047008 0
M  V30 36 O -0.811113 -5.931697 -3.815955 0
M  V30 37 N -0.193287 -5.425822 -1.678087 0
M  V30 38 H -1.740842 -3.963100 3.448851 0
M  V30 39 H -0.714472 -4.404506 4.872655 0
M  V30 40 H -2.080463 -3.313451 5.088713 0
M  V30 41 H -0.813442 -1.616804 6.157522 0
M  V30 42 H 0.601892 0.429895 5.804855 0
M  V30 43 H 2.937906 1.183584 3.573952 0
M  V30 44 H 3.572510 3.009800 2.923071 0
M  V30 45 H 4.166551 5.303995 2.072164 0
M  V30 46 H -0.524483 3.797057 1.927482 0
M  V30 47 H 0.362295 -4.911606 2.787972 0
M  V30 48 H 0.184530 -6.239985 0.653189 0
M  V30 49 H -0.229204 -1.379034 0.508033 0
M  V30 50 H -0.103999 -1.555526 -4.835837 0
M  V30 51 H 0.902503 -1.166861 -3.332860 0
M  V30 52 H -1.119544 0.136925 -2.487486 0
M  V30 53 H -0.582084 0.692418 -4.092146 0
M  V30 54 H -3.796884 -1.731702 -4.170728 0
M  V30 55 H -3.297891 -1.193194 -2.560917 0
M  V30 56 H -2.165942 -3.388746 -4.374452 0
M  V30 57 H -2.620121 -3.407582 -2.651920 0
M  V30 58 H 1.199787 -3.534755 -3.415264 0
M  V30 59 H -0.010888 -3.727299 -4.721392 0
M  V30 60 H -0.165572 -6.440396 -1.467127 0
M  V30 END ATOM
M  V30 BEGIN BOND
M  V30 1 1 1 2
M  V30 2 2 2 3
M  V30 3 1 3 4
M  V30 4 2 4 5
M  V30 5 1 5 6
M  V30 6 1 6 7
M  V30 7 2 7 8
M  V30 8 1 7 9
M  V30 9 2 9 10
M  V30 10 1 10 11
M  V30 11 2 11 12
M  V30 12 1 12 13
M  V30 13 1 13 14
M  V30 14 1 14 15
M  V30 15 1 14 16
M  V30 16 1 14 17
M  V30 17 2 13 18
M  V30 18 1 5 19
M  V30 19 2 19 20
M  V30 20 1 20 21
M  V30 21 2 21 22
M  V30 22 1 22 23
M  V30 23 2 23 24
M  V30 24 1 24 25
M  V30 25 2 25 26
M  V30 26 1 25 27
M  V30 27 1 27 28
M  V30 28 1 28 29
M  V30 29 1 29 30
M  V30 30 1 30 31
M  V30 31 1 31 32
M  V30 32 1 32 33
M  V30 33 1 28 34
M  V30 34 1 34 35
M  V30 35 2 35 36
M  V30 36 1 35 37
M  V30 37 1 20 2
M  V30 38 1 26 21
M  V30 39 1 33 28
M  V30 40 1 18 9
M  V30 41 1 37 24
M  V30 42 1 1 38
M  V30 43 1 1 39
M  V30 44 1 1 40
M  V30 45 1 3 41
M  V30 46 1 4 42
M  V30 47 1 6 43
M  V30 48 1 10 44
M  V30 49 1 11 45
M  V30 50 1 18 46
M  V30 51 1 22 47
M  V30 52 1 23 48
M  V30 53 1 26 49
M  V30 54 1 29 50
M  V30 55 1 29 51
M  V30 56 1 30 52
M  V30 57 1 30 53
M  V30 58 1 32 54
M  V30 59 1 32 55
M  V30 60 1 33 56
M  V30 61 1 33 57
M  V30 62 1 34 58
M  V30 63 1 34 59
M  V30 64 1 37 60
M  V30 END BOND
M  V30 END CTAB
M  END
>  <Dataset>  (614) 
ChEMBL_Kinases

>  <Ligand_Instance>  (614) 
nan

>  <PDB_ID>  (614) 
nan

>  <Standardized_SMILES>  (614) 
Cc1ccc(NC(=O)c2ccnc(C(F)(F)F)c2)nc1-c1ccc2c(c1)OC1(CCOCC1)CC(=O)N2

>  <Name>  (614) 
nan

>  <Pocket>  (614) 
nan

>  <ATP_Site>  (614) 
nan

>  <Peripheral>  (614) 
nan

>  <Num_H_Atoms_ProtBoundConf>  (614) 
nan

>  <Num_Resolved_Atoms>  (614) 
nan

>  <Num_Not_Resolved_Atoms>  (614) 
nan

$$$$
CHEMBL3797317
     RDKit          3D

  0  0  0  0  0  0  0  0  0  0999 V3000
M  V30 BEGIN CTAB
M  V30 COUNTS 53 57 0 0 0
M  V30 BEGIN ATOM
M  V30 1 C -2.204845 -2.766814 -1.725780 0
M  V30 2 N -1.446647 -3.364122 -0.643832 0
M  V30 3 C -0.099294 -3.076605 -0.227484 0
M  V30 4 C 0.594837 -1.938700 -0.568142 0
M  V30 5 C 1.881605 -1.674770 -0.162728 0
M  V30 6 C 2.766998 -0.550788 -0.400958 0
M  V30 7 C 4.055352 -0.739220 -0.843034 0
M  V30 8 N 4.869815 0.330780 -1.062889 0
M  V30 9 C 4.421621 1.590467 -0.849237 0
M  V30 10 C 3.109805 1.781807 -0.399095 0
M  V30 11 Cl 2.701539 3.491261 -0.176312 0
M  V30 12 C 2.252137 0.699806 -0.165282 0
M  V30 13 N 1.007913 1.161682 0.278457 0
M  V30 14 C 1.098884 1.206496 1.724513 0
M  V30 15 C -0.146044 1.771521 2.360768 0
M  V30 16 C -1.409684 1.299251 1.754854 0
M  V30 17 C -1.985710 0.118845 2.539815 0
M  V30 18 C -3.408188 0.123446 2.060969 0
M  V30 19 N -3.739745 1.552445 2.093490 0
M  V30 20 C -2.505867 2.295313 2.015154 0
M  V30 21 O -2.634438 3.530467 2.174470 0
M  V30 22 C -1.375923 1.047832 0.294462 0
M  V30 23 C -0.187658 1.561990 -0.437601 0
M  V30 24 C 2.491943 -2.640490 0.641854 0
M  V30 25 C 1.781769 -3.789525 0.981607 0
M  V30 26 C 0.469498 -4.027142 0.550807 0
M  V30 27 C -0.350843 -5.224214 0.867468 0
M  V30 28 S -1.970687 -4.612558 0.463372 0
M  V30 29 O -2.592085 -3.947601 1.650464 0
M  V30 30 O -2.839838 -5.607213 -0.197969 0
M  V30 31 H -2.421910 -3.530428 -2.497196 0
M  V30 32 H -3.184844 -2.425391 -1.348661 0
M  V30 33 H -1.605378 -1.960374 -2.151977 0
M  V30 34 H 0.196108 -1.165956 -1.182708 0
M  V30 35 H 4.367187 -1.772481 -0.999544 0
M  V30 36 H 5.116041 2.390705 -1.042347 0
M  V30 37 H 1.411705 0.252253 2.182433 0
M  V30 38 H 1.904993 1.964528 1.960981 0
M  V30 39 H -0.119520 1.462939 3.431651 0
M  V30 40 H -0.125993 2.896055 2.378055 0
M  V30 41 H -1.993794 0.434905 3.606636 0
M  V30 42 H -1.436647 -0.822233 2.350314 0
M  V30 43 H -4.092091 -0.478814 2.697326 0
M  V30 44 H -3.511425 -0.302312 1.040831 0
M  V30 45 H -4.769020 1.807020 2.164994 0
M  V30 46 H -1.470676 -0.056279 0.137627 0
M  V30 47 H -2.294556 1.452378 -0.232620 0
M  V30 48 H -0.197156 2.682576 -0.395979 0
M  V30 49 H -0.188575 1.233909 -1.480178 0
M  V30 50 H 3.500725 -2.577776 1.040348 0
M  V30 51 H 2.277232 -4.541845 1.617001 0
M  V30 52 H -0.078342 -6.097425 0.242432 0
M  V30 53 H -0.304214 -5.463584 1.956004 0
M  V30 END ATOM
M  V30 BEGIN BOND
M  V30 1 1 1 2
M  V30 2 1 2 3
M  V30 3 2 3 4
M  V30 4 1 4 5
M  V30 5 1 5 6
M  V30 6 2 6 7
M  V30 7 1 7 8
M  V30 8 2 8 9
M  V30 9 1 9 10
M  V30 10 1 10 11
M  V30 11 2 10 12
M  V30 12 1 12 13
M  V30 13 1 13 14
M  V30 14 1 14 15
M  V30 15 1 15 16
M  V30 16 1 16 17
M  V30 17 1 17 18
M  V30 18 1 18 19
M  V30 19 1 19 20
M  V30 20 2 20 21
M  V30 21 1 16 22
M  V30 22 1 22 23
M  V30 23 2 5 24
M  V30 24 1 24 25
M  V30 25 2 25 26
M  V30 26 1 26 27
M  V30 27 1 27 28
M  V30 28 2 28 29
M  V30 29 2 28 30
M  V30 30 1 28 2
M  V30 31 1 26 3
M  V30 32 1 12 6
M  V30 33 1 23 13
M  V30 34 1 20 16
M  V30 35 1 1 31
M  V30 36 1 1 32
M  V30 37 1 1 33
M  V30 38 1 4 34
M  V30 39 1 7 35
M  V30 40 1 9 36
M  V30 41 1 14 37
M  V30 42 1 14 38
M  V30 43 1 15 39
M  V30 44 1 15 40
M  V30 45 1 17 41
M  V30 46 1 17 42
M  V30 47 1 18 43
M  V30 48 1 18 44
M  V30 49 1 19 45
M  V30 50 1 22 46
M  V30 51 1 22 47
M  V30 52 1 23 48
M  V30 53 1 23 49
M  V30 54 1 24 50
M  V30 55 1 25 51
M  V30 56 1 27 52
M  V30 57 1 27 53
M  V30 END BOND
M  V30 END CTAB
M  END
>  <Dataset>  (615) 
ChEMBL_Kinases

>  <Ligand_Instance>  (615) 
nan

>  <PDB_ID>  (615) 
nan

>  <Standardized_SMILES>  (615) 
CN1c2cc(-c3cncc(Cl)c3N3CCC4(CCNC4=O)CC3)ccc2CS1(=O)=O

>  <Name>  (615) 
nan

>  <Pocket>  (615) 
nan

>  <ATP_Site>  (615) 
nan

>  <Peripheral>  (615) 
nan

>  <Num_H_Atoms_ProtBoundConf>  (615) 
nan

>  <Num_Resolved_Atoms>  (615) 
nan

>  <Num_Not_Resolved_Atoms>  (615) 
nan

$$$$
CHEMBL3797308
     RDKit          3D

  0  0  0  0  0  0  0  0  0  0999 V3000
M  V30 BEGIN CTAB
M  V30 COUNTS 35 37 0 0 0
M  V30 BEGIN ATOM
M  V30 1 C 1.316125 -1.336778 3.753220 0
M  V30 2 O 0.414445 -1.383788 2.692582 0
M  V30 3 C 0.130627 -2.669931 2.290052 0
M  V30 4 C -0.859347 -2.584329 1.133646 0
M  V30 5 C -0.203713 -1.924150 -0.016300 0
M  V30 6 C -0.104920 -0.446887 0.092148 0
M  V30 7 C 0.816601 0.299104 -0.599933 0
M  V30 8 C 1.862527 -0.149011 -1.555817 0
M  V30 9 C 2.728926 0.719509 -2.184696 0
M  V30 10 C 3.564631 -0.052299 -3.002876 0
M  V30 11 N 3.170822 -1.345309 -2.835082 0
M  V30 12 N 2.149186 -1.399434 -1.966019 0
M  V30 13 S 0.595030 1.926627 -0.195772 0
M  V30 14 C -0.820365 1.620403 0.977558 0
M  V30 15 S -1.722490 2.852612 1.913253 0
M  V30 16 C -3.141279 3.478765 0.973636 0
M  V30 17 C -0.951591 0.219990 0.905785 0
M  V30 18 C -1.961461 -0.500439 1.677332 0
M  V30 19 O -2.776875 0.063527 2.449903 0
M  V30 20 N -2.066100 -1.916306 1.581811 0
M  V30 21 H 2.243447 -1.824624 3.395301 0
M  V30 22 H 1.569234 -0.273072 3.927463 0
M  V30 23 H 0.917320 -1.803607 4.672044 0
M  V30 24 H -0.364354 -3.212038 3.145361 0
M  V30 25 H 1.002393 -3.278761 2.028974 0
M  V30 26 H -1.166733 -3.619891 0.883075 0
M  V30 27 H 0.815293 -2.394913 -0.148243 0
M  V30 28 H -0.758054 -2.224987 -0.936456 0
M  V30 29 H 2.826235 1.796579 -2.126597 0
M  V30 30 H 4.359660 0.324143 -3.635245 0
M  V30 31 H 3.598871 -2.169754 -3.310489 0
M  V30 32 H -4.102261 3.122254 1.408447 0
M  V30 33 H -3.128120 4.577828 0.854118 0
M  V30 34 H -3.083402 3.030453 -0.043245 0
M  V30 35 H -2.976149 -2.392940 1.830351 0
M  V30 END ATOM
M  V30 BEGIN BOND
M  V30 1 1 1 2
M  V30 2 1 2 3
M  V30 3 1 3 4
M  V30 4 1 4 5
M  V30 5 1 5 6
M  V30 6 2 6 7
M  V30 7 1 7 8
M  V30 8 1 8 9
M  V30 9 2 9 10
M  V30 10 1 10 11
M  V30 11 1 11 12
M  V30 12 1 7 13
M  V30 13 1 13 14
M  V30 14 1 14 15
M  V30 15 1 15 16
M  V30 16 2 14 17
M  V30 17 1 17 18
M  V30 18 2 18 19
M  V30 19 1 18 20
M  V30 20 1 20 4
M  V30 21 1 17 6
M  V30 22 2 12 8
M  V30 23 1 1 21
M  V30 24 1 1 22
M  V30 25 1 1 23
M  V30 26 1 3 24
M  V30 27 1 3 25
M  V30 28 1 4 26
M  V30 29 1 5 27
M  V30 30 1 5 28
M  V30 31 1 9 29
M  V30 32 1 10 30
M  V30 33 1 11 31
M  V30 34 1 16 32
M  V30 35 1 16 33
M  V30 36 1 16 34
M  V30 37 1 20 35
M  V30 END BOND
M  V30 END CTAB
M  END
>  <Dataset>  (616) 
ChEMBL_Kinases

>  <Ligand_Instance>  (616) 
nan

>  <PDB_ID>  (616) 
nan

>  <Standardized_SMILES>  (616) 
COCC1Cc2c(-c3cc[nH]n3)sc(SC)c2C(=O)N1

>  <Name>  (616) 
nan

>  <Pocket>  (616) 
nan

>  <ATP_Site>  (616) 
nan

>  <Peripheral>  (616) 
nan

>  <Num_H_Atoms_ProtBoundConf>  (616) 
nan

>  <Num_Resolved_Atoms>  (616) 
nan

>  <Num_Not_Resolved_Atoms>  (616) 
nan

$$$$
CHEMBL3797298
     RDKit          3D

  0  0  0  0  0  0  0  0  0  0999 V3000
M  V30 BEGIN CTAB
M  V30 COUNTS 41 44 0 0 0
M  V30 BEGIN ATOM
M  V30 1 C 0.462333 -4.307295 3.254102 0
M  V30 2 C -0.163136 -3.426457 2.139130 0
M  V30 3 C 0.865404 -2.547008 1.567100 0 CFG=1
M  V30 4 C 2.015193 -3.300115 0.940795 0
M  V30 5 N 3.210649 -2.511645 1.288295 0
M  V30 6 C 2.977082 -1.201726 0.724628 0
M  V30 7 O 4.054777 -0.555677 0.489587 0
M  V30 8 C 1.626363 -0.700299 0.467434 0
M  V30 9 C 1.523895 0.487005 -0.186072 0
M  V30 10 S 2.647749 1.737509 -0.777954 0
M  V30 11 C 1.738656 3.095139 -1.528252 0
M  V30 12 C 0.962763 3.933537 -0.541308 0
M  V30 13 C 1.758541 4.625334 0.514427 0
M  V30 14 C 0.776172 3.562934 0.860452 0
M  V30 15 S -0.210166 0.632938 -0.439591 0
M  V30 16 C -0.698215 -0.935155 0.361250 0
M  V30 17 C -2.079831 -1.216267 0.382246 0
M  V30 18 C -2.876066 -2.286202 0.679878 0
M  V30 19 C -4.223507 -2.093098 0.614014 0
M  V30 20 N -4.266893 -0.807942 0.246868 0
M  V30 21 N -3.073156 -0.315720 0.116407 0
M  V30 22 C 0.485641 -1.407247 0.740999 0
M  V30 23 H 1.164616 -3.633362 3.781552 0
M  V30 24 H 0.975690 -5.179045 2.809001 0
M  V30 25 H -0.337051 -4.585021 3.948833 0
M  V30 26 H -0.595089 -4.169117 1.457493 0
M  V30 27 H -0.974561 -2.902005 2.659772 0
M  V30 28 H 1.383759 -2.128215 2.545146 0
M  V30 29 H 2.186231 -4.279815 1.453423 0
M  V30 30 H 1.978626 -3.402740 -0.138030 0
M  V30 31 H 4.045766 -2.830924 1.825611 0
M  V30 32 H 0.951712 2.647582 -2.208110 0
M  V30 33 H 2.365131 3.701725 -2.199659 0
M  V30 34 H 0.193503 4.574756 -1.036350 0
M  V30 35 H 1.571668 5.697619 0.739354 0
M  V30 36 H 2.863538 4.412894 0.564330 0
M  V30 37 H -0.123404 3.954171 1.396767 0
M  V30 38 H 1.136986 2.605781 1.285679 0
M  V30 39 H -2.607045 -3.279003 0.947055 0
M  V30 40 H -5.104233 -2.663890 0.769695 0
M  V30 41 H -5.037260 -0.099984 0.039085 0
M  V30 END ATOM
M  V30 BEGIN BOND
M  V30 1 1 1 2
M  V30 2 1 2 3
M  V30 3 1 3 4
M  V30 4 1 4 5
M  V30 5 1 5 6
M  V30 6 2 6 7
M  V30 7 1 6 8
M  V30 8 2 8 9
M  V30 9 1 9 10
M  V30 10 1 10 11
M  V30 11 1 11 12
M  V30 12 1 12 13
M  V30 13 1 13 14
M  V30 14 1 9 15
M  V30 15 1 15 16
M  V30 16 1 16 17
M  V30 17 1 17 18
M  V30 18 2 18 19
M  V30 19 1 19 20
M  V30 20 1 20 21
M  V30 21 2 16 22
M  V30 22 1 22 3
M  V30 23 1 22 8
M  V30 24 1 14 12
M  V30 25 2 21 17
M  V30 26 1 1 23
M  V30 27 1 1 24
M  V30 28 1 1 25
M  V30 29 1 2 26
M  V30 30 1 2 27
M  V30 31 1 3 28 CFG=1
M  V30 32 1 4 29
M  V30 33 1 4 30
M  V30 34 1 5 31
M  V30 35 1 11 32
M  V30 36 1 11 33
M  V30 37 1 12 34
M  V30 38 1 13 35
M  V30 39 1 13 36
M  V30 40 1 14 37
M  V30 41 1 14 38
M  V30 42 1 18 39
M  V30 43 1 19 40
M  V30 44 1 20 41
M  V30 END BOND
M  V30 END CTAB
M  END
>  <Dataset>  (617) 
ChEMBL_Kinases

>  <Ligand_Instance>  (617) 
nan

>  <PDB_ID>  (617) 
nan

>  <Standardized_SMILES>  (617) 
CC[C@H]1CNC(=O)c2c(SCC3CC3)sc(-c3cc[nH]n3)c21

>  <Name>  (617) 
nan

>  <Pocket>  (617) 
nan

>  <ATP_Site>  (617) 
nan

>  <Peripheral>  (617) 
nan

>  <Num_H_Atoms_ProtBoundConf>  (617) 
nan

>  <Num_Resolved_Atoms>  (617) 
nan

>  <Num_Not_Resolved_Atoms>  (617) 
nan

$$$$
CHEMBL3797246
     RDKit          3D

  0  0  0  0  0  0  0  0  0  0999 V3000
M  V30 BEGIN CTAB
M  V30 COUNTS 45 48 0 0 0
M  V30 BEGIN ATOM
M  V30 1 O -0.579802 2.838651 1.475453 0
M  V30 2 C -0.408004 1.615653 1.399449 0
M  V30 3 N 0.921236 1.176950 1.228944 0
M  V30 4 C 2.107723 1.957446 1.130970 0
M  V30 5 C 3.093084 1.771728 2.247384 0
M  V30 6 O 3.565835 0.481510 2.384678 0
M  V30 7 C 2.738803 1.814396 -0.188228 0
M  V30 8 C 2.843445 0.525343 -0.702609 0
M  V30 9 C 3.423755 0.327952 -1.931100 0
M  V30 10 Cl 3.601639 -1.264782 -2.665669 0
M  V30 11 C 3.920996 1.379023 -2.698652 0
M  V30 12 C 3.795802 2.639478 -2.149081 0
M  V30 13 Cl 4.388176 4.037057 -3.029522 0
M  V30 14 C 3.216045 2.894305 -0.908295 0
M  V30 15 C -1.554135 0.717694 1.487413 0
M  V30 16 C -2.784568 1.320060 1.654578 0
M  V30 17 C -3.934130 0.535458 1.748174 0
M  V30 18 C -3.745549 -0.827372 1.663541 0
M  V30 19 N -4.668886 -1.827042 1.721556 0
M  V30 20 N -4.080403 -3.004463 1.600296 0
M  V30 21 C -2.757506 -2.848537 1.457890 0
M  V30 22 C -1.721389 -3.859232 1.293733 0
M  V30 23 C -0.511269 -3.870022 1.964000 0
M  V30 24 C 0.415548 -4.886412 1.734379 0
M  V30 25 N 0.173853 -5.893758 0.856522 0
M  V30 26 C -1.003984 -5.931806 0.168352 0
M  V30 27 C -1.910171 -4.907455 0.415403 0
M  V30 28 C -2.551045 -1.485351 1.497856 0
M  V30 29 C -1.431403 -0.653753 1.409828 0
M  V30 30 H 1.124746 0.155379 1.158691 0
M  V30 31 H 1.769710 3.031991 1.218645 0
M  V30 32 H 2.725955 2.238605 3.176134 0
M  V30 33 H 3.987297 2.397801 1.952105 0
M  V30 34 H 3.709532 0.279622 3.358296 0
M  V30 35 H 2.510445 -0.386172 -0.237090 0
M  V30 36 H 4.385459 1.272689 -3.669834 0
M  V30 37 H 3.139029 3.895837 -0.517383 0
M  V30 38 H -2.924369 2.390942 1.720132 0
M  V30 39 H -4.916792 0.939988 1.878118 0
M  V30 40 H -5.716724 -1.703316 1.845839 0
M  V30 41 H -0.319350 -3.067728 2.662848 0
M  V30 42 H 1.333582 -4.814896 2.301600 0
M  V30 43 H -1.241018 -6.713872 -0.540857 0
M  V30 44 H -2.831625 -4.952584 -0.134298 0
M  V30 45 H -0.470742 -1.110006 1.279957 0
M  V30 END ATOM
M  V30 BEGIN BOND
M  V30 1 2 1 2
M  V30 2 1 2 3
M  V30 3 1 3 4
M  V30 4 1 4 5
M  V30 5 1 5 6
M  V30 6 1 4 7
M  V30 7 2 7 8
M  V30 8 1 8 9
M  V30 9 1 9 10
M  V30 10 2 9 11
M  V30 11 1 11 12
M  V30 12 1 12 13
M  V30 13 2 12 14
M  V30 14 1 2 15
M  V30 15 2 15 16
M  V30 16 1 16 17
M  V30 17 2 17 18
M  V30 18 1 18 19
M  V30 19 1 19 20
M  V30 20 2 20 21
M  V30 21 1 21 22
M  V30 22 2 22 23
M  V30 23 1 23 24
M  V30 24 2 24 25
M  V30 25 1 25 26
M  V30 26 2 26 27
M  V30 27 1 21 28
M  V30 28 2 28 29
M  V30 29 1 14 7
M  V30 30 1 29 15
M  V30 31 1 28 18
M  V30 32 1 27 22
M  V30 33 1 3 30
M  V30 34 1 4 31
M  V30 35 1 5 32
M  V30 36 1 5 33
M  V30 37 1 6 34
M  V30 38 1 8 35
M  V30 39 1 11 36
M  V30 40 1 14 37
M  V30 41 1 16 38
M  V30 42 1 17 39
M  V30 43 1 19 40
M  V30 44 1 23 41
M  V30 45 1 24 42
M  V30 46 1 26 43
M  V30 47 1 27 44
M  V30 48 1 29 45
M  V30 END BOND
M  V30 END CTAB
M  END
>  <Dataset>  (618) 
ChEMBL_Kinases

>  <Ligand_Instance>  (618) 
nan

>  <PDB_ID>  (618) 
nan

>  <Standardized_SMILES>  (618) 
O=C(NC(CO)c1cc(Cl)cc(Cl)c1)c1ccc2[nH]nc(-c3ccncc3)c2c1

>  <Name>  (618) 
nan

>  <Pocket>  (618) 
nan

>  <ATP_Site>  (618) 
nan

>  <Peripheral>  (618) 
nan

>  <Num_H_Atoms_ProtBoundConf>  (618) 
nan

>  <Num_Resolved_Atoms>  (618) 
nan

>  <Num_Not_Resolved_Atoms>  (618) 
nan

$$$$
CHEMBL3797243
     RDKit          3D

  0  0  0  0  0  0  0  0  0  0999 V3000
M  V30 BEGIN CTAB
M  V30 COUNTS 32 35 0 0 0
M  V30 BEGIN ATOM
M  V30 1 O 0.899849 -0.446221 4.137625 0
M  V30 2 C 1.157861 -0.957217 3.028394 0
M  V30 3 N 1.831631 -2.207565 2.948746 0
M  V30 4 C 1.503219 -3.023396 1.804873 0
M  V30 5 C 1.859081 -2.244026 0.565723 0
M  V30 6 C 1.125347 -0.958861 0.580689 0
M  V30 7 C 0.757329 -0.339584 -0.568188 0
M  V30 8 C 0.953083 -0.747030 -2.005068 0
M  V30 9 C 0.510591 0.007719 -3.068097 0
M  V30 10 C 0.883256 -0.706389 -4.215956 0
M  V30 11 N 1.523994 -1.842775 -3.809571 0
M  V30 12 N 1.549791 -1.838278 -2.483796 0
M  V30 13 S -0.050391 1.129485 -0.171929 0
M  V30 14 C 0.121812 0.887768 1.656996 0
M  V30 15 S -0.460515 1.985856 3.010698 0
M  V30 16 C -2.135813 1.558686 3.504958 0
M  V30 17 C -3.297128 1.739494 2.595335 0
M  V30 18 C -2.735346 0.389664 2.723935 0
M  V30 19 C 0.807689 -0.343869 1.750709 0
M  V30 20 H 2.523673 -2.493209 3.697443 0
M  V30 21 H 2.041659 -4.006465 1.832802 0
M  V30 22 H 0.416747 -3.261426 1.848698 0
M  V30 23 H 1.586578 -2.886629 -0.294657 0
M  V30 24 H 2.960027 -2.103562 0.584110 0
M  V30 25 H -0.014816 0.950639 -3.113223 0
M  V30 26 H 0.686517 -0.392208 -5.234888 0
M  V30 27 H 1.906729 -2.555643 -4.454588 0
M  V30 28 H -2.285956 1.508673 4.605763 0
M  V30 29 H -4.263400 1.922758 3.148168 0
M  V30 30 H -3.246672 2.334776 1.682244 0
M  V30 31 H -3.234809 -0.421232 3.284866 0
M  V30 32 H -2.183731 0.015768 1.834560 0
M  V30 END ATOM
M  V30 BEGIN BOND
M  V30 1 2 1 2
M  V30 2 1 2 3
M  V30 3 1 3 4
M  V30 4 1 4 5
M  V30 5 1 5 6
M  V30 6 2 6 7
M  V30 7 1 7 8
M  V30 8 1 8 9
M  V30 9 2 9 10
M  V30 10 1 10 11
M  V30 11 1 11 12
M  V30 12 1 7 13
M  V30 13 1 13 14
M  V30 14 1 14 15
M  V30 15 1 15 16
M  V30 16 1 16 17
M  V30 17 1 17 18
M  V30 18 2 14 19
M  V30 19 1 19 2
M  V30 20 1 19 6
M  V30 21 2 12 8
M  V30 22 1 18 16
M  V30 23 1 3 20
M  V30 24 1 4 21
M  V30 25 1 4 22
M  V30 26 1 5 23
M  V30 27 1 5 24
M  V30 28 1 9 25
M  V30 29 1 10 26
M  V30 30 1 11 27
M  V30 31 1 16 28
M  V30 32 1 17 29
M  V30 33 1 17 30
M  V30 34 1 18 31
M  V30 35 1 18 32
M  V30 END BOND
M  V30 END CTAB
M  END
>  <Dataset>  (619) 
ChEMBL_Kinases

>  <Ligand_Instance>  (619) 
nan

>  <PDB_ID>  (619) 
nan

>  <Standardized_SMILES>  (619) 
O=C1NCCc2c(-c3cc[nH]n3)sc(SC3CC3)c21

>  <Name>  (619) 
nan

>  <Pocket>  (619) 
nan

>  <ATP_Site>  (619) 
nan

>  <Peripheral>  (619) 
nan

>  <Num_H_Atoms_ProtBoundConf>  (619) 
nan

>  <Num_Resolved_Atoms>  (619) 
nan

>  <Num_Not_Resolved_Atoms>  (619) 
nan

$$$$
CHEMBL5072383
     RDKit          3D

  0  0  0  0  0  0  0  0  0  0999 V3000
M  V30 BEGIN CTAB
M  V30 COUNTS 30 32 0 0 0
M  V30 BEGIN ATOM
M  V30 1 C -0.021323 -5.421529 2.827045 0
M  V30 2 C -0.377088 -4.074759 2.288182 0
M  V30 3 N -1.639731 -3.612460 2.259401 0
M  V30 4 C -1.913571 -2.391097 1.764016 0
M  V30 5 N -3.235969 -1.857444 1.712273 0
M  V30 6 C -0.864148 -1.632095 1.289133 0
M  V30 7 C -0.773762 -0.377754 0.729417 0
M  V30 8 C -1.916449 0.455445 0.559246 0
M  V30 9 N -2.851012 1.121119 0.437182 0
M  V30 10 C 0.511884 -0.051157 0.409028 0
M  V30 11 C 1.163810 1.098181 -0.153446 0
M  V30 12 C 2.539664 1.152106 -0.107699 0
M  V30 13 C 3.320245 2.165605 -0.618716 0
M  V30 14 C 2.723135 3.237284 -1.237075 0
M  V30 15 C 1.349830 3.234074 -1.311157 0
M  V30 16 F 0.751052 4.280632 -1.916604 0
M  V30 17 C 0.643947 2.185183 -0.777044 0
M  V30 18 F -0.669505 2.299581 -0.945190 0
M  V30 19 N 1.209331 -1.132067 0.786108 0
M  V30 20 C 0.433608 -2.089431 1.310936 0
M  V30 21 N 0.629415 -3.319792 1.820940 0
M  V30 22 H 0.811107 -5.832662 2.215222 0
M  V30 23 H 0.372290 -5.295940 3.877301 0
M  V30 24 H -0.914882 -6.078678 2.853780 0
M  V30 25 H -3.949488 -1.866583 0.946072 0
M  V30 26 H -3.264778 -1.455325 2.681601 0
M  V30 27 H 3.177244 0.378283 0.352179 0
M  V30 28 H 4.392373 2.183045 -0.568187 0
M  V30 29 H 3.317831 4.038739 -1.641975 0
M  V30 30 H 2.247816 -1.357644 0.740934 0
M  V30 END ATOM
M  V30 BEGIN BOND
M  V30 1 1 1 2
M  V30 2 2 2 3
M  V30 3 1 3 4
M  V30 4 1 4 5
M  V30 5 2 4 6
M  V30 6 1 6 7
M  V30 7 1 7 8
M  V30 8 3 8 9
M  V30 9 2 7 10
M  V30 10 1 10 11
M  V30 11 2 11 12
M  V30 12 1 12 13
M  V30 13 2 13 14
M  V30 14 1 14 15
M  V30 15 1 15 16
M  V30 16 2 15 17
M  V30 17 1 17 18
M  V30 18 1 10 19
M  V30 19 1 19 20
M  V30 20 2 20 21
M  V30 21 1 21 2
M  V30 22 1 20 6
M  V30 23 1 17 11
M  V30 24 1 1 22
M  V30 25 1 1 23
M  V30 26 1 1 24
M  V30 27 1 5 25
M  V30 28 1 5 26
M  V30 29 1 12 27
M  V30 30 1 13 28
M  V30 31 1 14 29
M  V30 32 1 19 30
M  V30 END BOND
M  V30 END CTAB
M  END
>  <Dataset>  (620) 
ChEMBL_Kinases

>  <Ligand_Instance>  (620) 
nan

>  <PDB_ID>  (620) 
nan

>  <Standardized_SMILES>  (620) 
Cc1nc(N)c2c(C#N)c(-c3cccc(F)c3F)[nH]c2n1

>  <Name>  (620) 
nan

>  <Pocket>  (620) 
nan

>  <ATP_Site>  (620) 
nan

>  <Peripheral>  (620) 
nan

>  <Num_H_Atoms_ProtBoundConf>  (620) 
nan

>  <Num_Resolved_Atoms>  (620) 
nan

>  <Num_Not_Resolved_Atoms>  (620) 
nan

$$$$
CHEMBL3797214
     RDKit          3D

  0  0  0  0  0  0  0  0  0  0999 V3000
M  V30 BEGIN CTAB
M  V30 COUNTS 31 33 0 0 0
M  V30 BEGIN ATOM
M  V30 1 C -1.497192 -1.164928 5.027805 0
M  V30 2 S -0.644139 0.358211 4.493457 0
M  V30 3 C 0.038056 0.053686 2.841370 0
M  V30 4 S 1.679495 -0.617269 2.578805 0
M  V30 5 C 1.537645 -0.588383 0.802618 0
M  V30 6 C 2.722358 -1.074688 0.047149 0
M  V30 7 C 2.957249 -1.105081 -1.309287 0
M  V30 8 C 4.171645 -1.647133 -1.601487 0
M  V30 9 N 4.681694 -1.949580 -0.409186 0
M  V30 10 N 3.849601 -1.620388 0.530564 0
M  V30 11 C 0.315961 -0.098748 0.506050 0
M  V30 12 C -0.414182 0.216560 1.594754 0
M  V30 13 C -1.769066 0.774816 1.360953 0
M  V30 14 O -2.575124 1.123138 2.291757 0
M  V30 15 N -2.235658 0.949909 0.026131 0
M  V30 16 C -1.727622 -0.039354 -0.896089 0
M  V30 17 C -2.049901 -1.458180 -0.452978 0
M  V30 18 C -0.218019 0.080494 -0.869888 0
M  V30 19 H -2.010762 -1.590128 4.122901 0
M  V30 20 H -2.268044 -0.981769 5.786743 0
M  V30 21 H -0.737691 -1.923016 5.301523 0
M  V30 22 H 2.331909 -0.763044 -2.095750 0
M  V30 23 H 4.651469 -1.813723 -2.554808 0
M  V30 24 H 5.601494 -2.387786 -0.142421 0
M  V30 25 H -2.893664 1.723934 -0.280094 0
M  V30 26 H -2.095948 0.141225 -1.936260 0
M  V30 27 H -2.745085 -1.973551 -1.159459 0
M  V30 28 H -1.142178 -2.089958 -0.327876 0
M  V30 29 H -2.569228 -1.367323 0.512999 0
M  V30 30 H 0.134098 -0.740551 -1.547117 0
M  V30 31 H 0.075466 1.048297 -1.327416 0
M  V30 END ATOM
M  V30 BEGIN BOND
M  V30 1 1 1 2
M  V30 2 1 2 3
M  V30 3 1 3 4
M  V30 4 1 4 5
M  V30 5 1 5 6
M  V30 6 1 6 7
M  V30 7 2 7 8
M  V30 8 1 8 9
M  V30 9 1 9 10
M  V30 10 2 5 11
M  V30 11 1 11 12
M  V30 12 1 12 13
M  V30 13 2 13 14
M  V30 14 1 13 15
M  V30 15 1 15 16
M  V30 16 1 16 17
M  V30 17 1 16 18
M  V30 18 2 12 3
M  V30 19 2 10 6
M  V30 20 1 18 11
M  V30 21 1 1 19
M  V30 22 1 1 20
M  V30 23 1 1 21
M  V30 24 1 7 22
M  V30 25 1 8 23
M  V30 26 1 9 24
M  V30 27 1 15 25
M  V30 28 1 16 26
M  V30 29 1 17 27
M  V30 30 1 17 28
M  V30 31 1 17 29
M  V30 32 1 18 30
M  V30 33 1 18 31
M  V30 END BOND
M  V30 END CTAB
M  END
>  <Dataset>  (621) 
ChEMBL_Kinases

>  <Ligand_Instance>  (621) 
nan

>  <PDB_ID>  (621) 
nan

>  <Standardized_SMILES>  (621) 
CSc1sc(-c2cc[nH]n2)c2c1C(=O)NC(C)C2

>  <Name>  (621) 
nan

>  <Pocket>  (621) 
nan

>  <ATP_Site>  (621) 
nan

>  <Peripheral>  (621) 
nan

>  <Num_H_Atoms_ProtBoundConf>  (621) 
nan

>  <Num_Resolved_Atoms>  (621) 
nan

>  <Num_Not_Resolved_Atoms>  (621) 
nan

$$$$
CHEMBL3797212
     RDKit          3D

  0  0  0  0  0  0  0  0  0  0999 V3000
M  V30 BEGIN CTAB
M  V30 COUNTS 57 61 0 0 0
M  V30 BEGIN ATOM
M  V30 1 C 5.394887 -6.059887 0.655932 0
M  V30 2 N 4.683757 -5.042854 -0.104317 0
M  V30 3 C 4.197510 -3.939226 0.508098 0
M  V30 4 C 3.577078 -3.164359 -0.466507 0
M  V30 5 C 2.904346 -1.883703 -0.301805 0
M  V30 6 C 3.250178 -0.925445 0.622077 0
M  V30 7 C 2.540220 0.242560 0.682706 0
M  V30 8 C 1.449925 0.552546 -0.150457 0
M  V30 9 C 0.882924 1.865205 0.121902 0
M  V30 10 C 1.811369 2.913932 0.155612 0
M  V30 11 N 1.480007 4.196216 0.385794 0
M  V30 12 C 0.181989 4.466247 0.592412 0
M  V30 13 C -0.827273 3.493110 0.580065 0
M  V30 14 C -2.246317 3.860342 0.810131 0
M  V30 15 F -2.823745 3.259238 1.887919 0
M  V30 16 F -2.265274 5.229181 1.102286 0
M  V30 17 F -3.002985 3.738068 -0.339824 0
M  V30 18 C -0.433806 2.177865 0.337337 0
M  V30 19 N -1.391380 1.161433 0.306347 0
M  V30 20 C -2.275673 0.549910 -0.676137 0
M  V30 21 C -2.432838 -0.935129 -0.434412 0
M  V30 22 C -3.160708 -1.194802 0.870138 0
M  V30 23 C -4.614307 -1.472921 0.668425 0
M  V30 24 C -4.676631 -2.949127 0.367465 0
M  V30 25 N -3.434536 -3.451279 0.879799 0
M  V30 26 C -2.625938 -2.416952 1.472931 0
M  V30 27 O -1.716656 -2.688376 2.298355 0
M  V30 28 C -3.005649 0.041855 1.731213 0
M  V30 29 C -1.567234 0.493250 1.603684 0
M  V30 30 C 1.126430 -0.427433 -1.067565 0
M  V30 31 C 1.842258 -1.603053 -1.127150 0
M  V30 32 C 3.711161 -3.836290 -1.654302 0
M  V30 33 N 4.393288 -4.980186 -1.392318 0
M  V30 34 H 4.812932 -6.320838 1.566444 0
M  V30 35 H 5.613039 -6.941233 0.028787 0
M  V30 36 H 6.345341 -5.618469 0.982356 0
M  V30 37 H 4.243046 -3.640250 1.566139 0
M  V30 38 H 4.085040 -1.151214 1.267422 0
M  V30 39 H 2.910822 0.927984 1.459545 0
M  V30 40 H 2.874639 2.734188 -0.007708 0
M  V30 41 H -0.095139 5.485406 0.776963 0
M  V30 42 H -1.946581 0.683062 -1.714746 0
M  V30 43 H -3.308569 0.962115 -0.595434 0
M  V30 44 H -1.513129 -1.515934 -0.554986 0
M  V30 45 H -3.130908 -1.281158 -1.240720 0
M  V30 46 H -5.240479 -1.249527 1.533257 0
M  V30 47 H -4.937857 -0.932301 -0.248578 0
M  V30 48 H -5.525118 -3.441763 0.884536 0
M  V30 49 H -4.732511 -3.126667 -0.727557 0
M  V30 50 H -3.274196 -4.494104 0.759247 0
M  V30 51 H -3.734429 0.774150 1.390145 0
M  V30 52 H -3.183072 -0.244935 2.800590 0
M  V30 53 H -0.982159 -0.473826 1.601808 0
M  V30 54 H -1.326525 1.118772 2.457644 0
M  V30 55 H 0.297314 -0.146070 -1.684489 0
M  V30 56 H 1.511731 -2.308084 -1.878619 0
M  V30 57 H 3.372409 -3.582990 -2.656791 0
M  V30 END ATOM
M  V30 BEGIN BOND
M  V30 1 1 1 2
M  V30 2 1 2 3
M  V30 3 2 3 4
M  V30 4 1 4 5
M  V30 5 2 5 6
M  V30 6 1 6 7
M  V30 7 2 7 8
M  V30 8 1 8 9
M  V30 9 2 9 10
M  V30 10 1 10 11
M  V30 11 2 11 12
M  V30 12 1 12 13
M  V30 13 1 13 14
M  V30 14 1 14 15
M  V30 15 1 14 16
M  V30 16 1 14 17
M  V30 17 2 13 18
M  V30 18 1 18 19
M  V30 19 1 19 20
M  V30 20 1 20 21
M  V30 21 1 21 22
M  V30 22 1 22 23
M  V30 23 1 23 24
M  V30 24 1 24 25
M  V30 25 1 25 26
M  V30 26 2 26 27
M  V30 27 1 22 28
M  V30 28 1 28 29
M  V30 29 1 8 30
M  V30 30 2 30 31
M  V30 31 1 4 32
M  V30 32 2 32 33
M  V30 33 1 33 2
M  V30 34 1 31 5
M  V30 35 1 18 9
M  V30 36 1 29 19
M  V30 37 1 26 22
M  V30 38 1 1 34
M  V30 39 1 1 35
M  V30 40 1 1 36
M  V30 41 1 3 37
M  V30 42 1 6 38
M  V30 43 1 7 39
M  V30 44 1 10 40
M  V30 45 1 12 41
M  V30 46 1 20 42
M  V30 47 1 20 43
M  V30 48 1 21 44
M  V30 49 1 21 45
M  V30 50 1 23 46
M  V30 51 1 23 47
M  V30 52 1 24 48
M  V30 53 1 24 49
M  V30 54 1 25 50
M  V30 55 1 28 51
M  V30 56 1 28 52
M  V30 57 1 29 53
M  V30 58 1 29 54
M  V30 59 1 30 55
M  V30 60 1 31 56
M  V30 61 1 32 57
M  V30 END BOND
M  V30 END CTAB
M  END
>  <Dataset>  (622) 
ChEMBL_Kinases

>  <Ligand_Instance>  (622) 
nan

>  <PDB_ID>  (622) 
nan

>  <Standardized_SMILES>  (622) 
Cn1cc(-c2ccc(-c3cncc(C(F)(F)F)c3N3CCC4(CCNC4=O)CC3)cc2)cn1

>  <Name>  (622) 
nan

>  <Pocket>  (622) 
nan

>  <ATP_Site>  (622) 
nan

>  <Peripheral>  (622) 
nan

>  <Num_H_Atoms_ProtBoundConf>  (622) 
nan

>  <Num_Resolved_Atoms>  (622) 
nan

>  <Num_Not_Resolved_Atoms>  (622) 
nan

$$$$
CHEMBL379700
     RDKit          3D

  0  0  0  0  0  0  0  0  0  0999 V3000
M  V30 BEGIN CTAB
M  V30 COUNTS 60 64 0 0 0
M  V30 BEGIN ATOM
M  V30 1 C 0.972894 4.836200 -2.670597 0
M  V30 2 C 1.006090 3.460405 -2.469949 0
M  V30 3 C 2.154696 2.938097 -1.955600 0
M  V30 4 C 3.250064 3.711429 -1.638490 0
M  V30 5 C 4.536629 3.312994 -1.082838 0
M  V30 6 N 5.643049 3.471687 -1.862337 0
M  V30 7 N 6.710935 3.053082 -1.181667 0
M  V30 8 C 6.319294 2.622283 0.033129 0
M  V30 9 C 4.941622 2.776356 0.122360 0
M  V30 10 C 3.993871 2.480477 1.190441 0
M  V30 11 C 4.185819 3.309274 2.302080 0
M  V30 12 C 3.332648 3.116173 3.395150 0
M  V30 13 N 2.362952 2.159663 3.363904 0
M  V30 14 C 2.198063 1.376488 2.286182 0
M  V30 15 C 1.140272 0.373512 2.321002 0
M  V30 16 C 0.370533 0.305306 3.488654 0
M  V30 17 C -0.645809 -0.634396 3.563276 0
M  V30 18 C -0.954388 -1.519001 2.551112 0
M  V30 19 O -1.985544 -2.438772 2.684578 0
M  V30 20 C -2.260796 -3.327917 1.609022 0
M  V30 21 C -3.393552 -4.253788 1.900565 0
M  V30 22 C -3.625732 -5.163724 0.734144 0
M  V30 23 C -4.788408 -6.106429 1.045029 0
M  V30 24 C -4.688974 -7.185066 -0.009833 0
M  V30 25 C -4.966089 -6.634775 -1.379281 0
M  V30 26 C -4.497694 -5.260606 -1.644582 0
M  V30 27 C -3.954679 -4.463826 -0.529200 0
M  V30 28 C -0.171127 -1.424754 1.405989 0
M  V30 29 C 0.860570 -0.495860 1.286919 0
M  V30 30 C 3.012358 1.531642 1.192546 0
M  V30 31 N 3.172194 5.050386 -1.851303 0
M  V30 32 C 2.067246 5.621974 -2.355669 0
M  V30 33 H 0.050680 5.244339 -3.081990 0
M  V30 34 H 0.184578 2.807060 -2.697186 0
M  V30 35 H 2.286727 1.903549 -1.765840 0
M  V30 36 H 7.729513 3.019335 -1.448233 0
M  V30 37 H 6.850098 2.207705 0.888424 0
M  V30 38 H 4.933757 4.088920 2.398986 0
M  V30 39 H 3.435003 3.734932 4.293610 0
M  V30 40 H 0.507445 0.939233 4.354676 0
M  V30 41 H -1.251586 -0.708059 4.447257 0
M  V30 42 H -2.522065 -2.728625 0.705213 0
M  V30 43 H -1.321227 -3.871413 1.397105 0
M  V30 44 H -4.357412 -3.698598 2.072111 0
M  V30 45 H -3.222799 -4.801290 2.845478 0
M  V30 46 H -2.759833 -5.836026 0.558873 0
M  V30 47 H -5.757887 -5.586822 0.876176 0
M  V30 48 H -4.703316 -6.536492 2.045650 0
M  V30 49 H -5.310860 -8.062144 0.231718 0
M  V30 50 H -3.637042 -7.534502 0.011289 0
M  V30 51 H -4.636369 -7.371851 -2.165764 0
M  V30 52 H -6.087531 -6.652064 -1.479382 0
M  V30 53 H -5.296609 -4.680286 -2.196673 0
M  V30 54 H -3.688525 -5.350617 -2.433302 0
M  V30 55 H -4.676727 -3.620625 -0.312108 0
M  V30 56 H -3.027115 -3.906814 -0.856192 0
M  V30 57 H -0.373632 -2.097711 0.582251 0
M  V30 58 H 1.448781 -0.451176 0.382465 0
M  V30 59 H 2.924761 0.935047 0.315048 0
M  V30 60 H 1.936860 6.671518 -2.549526 0
M  V30 END ATOM
M  V30 BEGIN BOND
M  V30 1 2 1 2
M  V30 2 1 2 3
M  V30 3 2 3 4
M  V30 4 1 4 5
M  V30 5 2 5 6
M  V30 6 1 6 7
M  V30 7 1 7 8
M  V30 8 2 8 9
M  V30 9 1 9 10
M  V30 10 2 10 11
M  V30 11 1 11 12
M  V30 12 2 12 13
M  V30 13 1 13 14
M  V30 14 1 14 15
M  V30 15 2 15 16
M  V30 16 1 16 17
M  V30 17 2 17 18
M  V30 18 1 18 19
M  V30 19 1 19 20
M  V30 20 1 20 21
M  V30 21 1 21 22
M  V30 22 1 22 23
M  V30 23 1 23 24
M  V30 24 1 24 25
M  V30 25 1 25 26
M  V30 26 1 26 27
M  V30 27 1 18 28
M  V30 28 2 28 29
M  V30 29 2 14 30
M  V30 30 1 4 31
M  V30 31 2 31 32
M  V30 32 1 32 1
M  V30 33 1 9 5
M  V30 34 1 30 10
M  V30 35 1 29 15
M  V30 36 1 27 22
M  V30 37 1 1 33
M  V30 38 1 2 34
M  V30 39 1 3 35
M  V30 40 1 7 36
M  V30 41 1 8 37
M  V30 42 1 11 38
M  V30 43 1 12 39
M  V30 44 1 16 40
M  V30 45 1 17 41
M  V30 46 1 20 42
M  V30 47 1 20 43
M  V30 48 1 21 44
M  V30 49 1 21 45
M  V30 50 1 22 46
M  V30 51 1 23 47
M  V30 52 1 23 48
M  V30 53 1 24 49
M  V30 54 1 24 50
M  V30 55 1 25 51
M  V30 56 1 25 52
M  V30 57 1 26 53
M  V30 58 1 26 54
M  V30 59 1 27 55
M  V30 60 1 27 56
M  V30 61 1 28 57
M  V30 62 1 29 58
M  V30 63 1 30 59
M  V30 64 1 32 60
M  V30 END BOND
M  V30 END CTAB
M  END
>  <Dataset>  (623) 
ChEMBL_Kinases

>  <Ligand_Instance>  (623) 
nan

>  <PDB_ID>  (623) 
nan

>  <Standardized_SMILES>  (623) 
c1ccc(-c2n[nH]cc2-c2ccnc(-c3ccc(OCCC4CCCCC4)cc3)c2)nc1

>  <Name>  (623) 
nan

>  <Pocket>  (623) 
nan

>  <ATP_Site>  (623) 
nan

>  <Peripheral>  (623) 
nan

>  <Num_H_Atoms_ProtBoundConf>  (623) 
nan

>  <Num_Resolved_Atoms>  (623) 
nan

>  <Num_Not_Resolved_Atoms>  (623) 
nan

$$$$
CHEMBL379592
     RDKit          3D

  0  0  0  0  0  0  0  0  0  0999 V3000
M  V30 BEGIN CTAB
M  V30 COUNTS 39 43 0 0 0
M  V30 BEGIN ATOM
M  V30 1 O -0.319871 2.116084 3.524236 0
M  V30 2 C -0.166087 0.884959 3.322979 0
M  V30 3 N -0.059007 -0.149594 4.323727 0
M  V30 4 C 0.106076 -1.390706 3.662102 0
M  V30 5 O 0.212354 -2.376272 4.400942 0
M  V30 6 C 0.110142 -1.195540 2.237917 0
M  V30 7 C -0.052481 0.155873 2.066361 0
M  V30 8 C -0.090301 0.707336 0.803414 0
M  V30 9 C -0.275599 2.093572 0.400996 0
M  V30 10 C -1.256565 2.984706 0.784986 0
M  V30 11 C -1.297079 4.267420 0.333330 0
M  V30 12 C -0.338629 4.731491 -0.543268 0
M  V30 13 C 0.674327 3.900055 -0.973680 0
M  V30 14 N 1.678625 4.345324 -1.877085 0 CHG=1 VAL=4
M  V30 15 O 1.623477 5.525596 -2.279979 0
M  V30 16 O 2.652371 3.469571 -2.261912 0 CHG=-1 VAL=1
M  V30 17 C 0.666575 2.610733 -0.483889 0
M  V30 18 C 0.041784 -0.140066 -0.304023 0
M  V30 19 C 0.205028 -1.497684 -0.115474 0
M  V30 20 N 0.354146 -2.529877 -0.996605 0
M  V30 21 C 0.473496 -3.644724 -0.250467 0
M  V30 22 C 0.644120 -4.930357 -0.737467 0
M  V30 23 C 0.754661 -5.998662 0.128097 0
M  V30 24 C 0.689915 -5.747913 1.502291 0
M  V30 25 O 0.799771 -6.813900 2.383967 0
M  V30 26 C 0.519066 -4.443707 1.905315 0
M  V30 27 C 0.404794 -3.355877 1.094390 0
M  V30 28 C 0.236628 -2.007362 1.162123 0
M  V30 29 H -0.112034 0.118170 5.351946 0
M  V30 30 H -1.993246 2.593572 1.459718 0
M  V30 31 H -2.111338 4.881720 0.699583 0
M  V30 32 H -0.374287 5.749096 -0.898987 0
M  V30 33 H 1.478832 1.982666 -0.843519 0
M  V30 34 H 0.027222 0.184196 -1.339901 0
M  V30 35 H 0.368721 -2.439842 -2.042808 0
M  V30 36 H 0.696902 -5.147891 -1.792152 0
M  V30 37 H 0.887389 -6.994761 -0.270467 0
M  V30 38 H 0.247886 -6.805089 3.249481 0
M  V30 39 H 0.479181 -4.333121 2.959895 0
M  V30 END ATOM
M  V30 BEGIN BOND
M  V30 1 2 1 2
M  V30 2 1 2 3
M  V30 3 1 3 4
M  V30 4 2 4 5
M  V30 5 1 4 6
M  V30 6 2 6 7
M  V30 7 1 7 8
M  V30 8 1 8 9
M  V30 9 2 9 10
M  V30 10 1 10 11
M  V30 11 2 11 12
M  V30 12 1 12 13
M  V30 13 1 13 14
M  V30 14 2 14 15
M  V30 15 1 14 16
M  V30 16 2 13 17
M  V30 17 2 8 18
M  V30 18 1 18 19
M  V30 19 1 19 20
M  V30 20 1 20 21
M  V30 21 2 21 22
M  V30 22 1 22 23
M  V30 23 2 23 24
M  V30 24 1 24 25
M  V30 25 1 24 26
M  V30 26 2 26 27
M  V30 27 1 27 28
M  V30 28 1 7 2
M  V30 29 1 17 9
M  V30 30 2 28 19
M  V30 31 1 28 6
M  V30 32 1 27 21
M  V30 33 1 3 29
M  V30 34 1 10 30
M  V30 35 1 11 31
M  V30 36 1 12 32
M  V30 37 1 17 33
M  V30 38 1 18 34
M  V30 39 1 20 35
M  V30 40 1 22 36
M  V30 41 1 23 37
M  V30 42 1 25 38
M  V30 43 1 26 39
M  V30 END BOND
M  V30 END CTAB
M  END
>  <Dataset>  (624) 
ChEMBL_Kinases

>  <Ligand_Instance>  (624) 
nan

>  <PDB_ID>  (624) 
nan

>  <Standardized_SMILES>  (624) 
O=C1NC(=O)c2c1c(-c1cccc([N+](=O)[O-])c1)cc1[nH]c3ccc(O)cc3c21

>  <Name>  (624) 
nan

>  <Pocket>  (624) 
nan

>  <ATP_Site>  (624) 
nan

>  <Peripheral>  (624) 
nan

>  <Num_H_Atoms_ProtBoundConf>  (624) 
nan

>  <Num_Resolved_Atoms>  (624) 
nan

>  <Num_Not_Resolved_Atoms>  (624) 
nan

$$$$
CHEMBL379733
     RDKit          3D

  0  0  0  0  0  0  0  0  0  0999 V3000
M  V30 BEGIN CTAB
M  V30 COUNTS 83 87 0 0 0
M  V30 BEGIN ATOM
M  V30 1 C 1.416407 -2.578210 9.888584 0
M  V30 2 O 0.827489 -3.334110 8.819764 0
M  V30 3 C 0.894564 -2.826761 7.527647 0
M  V30 4 C 0.313543 -3.594100 6.552909 0
M  V30 5 C 0.367551 -3.113920 5.269615 0
M  V30 6 C 0.946025 -1.938825 4.860642 0
M  V30 7 N 0.926306 -1.581701 3.488537 0
M  V30 8 C 1.491305 -0.387776 3.057390 0
M  V30 9 O 2.069833 0.718429 3.030833 0
M  V30 10 O 1.586856 0.154183 1.788740 0
M  V30 11 C 2.197292 1.376216 1.586280 0
M  V30 12 C 1.292148 2.443667 1.669630 0
M  V30 13 C -0.178016 2.274539 1.949571 0
M  V30 14 C 1.675910 3.756225 1.501335 0
M  V30 15 C 2.986148 4.087598 1.240486 0
M  V30 16 C 3.875403 3.031368 1.159520 0
M  V30 17 C 3.507260 1.718064 1.324367 0
M  V30 18 C 4.410095 0.540352 1.251941 0
M  V30 19 C 0.330874 -2.451495 2.541951 0
M  V30 20 C 1.143306 -3.450418 1.993947 0
M  V30 21 C 0.615522 -4.329016 1.078311 0
M  V30 22 N -0.678025 -4.261757 0.682530 0
M  V30 23 C -1.465988 -3.285254 1.219715 0
M  V30 24 N -2.838519 -2.968343 1.025560 0
M  V30 25 C -3.143055 -2.344239 -0.233325 0
M  V30 26 C -2.158908 -2.268376 -1.209745 0
M  V30 27 C -2.372142 -1.681503 -2.463754 0
M  V30 28 C -3.620591 -1.157343 -2.730478 0
M  V30 29 O -3.903279 -0.556330 -3.967263 0
M  V30 30 C -2.795796 -0.560766 -4.887568 0
M  V30 31 C -3.150452 0.094467 -6.175987 0
M  V30 32 N -2.041144 0.047035 -7.088960 0
M  V30 33 C -2.363737 0.745047 -8.280545 0
M  V30 34 C -1.149698 1.180467 -9.074360 0
M  V30 35 C -0.050050 0.174194 -8.798540 0
M  V30 36 C 0.373077 0.360054 -7.356881 0
M  V30 37 C -0.830849 0.361546 -6.430180 0
M  V30 38 C -4.632457 -1.219052 -1.763953 0
M  V30 39 C -4.374621 -1.807484 -0.543712 0
M  V30 40 N -0.945723 -2.437926 2.106575 0
M  V30 41 C 1.522631 -1.186555 5.861088 0
M  V30 42 O 2.128488 0.011528 5.542328 0
M  V30 43 C 2.752899 0.869244 6.476083 0
M  V30 44 C 1.500688 -1.616686 7.171164 0
M  V30 45 H 1.205693 -3.063113 10.862269 0
M  V30 46 H 2.512263 -2.553119 9.723277 0
M  V30 47 H 1.018883 -1.544132 9.839815 0
M  V30 48 H -0.190752 -4.560344 6.708966 0
M  V30 49 H -0.086412 -3.705238 4.478992 0
M  V30 50 H -0.486353 2.805209 2.873900 0
M  V30 51 H -0.700913 2.792579 1.122083 0
M  V30 52 H -0.475715 1.223947 1.929652 0
M  V30 53 H 0.994738 4.590963 1.562009 0
M  V30 54 H 3.323075 5.102118 1.104132 0
M  V30 55 H 4.938556 3.217342 0.954699 0
M  V30 56 H 5.341117 0.923187 0.737179 0
M  V30 57 H 4.762868 0.188964 2.243128 0
M  V30 58 H 4.016008 -0.253481 0.604086 0
M  V30 59 H 2.175079 -3.563930 2.264818 0
M  V30 60 H 1.151696 -5.144600 0.586895 0
M  V30 61 H -3.630834 -3.138186 1.686921 0
M  V30 62 H -1.151395 -2.666757 -1.048740 0
M  V30 63 H -1.568529 -1.653549 -3.182734 0
M  V30 64 H -2.508612 -1.620520 -5.012122 0
M  V30 65 H -1.986677 -0.031551 -4.332895 0
M  V30 66 H -3.959493 -0.513397 -6.644681 0
M  V30 67 H -3.483047 1.132836 -5.955577 0
M  V30 68 H -2.989431 0.106609 -8.928922 0
M  V30 69 H -2.957214 1.685719 -8.081871 0
M  V30 70 H -0.770713 2.168637 -8.707558 0
M  V30 71 H -1.394897 1.179273 -10.139152 0
M  V30 72 H 0.806510 0.400037 -9.464734 0
M  V30 73 H -0.377765 -0.873558 -8.956828 0
M  V30 74 H 0.835241 1.366991 -7.279671 0
M  V30 75 H 1.147101 -0.373931 -7.070031 0
M  V30 76 H -0.622123 -0.497354 -5.721619 0
M  V30 77 H -0.887951 1.262978 -5.797996 0
M  V30 78 H -5.632814 -0.818325 -1.928203 0
M  V30 79 H -5.140391 -1.867426 0.218667 0
M  V30 80 H 2.019814 1.581691 6.852355 0
M  V30 81 H 3.286957 0.311623 7.270662 0
M  V30 82 H 3.537091 1.422700 5.887131 0
M  V30 83 H 1.947227 -1.045834 7.989309 0
M  V30 END ATOM
M  V30 BEGIN BOND
M  V30 1 1 1 2
M  V30 2 1 2 3
M  V30 3 2 3 4
M  V30 4 1 4 5
M  V30 5 2 5 6
M  V30 6 1 6 7
M  V30 7 1 7 8
M  V30 8 2 8 9
M  V30 9 1 8 10
M  V30 10 1 10 11
M  V30 11 2 11 12
M  V30 12 1 12 13
M  V30 13 1 12 14
M  V30 14 2 14 15
M  V30 15 1 15 16
M  V30 16 2 16 17
M  V30 17 1 17 18
M  V30 18 1 7 19
M  V30 19 2 19 20
M  V30 20 1 20 21
M  V30 21 2 21 22
M  V30 22 1 22 23
M  V30 23 1 23 24
M  V30 24 1 24 25
M  V30 25 2 25 26
M  V30 26 1 26 27
M  V30 27 2 27 28
M  V30 28 1 28 29
M  V30 29 1 29 30
M  V30 30 1 30 31
M  V30 31 1 31 32
M  V30 32 1 32 33
M  V30 33 1 33 34
M  V30 34 1 34 35
M  V30 35 1 35 36
M  V30 36 1 36 37
M  V30 37 1 28 38
M  V30 38 2 38 39
M  V30 39 2 23 40
M  V30 40 1 6 41
M  V30 41 1 41 42
M  V30 42 1 42 43
M  V30 43 2 41 44
M  V30 44 1 44 3
M  V30 45 1 17 11
M  V30 46 1 40 19
M  V30 47 1 39 25
M  V30 48 1 37 32
M  V30 49 1 1 45
M  V30 50 1 1 46
M  V30 51 1 1 47
M  V30 52 1 4 48
M  V30 53 1 5 49
M  V30 54 1 13 50
M  V30 55 1 13 51
M  V30 56 1 13 52
M  V30 57 1 14 53
M  V30 58 1 15 54
M  V30 59 1 16 55
M  V30 60 1 18 56
M  V30 61 1 18 57
M  V30 62 1 18 58
M  V30 63 1 20 59
M  V30 64 1 21 60
M  V30 65 1 24 61
M  V30 66 1 26 62
M  V30 67 1 27 63
M  V30 68 1 30 64
M  V30 69 1 30 65
M  V30 70 1 31 66
M  V30 71 1 31 67
M  V30 72 1 33 68
M  V30 73 1 33 69
M  V30 74 1 34 70
M  V30 75 1 34 71
M  V30 76 1 35 72
M  V30 77 1 35 73
M  V30 78 1 36 74
M  V30 79 1 36 75
M  V30 80 1 37 76
M  V30 81 1 37 77
M  V30 82 1 38 78
M  V30 83 1 39 79
M  V30 84 1 43 80
M  V30 85 1 43 81
M  V30 86 1 43 82
M  V30 87 1 44 83
M  V30 END BOND
M  V30 END CTAB
M  END
>  <Dataset>  (625) 
ChEMBL_Kinases

>  <Ligand_Instance>  (625) 
nan

>  <PDB_ID>  (625) 
nan

>  <Standardized_SMILES>  (625) 
COc1ccc(N(C(=O)Oc2c(C)cccc2C)c2ccnc(Nc3ccc(OCCN4CCCCC4)cc3)n2)c(OC)c1

>  <Name>  (625) 
nan

>  <Pocket>  (625) 
nan

>  <ATP_Site>  (625) 
nan

>  <Peripheral>  (625) 
nan

>  <Num_H_Atoms_ProtBoundConf>  (625) 
nan

>  <Num_Resolved_Atoms>  (625) 
nan

>  <Num_Not_Resolved_Atoms>  (625) 
nan

$$$$
CHEMBL3702252
     RDKit          3D

  0  0  0  0  0  0  0  0  0  0999 V3000
M  V30 BEGIN CTAB
M  V30 COUNTS 48 50 0 0 0
M  V30 BEGIN ATOM
M  V30 1 C 0.937829 0.073834 -0.144240 0
M  V30 2 C 0.994793 1.216343 0.798200 0
M  V30 3 C 2.183962 1.874631 0.778277 0
M  V30 4 C 3.489821 1.872625 0.157987 0
M  V30 5 O 4.340682 2.768061 0.498104 0
M  V30 6 N 4.096357 1.058372 -0.804078 0
M  V30 7 S 5.731141 1.426261 -1.273746 0
M  V30 8 C 6.873792 0.551397 -0.205786 0
M  V30 9 O 5.995777 2.882066 -1.252031 0
M  V30 10 O 5.926610 0.844556 -2.664894 0
M  V30 11 S 2.008443 3.171863 1.939338 0
M  V30 12 C 0.263568 2.772593 2.439867 0
M  V30 13 N -0.644112 3.294552 3.305424 0
M  V30 14 C -1.856339 2.767757 3.445235 0
M  V30 15 N -2.081074 1.716389 2.680275 0
M  V30 16 C -1.247096 1.155576 1.818025 0
M  V30 17 N -1.827875 0.054230 1.186414 0
M  V30 18 C -1.802214 -1.216346 1.876308 0
M  V30 19 C -1.194016 -1.241344 3.128778 0
M  V30 20 C -1.092160 -2.376332 3.908731 0
M  V30 21 C -1.636142 -3.530732 3.381710 0
M  V30 22 F -1.609303 -4.717881 4.034247 0
M  V30 23 C -2.239022 -3.516554 2.145520 0
M  V30 24 C -2.350581 -2.397392 1.353944 0
M  V30 25 O -2.901088 -2.171268 0.118629 0
M  V30 26 C -3.514621 -3.196462 -0.610651 0
M  V30 27 C -4.971902 -2.869995 -0.916176 0
M  V30 28 F -5.651746 -2.703843 0.276906 0
M  V30 29 C -2.794606 -3.348568 -1.942461 0
M  V30 30 F -1.478056 -3.658667 -1.774396 0
M  V30 31 C 0.014721 1.659757 1.634551 0
M  V30 32 H 1.164632 0.413377 -1.199362 0
M  V30 33 H 1.750825 -0.665971 0.094016 0
M  V30 34 H 0.002776 -0.473168 -0.183163 0
M  V30 35 H 3.507855 0.279885 -1.169321 0
M  V30 36 H 6.909701 -0.520422 -0.423340 0
M  V30 37 H 7.877273 0.995660 -0.266218 0
M  V30 38 H 6.545562 0.738292 0.859328 0
M  V30 39 H -2.430111 3.313558 4.170852 0
M  V30 40 H -2.270597 0.116873 0.255983 0
M  V30 41 H -0.754689 -0.356051 3.578753 0
M  V30 42 H -0.619684 -2.385385 4.877026 0
M  V30 43 H -2.668877 -4.397357 1.712774 0
M  V30 44 H -3.480410 -4.144996 -0.077506 0
M  V30 45 H -5.071664 -1.954390 -1.534720 0
M  V30 46 H -5.421189 -3.705549 -1.486252 0
M  V30 47 H -2.936216 -2.453506 -2.556401 0
M  V30 48 H -3.326705 -4.183540 -2.475737 0
M  V30 END ATOM
M  V30 BEGIN BOND
M  V30 1 1 1 2
M  V30 2 2 2 3
M  V30 3 1 3 4
M  V30 4 2 4 5
M  V30 5 1 4 6
M  V30 6 1 6 7
M  V30 7 1 7 8
M  V30 8 2 7 9
M  V30 9 2 7 10
M  V30 10 1 3 11
M  V30 11 1 11 12
M  V30 12 2 12 13
M  V30 13 1 13 14
M  V30 14 2 14 15
M  V30 15 1 15 16
M  V30 16 1 16 17
M  V30 17 1 17 18
M  V30 18 2 18 19
M  V30 19 1 19 20
M  V30 20 2 20 21
M  V30 21 1 21 22
M  V30 22 1 21 23
M  V30 23 2 23 24
M  V30 24 1 24 25
M  V30 25 1 25 26
M  V30 26 1 26 27
M  V30 27 1 27 28
M  V30 28 1 26 29
M  V30 29 1 29 30
M  V30 30 2 16 31
M  V30 31 1 31 2
M  V30 32 1 31 12
M  V30 33 1 24 18
M  V30 34 1 1 32
M  V30 35 1 1 33
M  V30 36 1 1 34
M  V30 37 1 6 35
M  V30 38 1 8 36
M  V30 39 1 8 37
M  V30 40 1 8 38
M  V30 41 1 14 39
M  V30 42 1 17 40
M  V30 43 1 19 41
M  V30 44 1 20 42
M  V30 45 1 23 43
M  V30 46 1 26 44
M  V30 47 1 27 45
M  V30 48 1 27 46
M  V30 49 1 29 47
M  V30 50 1 29 48
M  V30 END BOND
M  V30 END CTAB
M  END
>  <Dataset>  (626) 
ChEMBL_Kinases

>  <Ligand_Instance>  (626) 
nan

>  <PDB_ID>  (626) 
nan

>  <Standardized_SMILES>  (626) 
Cc1c(C(=O)NS(C)(=O)=O)sc2ncnc(Nc3ccc(F)cc3OC(CF)CF)c12

>  <Name>  (626) 
nan

>  <Pocket>  (626) 
nan

>  <ATP_Site>  (626) 
nan

>  <Peripheral>  (626) 
nan

>  <Num_H_Atoms_ProtBoundConf>  (626) 
nan

>  <Num_Resolved_Atoms>  (626) 
nan

>  <Num_Not_Resolved_Atoms>  (626) 
nan

$$$$
CHEMBL3797696
     RDKit          3D

  0  0  0  0  0  0  0  0  0  0999 V3000
M  V30 BEGIN CTAB
M  V30 COUNTS 41 44 0 0 0
M  V30 BEGIN ATOM
M  V30 1 O 1.610732 -1.583647 0.137230 0
M  V30 2 C 1.933978 -0.585450 0.851100 0
M  V30 3 N 3.232208 -0.118863 0.629380 0
M  V30 4 C 4.313910 -0.518981 -0.242720 0
M  V30 5 C 3.861218 -0.411404 -1.653980 0
M  V30 6 C 3.783059 0.925681 -2.037786 0
M  V30 7 Cl 4.151729 2.317424 -1.009303 0
M  V30 8 C 3.389579 1.290264 -3.324259 0
M  V30 9 C 3.077737 0.280886 -4.211309 0
M  V30 10 C 3.151501 -1.046432 -3.843558 0
M  V30 11 C 3.540319 -1.385183 -2.575439 0
M  V30 12 Cl 3.700012 -3.016602 -1.977541 0
M  V30 13 C 0.988679 -0.019378 1.802931 0
M  V30 14 C 1.240220 1.066399 2.609480 0
M  V30 15 C 0.351183 1.609086 3.514788 0
M  V30 16 C -0.881564 0.994775 3.597853 0
M  V30 17 N -1.955059 1.281160 4.372752 0
M  V30 18 N -2.903180 0.396535 4.082079 0
M  V30 19 C -2.454058 -0.454341 3.131161 0
M  V30 20 C -3.293926 -1.529058 2.622609 0
M  V30 21 C -3.993480 -2.244948 3.600202 0
M  V30 22 C -4.838132 -3.301114 3.275143 0
M  V30 23 N -5.001878 -3.662648 1.981233 0
M  V30 24 C -4.327581 -2.975712 1.015912 0
M  V30 25 C -3.486898 -1.926943 1.320242 0
M  V30 26 C -1.166730 -0.094913 2.804322 0
M  V30 27 C -0.264860 -0.636541 1.893525 0
M  V30 28 H 3.456055 0.719173 1.250738 0
M  V30 29 H 4.577008 -1.573343 0.003062 0
M  V30 30 H 5.222602 0.066210 -0.050164 0
M  V30 31 H 3.313330 2.312177 -3.672038 0
M  V30 32 H 2.760338 0.490358 -5.239847 0
M  V30 33 H 2.923718 -1.889418 -4.480201 0
M  V30 34 H 2.199294 1.559169 2.557670 0
M  V30 35 H 0.605092 2.453684 4.114425 0
M  V30 36 H -2.051240 2.051420 5.080348 0
M  V30 37 H -3.904159 -2.004229 4.650223 0
M  V30 38 H -5.363447 -3.827318 4.086416 0
M  V30 39 H -4.457594 -3.263268 -0.015196 0
M  V30 40 H -2.931659 -1.353154 0.596852 0
M  V30 41 H -0.555221 -1.487566 1.306744 0
M  V30 END ATOM
M  V30 BEGIN BOND
M  V30 1 2 1 2
M  V30 2 1 2 3
M  V30 3 1 3 4
M  V30 4 1 4 5
M  V30 5 2 5 6
M  V30 6 1 6 7
M  V30 7 1 6 8
M  V30 8 2 8 9
M  V30 9 1 9 10
M  V30 10 2 10 11
M  V30 11 1 11 12
M  V30 12 1 2 13
M  V30 13 2 13 14
M  V30 14 1 14 15
M  V30 15 2 15 16
M  V30 16 1 16 17
M  V30 17 1 17 18
M  V30 18 2 18 19
M  V30 19 1 19 20
M  V30 20 2 20 21
M  V30 21 1 21 22
M  V30 22 2 22 23
M  V30 23 1 23 24
M  V30 24 2 24 25
M  V30 25 1 19 26
M  V30 26 2 26 27
M  V30 27 1 11 5
M  V30 28 1 27 13
M  V30 29 1 26 16
M  V30 30 1 25 20
M  V30 31 1 3 28
M  V30 32 1 4 29
M  V30 33 1 4 30
M  V30 34 1 8 31
M  V30 35 1 9 32
M  V30 36 1 10 33
M  V30 37 1 14 34
M  V30 38 1 15 35
M  V30 39 1 17 36
M  V30 40 1 21 37
M  V30 41 1 22 38
M  V30 42 1 24 39
M  V30 43 1 25 40
M  V30 44 1 27 41
M  V30 END BOND
M  V30 END CTAB
M  END
>  <Dataset>  (627) 
ChEMBL_Kinases

>  <Ligand_Instance>  (627) 
nan

>  <PDB_ID>  (627) 
nan

>  <Standardized_SMILES>  (627) 
O=C(NCc1c(Cl)cccc1Cl)c1ccc2[nH]nc(-c3ccncc3)c2c1

>  <Name>  (627) 
nan

>  <Pocket>  (627) 
nan

>  <ATP_Site>  (627) 
nan

>  <Peripheral>  (627) 
nan

>  <Num_H_Atoms_ProtBoundConf>  (627) 
nan

>  <Num_Resolved_Atoms>  (627) 
nan

>  <Num_Not_Resolved_Atoms>  (627) 
nan

$$$$
CHEMBL5071544
     RDKit          3D

  0  0  0  0  0  0  0  0  0  0999 V3000
M  V30 BEGIN CTAB
M  V30 COUNTS 58 62 0 0 0
M  V30 BEGIN ATOM
M  V30 1 C 4.061712 -5.898894 0.624680 0
M  V30 2 C 4.363475 -4.585115 1.252426 0
M  V30 3 N 5.484461 -4.130503 1.841673 0
M  V30 4 N 5.315457 -2.881527 2.271615 0
M  V30 5 C 4.069761 -2.437583 1.990539 0
M  V30 6 N 3.383414 -1.297725 2.188194 0
M  V30 7 C 2.109857 -1.185392 1.766356 0
M  V30 8 C 1.344610 0.040806 1.969148 0
M  V30 9 C 1.900538 1.132905 2.602714 0
M  V30 10 C 1.169457 2.304455 2.796518 0
M  V30 11 C -0.133458 2.390744 2.353627 0
M  V30 12 N -0.706586 3.659276 2.643100 0
M  V30 13 S -1.614555 4.476685 1.421320 0
M  V30 14 O -0.698081 4.554827 0.208744 0
M  V30 15 O -2.001628 5.847411 1.837946 0
M  V30 16 C -3.019668 3.576642 0.914264 0
M  V30 17 C -3.288432 3.119565 -0.378173 0
M  V30 18 C -4.447340 2.416709 -0.632754 0
M  V30 19 Cl -4.693744 1.882987 -2.298604 0
M  V30 20 C -5.354492 2.154983 0.377755 0
M  V30 21 C -5.099669 2.602698 1.663330 0
M  V30 22 C -3.932934 3.311431 1.924368 0
M  V30 23 F -3.796379 3.694257 3.212655 0
M  V30 24 C -0.699544 1.307830 1.719971 0
M  V30 25 C 0.031794 0.153906 1.533196 0
M  V30 26 N 1.530030 -2.221401 1.146227 0
M  V30 27 C 2.184362 -3.398173 0.922321 0
M  V30 28 O 1.469158 -4.365723 0.279603 0
M  V30 29 C 0.145599 -4.263388 -0.164466 0
M  V30 30 C -0.121748 -3.184329 -1.159214 0
M  V30 31 C -1.558159 -3.268159 -1.576482 0
M  V30 32 N -1.837659 -2.663455 -2.849692 0
M  V30 33 C -0.807251 -1.812127 -3.361112 0
M  V30 34 C 0.591354 -2.306156 -3.144949 0
M  V30 35 O 0.666248 -3.401683 -2.308654 0
M  V30 36 C 3.491819 -3.519330 1.353089 0
M  V30 37 H 4.972929 -6.381748 0.209753 0
M  V30 38 H 3.551208 -6.540441 1.387565 0
M  V30 39 H 3.313865 -5.773778 -0.193384 0
M  V30 40 H 6.033383 -2.295372 2.765162 0
M  V30 41 H 2.935905 1.013462 2.934625 0
M  V30 42 H 1.730568 3.078891 3.306875 0
M  V30 43 H -0.598072 4.118077 3.573656 0
M  V30 44 H -2.510430 3.380862 -1.090369 0
M  V30 45 H -6.259229 1.596958 0.139925 0
M  V30 46 H -5.847697 2.371119 2.430491 0
M  V30 47 H -1.716055 1.468424 1.411365 0
M  V30 48 H -0.461638 -0.665512 1.029887 0
M  V30 49 H -0.270371 -5.210040 -0.530718 0
M  V30 50 H -0.460789 -4.012101 0.755444 0
M  V30 51 H 0.082255 -2.164034 -0.769644 0
M  V30 52 H -1.842459 -4.338915 -1.640692 0
M  V30 53 H -2.159242 -2.853711 -0.746051 0
M  V30 54 H -2.695099 -2.057004 -2.711015 0
M  V30 55 H -0.943036 -0.755307 -3.039314 0
M  V30 56 H -0.958840 -1.771642 -4.479558 0
M  V30 57 H 1.122439 -2.571363 -4.089784 0
M  V30 58 H 1.223233 -1.482128 -2.708230 0
M  V30 END ATOM
M  V30 BEGIN BOND
M  V30 1 1 1 2
M  V30 2 2 2 3
M  V30 3 1 3 4
M  V30 4 1 4 5
M  V30 5 2 5 6
M  V30 6 1 6 7
M  V30 7 1 7 8
M  V30 8 2 8 9
M  V30 9 1 9 10
M  V30 10 2 10 11
M  V30 11 1 11 12
M  V30 12 1 12 13
M  V30 13 2 13 14
M  V30 14 2 13 15
M  V30 15 1 13 16
M  V30 16 2 16 17
M  V30 17 1 17 18
M  V30 18 1 18 19
M  V30 19 2 18 20
M  V30 20 1 20 21
M  V30 21 2 21 22
M  V30 22 1 22 23
M  V30 23 1 11 24
M  V30 24 2 24 25
M  V30 25 2 7 26
M  V30 26 1 26 27
M  V30 27 1 27 28
M  V30 28 1 28 29
M  V30 29 1 29 30
M  V30 30 1 30 31
M  V30 31 1 31 32
M  V30 32 1 32 33
M  V30 33 1 33 34
M  V30 34 1 34 35
M  V30 35 2 27 36
M  V30 36 1 36 2
M  V30 37 1 36 5
M  V30 38 1 25 8
M  V30 39 1 35 30
M  V30 40 1 22 16
M  V30 41 1 1 37
M  V30 42 1 1 38
M  V30 43 1 1 39
M  V30 44 1 4 40
M  V30 45 1 9 41
M  V30 46 1 10 42
M  V30 47 1 12 43
M  V30 48 1 17 44
M  V30 49 1 20 45
M  V30 50 1 21 46
M  V30 51 1 24 47
M  V30 52 1 25 48
M  V30 53 1 29 49
M  V30 54 1 29 50
M  V30 55 1 30 51
M  V30 56 1 31 52
M  V30 57 1 31 53
M  V30 58 1 32 54
M  V30 59 1 33 55
M  V30 60 1 33 56
M  V30 61 1 34 57
M  V30 62 1 34 58
M  V30 END BOND
M  V30 END CTAB
M  END
>  <Dataset>  (628) 
ChEMBL_Kinases

>  <Ligand_Instance>  (628) 
nan

>  <PDB_ID>  (628) 
nan

>  <Standardized_SMILES>  (628) 
Cc1n[nH]c2nc(-c3ccc(NS(=O)(=O)c4cc(Cl)ccc4F)cc3)nc(OCC3CNCCO3)c12

>  <Name>  (628) 
nan

>  <Pocket>  (628) 
nan

>  <ATP_Site>  (628) 
nan

>  <Peripheral>  (628) 
nan

>  <Num_H_Atoms_ProtBoundConf>  (628) 
nan

>  <Num_Resolved_Atoms>  (628) 
nan

>  <Num_Not_Resolved_Atoms>  (628) 
nan

$$$$
CHEMBL3797689
     RDKit          3D

  0  0  0  0  0  0  0  0  0  0999 V3000
M  V30 BEGIN CTAB
M  V30 COUNTS 65 69 0 0 0
M  V30 BEGIN ATOM
M  V30 1 C 3.880660 -0.295320 4.514754 0
M  V30 2 O 3.793558 0.649190 3.509655 0
M  V30 3 C 3.147532 0.084177 2.382922 0
M  V30 4 C 3.097198 1.180538 1.365754 0
M  V30 5 N 2.503879 0.921496 0.137722 0
M  V30 6 C 3.203424 -0.015886 -0.666571 0
M  V30 7 C 2.258239 -1.198077 -0.850736 0
M  V30 8 C 0.908538 -0.583661 -0.579764 0
M  V30 9 C 1.129781 0.829935 -0.070177 0
M  V30 10 C 0.816423 1.842793 -1.182794 0
M  V30 11 C -0.606055 1.861928 -1.609520 0
M  V30 12 N -1.452600 2.008861 -0.445421 0
M  V30 13 C -2.840820 2.018242 -0.101522 0
M  V30 14 C -3.289688 3.338946 -0.195809 0
M  V30 15 Cl -2.385063 4.760357 -0.692025 0
M  V30 16 C -4.611818 3.655710 0.127697 0
M  V30 17 N -5.434949 2.668641 0.527944 0
M  V30 18 C -5.023253 1.395400 0.623851 0
M  V30 19 C -3.729243 1.053188 0.312353 0
M  V30 20 C -3.179284 -0.287029 0.337234 0
M  V30 21 C -3.070076 -1.167189 1.389211 0
M  V30 22 C -2.551402 -2.430643 1.220384 0
M  V30 23 C -2.110215 -2.898569 0.002930 0
M  V30 24 C -1.544727 -4.199917 -0.296454 0
M  V30 25 C -1.648990 -4.893460 -1.477625 0
M  V30 26 N -0.964549 -6.061381 -1.302435 0
M  V30 27 N -0.462411 -6.090136 -0.076674 0
M  V30 28 C 0.316846 -7.202164 0.415942 0
M  V30 29 C -0.787661 -4.962846 0.598696 0
M  V30 30 C -2.211562 -2.022301 -1.079922 0
M  V30 31 C -2.735822 -0.744230 -0.911233 0
M  V30 32 C -0.691241 2.231121 0.769685 0
M  V30 33 C 0.235374 1.053123 1.088487 0
M  V30 34 H 2.827844 -0.591279 4.762780 0
M  V30 35 H 4.374563 0.151302 5.395123 0
M  V30 36 H 4.454003 -1.142279 4.113117 0
M  V30 37 H 3.821445 -0.749881 2.080056 0
M  V30 38 H 2.207081 -0.324459 2.727545 0
M  V30 39 H 2.760087 2.102823 1.889532 0
M  V30 40 H 4.187025 1.413723 1.155207 0
M  V30 41 H 4.172133 -0.326170 -0.247128 0
M  V30 42 H 3.404711 0.405170 -1.664878 0
M  V30 43 H 2.527560 -1.927979 -0.055882 0
M  V30 44 H 2.262162 -1.619231 -1.854098 0
M  V30 45 H 0.256361 -0.596282 -1.477759 0
M  V30 46 H 0.419890 -1.178439 0.213797 0
M  V30 47 H 1.191843 2.812461 -0.835593 0
M  V30 48 H 1.412952 1.504955 -2.071421 0
M  V30 49 H -0.787408 0.969368 -2.215638 0
M  V30 50 H -0.737920 2.803206 -2.221556 0
M  V30 51 H -5.062204 4.635278 0.090968 0
M  V30 52 H -5.618379 0.532769 0.939404 0
M  V30 53 H -3.416078 -0.788275 2.326171 0
M  V30 54 H -2.469356 -3.116313 2.050845 0
M  V30 55 H -2.163858 -4.601235 -2.384178 0
M  V30 56 H 0.933271 -7.584961 -0.404938 0
M  V30 57 H 0.999968 -6.864448 1.223392 0
M  V30 58 H -0.336622 -7.984039 0.871718 0
M  V30 59 H -0.521579 -4.696046 1.625495 0
M  V30 60 H -1.876773 -2.330735 -2.082091 0
M  V30 61 H -2.792131 -0.136335 -1.793555 0
M  V30 62 H -0.065189 3.169356 0.673668 0
M  V30 63 H -1.288075 2.389641 1.675046 0
M  V30 64 H 0.735989 1.363269 2.025222 0
M  V30 65 H -0.454402 0.196425 1.287878 0
M  V30 END ATOM
M  V30 BEGIN BOND
M  V30 1 1 1 2
M  V30 2 1 2 3
M  V30 3 1 3 4
M  V30 4 1 4 5
M  V30 5 1 5 6
M  V30 6 1 6 7
M  V30 7 1 7 8
M  V30 8 1 8 9
M  V30 9 1 9 10
M  V30 10 1 10 11
M  V30 11 1 11 12
M  V30 12 1 12 13
M  V30 13 2 13 14
M  V30 14 1 14 15
M  V30 15 1 14 16
M  V30 16 2 16 17
M  V30 17 1 17 18
M  V30 18 2 18 19
M  V30 19 1 19 20
M  V30 20 2 20 21
M  V30 21 1 21 22
M  V30 22 2 22 23
M  V30 23 1 23 24
M  V30 24 1 24 25
M  V30 25 2 25 26
M  V30 26 1 26 27
M  V30 27 1 27 28
M  V30 28 1 27 29
M  V30 29 1 23 30
M  V30 30 2 30 31
M  V30 31 1 12 32
M  V30 32 1 32 33
M  V30 33 1 9 5
M  V30 34 1 19 13
M  V30 35 1 31 20
M  V30 36 1 33 9
M  V30 37 2 29 24
M  V30 38 1 1 34
M  V30 39 1 1 35
M  V30 40 1 1 36
M  V30 41 1 3 37
M  V30 42 1 3 38
M  V30 43 1 4 39
M  V30 44 1 4 40
M  V30 45 1 6 41
M  V30 46 1 6 42
M  V30 47 1 7 43
M  V30 48 1 7 44
M  V30 49 1 8 45
M  V30 50 1 8 46
M  V30 51 1 10 47
M  V30 52 1 10 48
M  V30 53 1 11 49
M  V30 54 1 11 50
M  V30 55 1 16 51
M  V30 56 1 18 52
M  V30 57 1 21 53
M  V30 58 1 22 54
M  V30 59 1 25 55
M  V30 60 1 28 56
M  V30 61 1 28 57
M  V30 62 1 28 58
M  V30 63 1 29 59
M  V30 64 1 30 60
M  V30 65 1 31 61
M  V30 66 1 32 62
M  V30 67 1 32 63
M  V30 68 1 33 64
M  V30 69 1 33 65
M  V30 END BOND
M  V30 END CTAB
M  END
>  <Dataset>  (629) 
ChEMBL_Kinases

>  <Ligand_Instance>  (629) 
nan

>  <PDB_ID>  (629) 
nan

>  <Standardized_SMILES>  (629) 
COCCN1CCCC12CCN(c1c(Cl)cncc1-c1ccc(-c3cnn(C)c3)cc1)CC2

>  <Name>  (629) 
nan

>  <Pocket>  (629) 
nan

>  <ATP_Site>  (629) 
nan

>  <Peripheral>  (629) 
nan

>  <Num_H_Atoms_ProtBoundConf>  (629) 
nan

>  <Num_Resolved_Atoms>  (629) 
nan

>  <Num_Not_Resolved_Atoms>  (629) 
nan

$$$$
CHEMBL3797667
     RDKit          3D

  0  0  0  0  0  0  0  0  0  0999 V3000
M  V30 BEGIN CTAB
M  V30 COUNTS 44 47 0 0 0
M  V30 BEGIN ATOM
M  V30 1 C -2.336449 -2.343975 2.819506 0
M  V30 2 C -1.827756 -2.627890 1.447132 0 CFG=1
M  V30 3 N -1.216071 -1.429300 0.912284 0
M  V30 4 C -1.664575 -0.744800 -0.249592 0
M  V30 5 O -2.659958 -1.184359 -0.881130 0
M  V30 6 C -1.028280 0.461302 -0.765501 0
M  V30 7 C -1.545598 1.036976 -1.892943 0
M  V30 8 C -0.983857 2.190871 -2.437010 0
M  V30 9 C 0.113946 2.803793 -1.868010 0
M  V30 10 N 0.903864 3.871941 -2.081975 0
M  V30 11 N 1.833406 3.932970 -1.144996 0
M  V30 12 C 1.698468 2.914335 -0.277282 0
M  V30 13 C 2.600159 2.744580 0.859179 0
M  V30 14 C 3.179005 1.556364 1.256578 0
M  V30 15 C 4.012024 1.561061 2.356166 0
M  V30 16 N 4.295648 2.665624 3.069987 0
M  V30 17 C 3.763330 3.855398 2.734404 0
M  V30 18 C 2.934092 3.848767 1.639206 0
M  V30 19 C 0.611971 2.186498 -0.719902 0
M  V30 20 C 0.069550 1.044438 -0.166862 0
M  V30 21 C -0.846177 -3.736981 1.405916 0
M  V30 22 C 0.463579 -3.585073 1.807891 0
M  V30 23 C 1.344799 -4.657457 1.749400 0
M  V30 24 C 0.970660 -5.899922 1.298773 0
M  V30 25 C -0.353181 -6.082962 0.884214 0
M  V30 26 Cl -0.917575 -7.634910 0.294708 0
M  V30 27 C -1.198008 -4.982399 0.960584 0
M  V30 28 H -3.341588 -2.809739 3.003761 0
M  V30 29 H -2.522513 -1.253269 2.905885 0
M  V30 30 H -1.635899 -2.617562 3.628270 0
M  V30 31 H -2.700231 -2.917049 0.797965 0
M  V30 32 H -0.405804 -1.079578 1.434438 0
M  V30 33 H -2.404869 0.640759 -2.421335 0
M  V30 34 H -1.378791 2.669060 -3.336186 0
M  V30 35 H 0.668893 4.456005 -2.914734 0
M  V30 36 H 2.940838 0.678018 0.672303 0
M  V30 37 H 4.461092 0.619149 2.658290 0
M  V30 38 H 3.937423 4.798116 3.254025 0
M  V30 39 H 2.484608 4.808583 1.342026 0
M  V30 40 H 0.496306 0.607091 0.725887 0
M  V30 41 H 0.772515 -2.606975 2.166584 0
M  V30 42 H 2.377605 -4.543694 2.064698 0
M  V30 43 H 1.649360 -6.742013 1.249205 0
M  V30 44 H -2.218078 -5.142610 0.635780 0
M  V30 END ATOM
M  V30 BEGIN BOND
M  V30 1 1 1 2
M  V30 2 1 2 3
M  V30 3 1 3 4
M  V30 4 2 4 5
M  V30 5 1 4 6
M  V30 6 2 6 7
M  V30 7 1 7 8
M  V30 8 2 8 9
M  V30 9 1 9 10
M  V30 10 1 10 11
M  V30 11 2 11 12
M  V30 12 1 12 13
M  V30 13 2 13 14
M  V30 14 1 14 15
M  V30 15 2 15 16
M  V30 16 1 16 17
M  V30 17 2 17 18
M  V30 18 1 12 19
M  V30 19 2 19 20
M  V30 20 1 2 21
M  V30 21 2 21 22
M  V30 22 1 22 23
M  V30 23 2 23 24
M  V30 24 1 24 25
M  V30 25 1 25 26
M  V30 26 2 25 27
M  V30 27 1 20 6
M  V30 28 1 27 21
M  V30 29 1 19 9
M  V30 30 1 18 13
M  V30 31 1 1 28
M  V30 32 1 1 29
M  V30 33 1 1 30
M  V30 34 1 2 31 CFG=3
M  V30 35 1 3 32
M  V30 36 1 7 33
M  V30 37 1 8 34
M  V30 38 1 10 35
M  V30 39 1 14 36
M  V30 40 1 15 37
M  V30 41 1 17 38
M  V30 42 1 18 39
M  V30 43 1 20 40
M  V30 44 1 22 41
M  V30 45 1 23 42
M  V30 46 1 24 43
M  V30 47 1 27 44
M  V30 END BOND
M  V30 END CTAB
M  END
>  <Dataset>  (630) 
ChEMBL_Kinases

>  <Ligand_Instance>  (630) 
nan

>  <PDB_ID>  (630) 
nan

>  <Standardized_SMILES>  (630) 
C[C@@H](NC(=O)c1ccc2[nH]nc(-c3ccncc3)c2c1)c1cccc(Cl)c1

>  <Name>  (630) 
nan

>  <Pocket>  (630) 
nan

>  <ATP_Site>  (630) 
nan

>  <Peripheral>  (630) 
nan

>  <Num_H_Atoms_ProtBoundConf>  (630) 
nan

>  <Num_Resolved_Atoms>  (630) 
nan

>  <Num_Not_Resolved_Atoms>  (630) 
nan

$$$$
CHEMBL3797656
     RDKit          3D

  0  0  0  0  0  0  0  0  0  0999 V3000
M  V30 BEGIN CTAB
M  V30 COUNTS 53 57 0 0 0
M  V30 BEGIN ATOM
M  V30 1 C -2.251528 -2.889333 6.132398 0
M  V30 2 N -1.607723 -3.000931 4.842312 0
M  V30 3 C -0.919213 -1.998084 4.106791 0
M  V30 4 C -0.955618 -0.628723 4.272790 0
M  V30 5 C -0.227515 0.268117 3.479485 0
M  V30 6 C 0.583757 -0.257079 2.459443 0
M  V30 7 C 1.258233 0.824228 1.758212 0
M  V30 8 C 1.921189 1.811498 2.458234 0
M  V30 9 N 2.554365 2.815975 1.825558 0
M  V30 10 C 2.594813 2.941562 0.487142 0
M  V30 11 N 3.295628 4.046756 -0.080880 0
M  V30 12 C 1.949626 1.984517 -0.271265 0
M  V30 13 F 1.984910 2.102187 -1.608659 0
M  V30 14 C 1.303281 0.958630 0.388494 0
M  V30 15 N 0.665976 0.026868 -0.477604 0
M  V30 16 C 0.859962 -1.221226 -1.230874 0
M  V30 17 C 0.620212 -0.927989 -2.697143 0
M  V30 18 C -0.854965 -0.740432 -2.853777 0
M  V30 19 C -1.528250 -0.291434 -1.584202 0
M  V30 20 C -0.680851 0.523165 -0.670759 0
M  V30 21 C -1.133779 0.141884 -4.040268 0
M  V30 22 N -0.966146 -0.803630 -5.153547 0
M  V30 23 C -1.207574 -2.116532 -4.616693 0
M  V30 24 O -1.256058 -3.295167 -5.106445 0
M  V30 25 O -1.427992 -1.972841 -3.249601 0
M  V30 26 C 0.602500 -1.614414 2.316249 0
M  V30 27 C -0.124814 -2.473628 3.111756 0
M  V30 28 C -0.070873 -3.958667 2.916942 0
M  V30 29 S -1.513695 -4.431996 3.842154 0
M  V30 30 O -2.758630 -4.437635 3.016138 0
M  V30 31 O -1.319645 -5.658605 4.657509 0
M  V30 32 H -2.567161 -3.915396 6.448546 0
M  V30 33 H -3.153942 -2.250451 5.971403 0
M  V30 34 H -1.605474 -2.412059 6.900074 0
M  V30 35 H -1.592294 -0.221560 5.073802 0
M  V30 36 H -0.359498 1.332595 3.732900 0
M  V30 37 H 1.966905 1.830734 3.539841 0
M  V30 38 H 4.299602 4.045406 -0.331891 0
M  V30 39 H 2.758030 4.942977 -0.264532 0
M  V30 40 H 1.812685 -1.699526 -1.027248 0
M  V30 41 H 0.063543 -1.909017 -0.894806 0
M  V30 42 H 0.925849 -1.827492 -3.265969 0
M  V30 43 H 1.195363 -0.056946 -3.056961 0
M  V30 44 H -2.384481 0.358797 -1.898625 0
M  V30 45 H -2.003312 -1.147398 -1.066252 0
M  V30 46 H -1.178756 0.472082 0.342102 0
M  V30 47 H -0.731485 1.583167 -0.975664 0
M  V30 48 H -2.137474 0.571965 -4.073061 0
M  V30 49 H -0.326968 0.903144 -4.178589 0
M  V30 50 H -0.735296 -0.829499 -6.178297 0
M  V30 51 H 1.255249 -1.904737 1.517378 0
M  V30 52 H -0.124401 -4.253811 1.872761 0
M  V30 53 H 0.819797 -4.353994 3.450801 0
M  V30 END ATOM
M  V30 BEGIN BOND
M  V30 1 1 1 2
M  V30 2 1 2 3
M  V30 3 2 3 4
M  V30 4 1 4 5
M  V30 5 2 5 6
M  V30 6 1 6 7
M  V30 7 2 7 8
M  V30 8 1 8 9
M  V30 9 2 9 10
M  V30 10 1 10 11
M  V30 11 1 10 12
M  V30 12 1 12 13
M  V30 13 2 12 14
M  V30 14 1 14 15
M  V30 15 1 15 16
M  V30 16 1 16 17
M  V30 17 1 17 18
M  V30 18 1 18 19
M  V30 19 1 19 20
M  V30 20 1 18 21
M  V30 21 1 21 22
M  V30 22 1 22 23
M  V30 23 2 23 24
M  V30 24 1 23 25
M  V30 25 1 6 26
M  V30 26 2 26 27
M  V30 27 1 27 28
M  V30 28 1 28 29
M  V30 29 2 29 30
M  V30 30 2 29 31
M  V30 31 1 29 2
M  V30 32 1 27 3
M  V30 33 1 14 7
M  V30 34 1 20 15
M  V30 35 1 25 18
M  V30 36 1 1 32
M  V30 37 1 1 33
M  V30 38 1 1 34
M  V30 39 1 4 35
M  V30 40 1 5 36
M  V30 41 1 8 37
M  V30 42 1 11 38
M  V30 43 1 11 39
M  V30 44 1 16 40
M  V30 45 1 16 41
M  V30 46 1 17 42
M  V30 47 1 17 43
M  V30 48 1 19 44
M  V30 49 1 19 45
M  V30 50 1 20 46
M  V30 51 1 20 47
M  V30 52 1 21 48
M  V30 53 1 21 49
M  V30 54 1 22 50
M  V30 55 1 26 51
M  V30 56 1 28 52
M  V30 57 1 28 53
M  V30 END BOND
M  V30 END CTAB
M  END
>  <Dataset>  (631) 
ChEMBL_Kinases

>  <Ligand_Instance>  (631) 
nan

>  <PDB_ID>  (631) 
nan

>  <Standardized_SMILES>  (631) 
CN1c2ccc(-c3cnc(N)c(F)c3N3CCC4(CC3)CNC(=O)O4)cc2CS1(=O)=O

>  <Name>  (631) 
nan

>  <Pocket>  (631) 
nan

>  <ATP_Site>  (631) 
nan

>  <Peripheral>  (631) 
nan

>  <Num_H_Atoms_ProtBoundConf>  (631) 
nan

>  <Num_Resolved_Atoms>  (631) 
nan

>  <Num_Not_Resolved_Atoms>  (631) 
nan

$$$$
CHEMBL3702253
     RDKit          3D

  0  0  0  0  0  0  0  0  0  0999 V3000
M  V30 BEGIN CTAB
M  V30 COUNTS 51 54 0 0 0
M  V30 BEGIN ATOM
M  V30 1 C -0.094607 -0.380233 2.071728 0
M  V30 2 C 0.452487 0.566118 1.047973 0
M  V30 3 C 1.820854 0.585354 0.942660 0
M  V30 4 C 2.871673 -0.183020 1.701328 0
M  V30 5 O 2.758478 -1.038908 2.587151 0
M  V30 6 N 4.219725 0.092531 1.381447 0
M  V30 7 C 5.327694 -0.582114 2.046017 0 CFG=2
M  V30 8 C 6.497797 0.225623 2.490156 0
M  V30 9 C 6.649735 -0.743951 1.363899 0 CFG=1
M  V30 10 N 7.471968 -1.913579 1.581319 0
M  V30 11 S 2.133735 1.770818 -0.298155 0
M  V30 12 C 0.484407 2.169228 -0.604290 0
M  V30 13 N -0.093554 3.074677 -1.486670 0
M  V30 14 C -1.435172 3.221178 -1.540290 0
M  V30 15 N -2.100371 2.447550 -0.702588 0
M  V30 16 C -1.586711 1.561594 0.164400 0
M  V30 17 N -2.612203 0.943935 0.890754 0
M  V30 18 C -3.662370 0.009921 0.682269 0
M  V30 19 C -4.865432 0.649126 0.998875 0
M  V30 20 C -6.073132 -0.009905 0.882438 0
M  V30 21 C -6.092303 -1.318498 0.447346 0
M  V30 22 F -7.235652 -2.021028 0.308268 0
M  V30 23 C -4.892340 -1.905459 0.148567 0
M  V30 24 C -3.644696 -1.298862 0.243400 0
M  V30 25 O -2.401967 -1.799484 -0.029282 0
M  V30 26 C -2.147245 -3.094061 -0.485159 0
M  V30 27 C -1.319201 -3.828602 0.560619 0
M  V30 28 F -2.088884 -3.834068 1.710313 0
M  V30 29 C -1.399856 -3.108228 -1.811065 0
M  V30 30 F -1.214880 -4.435609 -2.145397 0
M  V30 31 C -0.215409 1.393801 0.236951 0
M  V30 32 H 0.392791 -1.388175 1.974722 0
M  V30 33 H 0.220587 -0.001071 3.086690 0
M  V30 34 H -1.146821 -0.570681 2.036143 0
M  V30 35 H 4.496527 0.800773 0.645567 0
M  V30 36 H 5.038925 -1.407193 2.726780 0
M  V30 37 H 6.992315 -0.068714 3.434283 0
M  V30 38 H 6.533954 1.317851 2.327378 0
M  V30 39 H 6.654299 -0.355835 0.303413 0
M  V30 40 H 8.352918 -1.589021 2.008222 0
M  V30 41 H 7.572153 -2.517637 0.765995 0
M  V30 42 H -1.846213 3.933763 -2.237248 0
M  V30 43 H -2.475477 1.376237 1.854824 0
M  V30 44 H -5.036308 1.660038 1.350391 0
M  V30 45 H -7.055114 0.401001 1.103827 0
M  V30 46 H -4.886367 -2.918003 -0.190822 0
M  V30 47 H -3.086053 -3.677007 -0.653542 0
M  V30 48 H -0.376251 -3.301420 0.762805 0
M  V30 49 H -1.176221 -4.882374 0.273602 0
M  V30 50 H -2.002738 -2.576804 -2.547996 0
M  V30 51 H -0.431768 -2.578281 -1.685357 0
M  V30 END ATOM
M  V30 BEGIN BOND
M  V30 1 1 1 2
M  V30 2 2 2 3
M  V30 3 1 3 4
M  V30 4 2 4 5
M  V30 5 1 4 6
M  V30 6 1 6 7
M  V30 7 1 7 8
M  V30 8 1 8 9
M  V30 9 1 9 10
M  V30 10 1 3 11
M  V30 11 1 11 12
M  V30 12 2 12 13
M  V30 13 1 13 14
M  V30 14 2 14 15
M  V30 15 1 15 16
M  V30 16 1 16 17
M  V30 17 1 17 18
M  V30 18 2 18 19
M  V30 19 1 19 20
M  V30 20 2 20 21
M  V30 21 1 21 22
M  V30 22 1 21 23
M  V30 23 2 23 24
M  V30 24 1 24 25
M  V30 25 1 25 26
M  V30 26 1 26 27
M  V30 27 1 27 28
M  V30 28 1 26 29
M  V30 29 1 29 30
M  V30 30 2 16 31
M  V30 31 1 31 2
M  V30 32 1 9 7
M  V30 33 1 31 12
M  V30 34 1 24 18
M  V30 35 1 1 32
M  V30 36 1 1 33
M  V30 37 1 1 34
M  V30 38 1 6 35
M  V30 39 1 7 36 CFG=1
M  V30 40 1 8 37
M  V30 41 1 8 38
M  V30 42 1 9 39 CFG=3
M  V30 43 1 10 40
M  V30 44 1 10 41
M  V30 45 1 14 42
M  V30 46 1 17 43
M  V30 47 1 19 44
M  V30 48 1 20 45
M  V30 49 1 23 46
M  V30 50 1 26 47
M  V30 51 1 27 48
M  V30 52 1 27 49
M  V30 53 1 29 50
M  V30 54 1 29 51
M  V30 END BOND
M  V30 END CTAB
M  END
>  <Dataset>  (632) 
ChEMBL_Kinases

>  <Ligand_Instance>  (632) 
nan

>  <PDB_ID>  (632) 
nan

>  <Standardized_SMILES>  (632) 
Cc1c(C(=O)N[C@@H]2C[C@H]2N)sc2ncnc(Nc3ccc(F)cc3OC(CF)CF)c12

>  <Name>  (632) 
nan

>  <Pocket>  (632) 
nan

>  <ATP_Site>  (632) 
nan

>  <Peripheral>  (632) 
nan

>  <Num_H_Atoms_ProtBoundConf>  (632) 
nan

>  <Num_Resolved_Atoms>  (632) 
nan

>  <Num_Not_Resolved_Atoms>  (632) 
nan

$$$$
CHEMBL5071556
     RDKit          3D

  0  0  0  0  0  0  0  0  0  0999 V3000
M  V30 BEGIN CTAB
M  V30 COUNTS 61 65 0 0 0
M  V30 BEGIN ATOM
M  V30 1 C 0.047780 -1.625679 4.455915 0
M  V30 2 N 1.390023 -1.659364 3.938685 0
M  V30 3 C 2.327399 -1.015470 4.802871 0
M  V30 4 C 3.646485 -1.681609 4.626878 0
M  V30 5 C 3.351747 -2.887932 3.780547 0
M  V30 6 C 4.026080 -2.697559 2.441317 0
M  V30 7 N 3.554083 -1.519303 1.754644 0
M  V30 8 C 4.026768 -1.093533 0.453027 0
M  V30 9 O 4.903286 -1.780390 -0.125526 0
M  V30 10 C 3.371116 0.148757 -0.022561 0
M  V30 11 C 2.024322 0.029928 -0.379631 0
M  V30 12 C 1.262281 1.069667 -0.822795 0
M  V30 13 C -0.146330 0.985740 -1.194199 0
M  V30 14 C -0.776741 2.143972 -1.596672 0
M  V30 15 C -2.095753 2.028905 -1.963041 0
M  V30 16 C -2.857927 0.852113 -1.967687 0
M  V30 17 N -4.189121 0.971532 -2.416255 0
M  V30 18 S -5.606978 0.112177 -1.951954 0
M  V30 19 O -6.788335 0.679338 -2.667442 0
M  V30 20 O -5.844996 0.287573 -0.460662 0
M  V30 21 C -5.538405 -1.582817 -2.318320 0
M  V30 22 C -4.671344 -2.386013 -3.008972 0
M  V30 23 C -4.863007 -3.731808 -3.195320 0
M  V30 24 C -5.996542 -4.343710 -2.663629 0
M  V30 25 C -6.919488 -3.574021 -1.947952 0
M  V30 26 Cl -8.263634 -4.483482 -1.356714 0
M  V30 27 C -6.667484 -2.206424 -1.791478 0
M  V30 28 Cl -7.973314 -1.475492 -0.859947 0
M  V30 29 C -2.114526 -0.216137 -1.548166 0
M  V30 30 C -0.798487 -0.225725 -1.158915 0
M  V30 31 N 1.875250 2.280448 -0.913396 0
M  V30 32 C 3.168357 2.452696 -0.584515 0
M  V30 33 N 4.044322 3.483061 -0.565819 0
M  V30 34 N 5.240983 3.099340 -0.144572 0
M  V30 35 C 5.230694 1.771073 0.145685 0
M  V30 36 C 3.933762 1.400869 -0.137204 0
M  V30 37 C 1.877898 -2.979820 3.745456 0
M  V30 38 H -0.037573 -0.839050 5.233905 0
M  V30 39 H -0.173827 -2.639495 4.863394 0
M  V30 40 H -0.670534 -1.453798 3.634887 0
M  V30 41 H 1.966745 -1.044722 5.862952 0
M  V30 42 H 2.422012 0.039798 4.468056 0
M  V30 43 H 4.080313 -2.009340 5.616407 0
M  V30 44 H 4.405679 -1.023676 4.128190 0
M  V30 45 H 3.752369 -3.823669 4.272248 0
M  V30 46 H 5.108130 -2.646150 2.533093 0
M  V30 47 H 3.810665 -3.630417 1.849433 0
M  V30 48 H 2.829587 -0.954304 2.250278 0
M  V30 49 H 1.565029 -0.930085 -0.300554 0
M  V30 50 H -0.269964 3.106132 -1.626510 0
M  V30 51 H -2.566427 2.973898 -2.277245 0
M  V30 52 H -4.341919 1.713406 -3.170583 0
M  V30 53 H -3.837840 -1.782198 -3.385605 0
M  V30 54 H -4.058184 -4.162451 -3.764297 0
M  V30 55 H -6.024341 -5.399430 -2.882030 0
M  V30 56 H -2.630628 -1.156658 -1.503482 0
M  V30 57 H -0.352897 -1.139236 -0.856803 0
M  V30 58 H 3.759177 4.458541 -0.862148 0
M  V30 59 H 6.029004 1.126775 0.512647 0
M  V30 60 H 1.546205 -3.591142 4.613851 0
M  V30 61 H 1.471180 -3.484244 2.843660 0
M  V30 END ATOM
M  V30 BEGIN BOND
M  V30 1 1 1 2
M  V30 2 1 2 3
M  V30 3 1 3 4
M  V30 4 1 4 5
M  V30 5 1 5 6
M  V30 6 1 6 7
M  V30 7 1 7 8
M  V30 8 2 8 9
M  V30 9 1 8 10
M  V30 10 2 10 11
M  V30 11 1 11 12
M  V30 12 1 12 13
M  V30 13 2 13 14
M  V30 14 1 14 15
M  V30 15 2 15 16
M  V30 16 1 16 17
M  V30 17 1 17 18
M  V30 18 2 18 19
M  V30 19 2 18 20
M  V30 20 1 18 21
M  V30 21 2 21 22
M  V30 22 1 22 23
M  V30 23 2 23 24
M  V30 24 1 24 25
M  V30 25 1 25 26
M  V30 26 2 25 27
M  V30 27 1 27 28
M  V30 28 1 16 29
M  V30 29 2 29 30
M  V30 30 2 12 31
M  V30 31 1 31 32
M  V30 32 1 32 33
M  V30 33 1 33 34
M  V30 34 2 34 35
M  V30 35 1 35 36
M  V30 36 1 5 37
M  V30 37 1 37 2
M  V30 38 1 36 10
M  V30 39 1 30 13
M  V30 40 2 36 32
M  V30 41 1 27 21
M  V30 42 1 1 38
M  V30 43 1 1 39
M  V30 44 1 1 40
M  V30 45 1 3 41
M  V30 46 1 3 42
M  V30 47 1 4 43
M  V30 48 1 4 44
M  V30 49 1 5 45
M  V30 50 1 6 46
M  V30 51 1 6 47
M  V30 52 1 7 48
M  V30 53 1 11 49
M  V30 54 1 14 50
M  V30 55 1 15 51
M  V30 56 1 17 52
M  V30 57 1 22 53
M  V30 58 1 23 54
M  V30 59 1 24 55
M  V30 60 1 29 56
M  V30 61 1 30 57
M  V30 62 1 33 58
M  V30 63 1 35 59
M  V30 64 1 37 60
M  V30 65 1 37 61
M  V30 END BOND
M  V30 END CTAB
M  END
>  <Dataset>  (633) 
ChEMBL_Kinases

>  <Ligand_Instance>  (633) 
nan

>  <PDB_ID>  (633) 
nan

>  <Standardized_SMILES>  (633) 
CN1CCC(CNC(=O)c2cc(-c3ccc(NS(=O)(=O)c4cccc(Cl)c4Cl)cc3)nc3[nH]ncc23)C1

>  <Name>  (633) 
nan

>  <Pocket>  (633) 
nan

>  <ATP_Site>  (633) 
nan

>  <Peripheral>  (633) 
nan

>  <Num_H_Atoms_ProtBoundConf>  (633) 
nan

>  <Num_Resolved_Atoms>  (633) 
nan

>  <Num_Not_Resolved_Atoms>  (633) 
nan

$$$$
CHEMBL3797617
     RDKit          3D

  0  0  0  0  0  0  0  0  0  0999 V3000
M  V30 BEGIN CTAB
M  V30 COUNTS 38 41 0 0 0
M  V30 BEGIN ATOM
M  V30 1 C -0.581591 -2.967157 4.896398 0
M  V30 2 S 0.158965 -1.322782 4.673560 0
M  V30 3 C 1.013697 -1.222213 3.085326 0
M  V30 4 S 2.766646 -1.639715 2.749684 0
M  V30 5 C 2.686651 -1.257584 1.059295 0
M  V30 6 C 3.879381 -1.403799 0.181993 0
M  V30 7 C 5.107086 -1.842533 0.633925 0
M  V30 8 C 5.956141 -1.842484 -0.479873 0
M  V30 9 N 5.229633 -1.414931 -1.536488 0
M  V30 10 N 4.002493 -1.162695 -1.112570 0
M  V30 11 C 1.427890 -0.847914 0.785006 0
M  V30 12 C 0.534491 -0.820152 1.823593 0
M  V30 13 C -0.847453 -0.405175 1.603607 0
M  V30 14 O -1.711134 -0.355573 2.514782 0
M  V30 15 N -1.200150 -0.043254 0.274327 0
M  V30 16 C -2.227182 0.931290 0.032810 0
M  V30 17 C -3.485806 0.336109 -0.074152 0
M  V30 18 C -4.615410 1.085621 -0.305913 0
M  V30 19 C -4.476000 2.455011 -0.431910 0
M  V30 20 C -3.236714 3.044904 -0.326990 0
M  V30 21 C -2.103739 2.286522 -0.093837 0
M  V30 22 C -0.445480 -0.736429 -0.752440 0
M  V30 23 C 1.010078 -0.423985 -0.571956 0
M  V30 24 H -0.119917 -3.643565 4.129559 0
M  V30 25 H -1.654897 -2.968272 4.692946 0
M  V30 26 H -0.305361 -3.407010 5.873906 0
M  V30 27 H 5.444107 -2.145070 1.613635 0
M  V30 28 H 7.011977 -2.141218 -0.460450 0
M  V30 29 H 5.630577 -1.322652 -2.496155 0
M  V30 30 H -3.700611 -0.731932 0.009815 0
M  V30 31 H -5.611142 0.723380 -0.402046 0
M  V30 32 H -5.339637 3.104624 -0.617228 0
M  V30 33 H -3.054602 4.104844 -0.414522 0
M  V30 34 H -1.087604 2.643727 0.005578 0
M  V30 35 H -0.793550 -0.450220 -1.772869 0
M  V30 36 H -0.540233 -1.839427 -0.623552 0
M  V30 37 H 1.641248 -0.861717 -1.370182 0
M  V30 38 H 1.111871 0.682292 -0.714430 0
M  V30 END ATOM
M  V30 BEGIN BOND
M  V30 1 1 1 2
M  V30 2 1 2 3
M  V30 3 1 3 4
M  V30 4 1 4 5
M  V30 5 1 5 6
M  V30 6 1 6 7
M  V30 7 2 7 8
M  V30 8 1 8 9
M  V30 9 1 9 10
M  V30 10 2 5 11
M  V30 11 1 11 12
M  V30 12 1 12 13
M  V30 13 2 13 14
M  V30 14 1 13 15
M  V30 15 1 15 16
M  V30 16 2 16 17
M  V30 17 1 17 18
M  V30 18 2 18 19
M  V30 19 1 19 20
M  V30 20 2 20 21
M  V30 21 1 15 22
M  V30 22 1 22 23
M  V30 23 2 12 3
M  V30 24 1 21 16
M  V30 25 2 10 6
M  V30 26 1 23 11
M  V30 27 1 1 24
M  V30 28 1 1 25
M  V30 29 1 1 26
M  V30 30 1 7 27
M  V30 31 1 8 28
M  V30 32 1 9 29
M  V30 33 1 17 30
M  V30 34 1 18 31
M  V30 35 1 19 32
M  V30 36 1 20 33
M  V30 37 1 21 34
M  V30 38 1 22 35
M  V30 39 1 22 36
M  V30 40 1 23 37
M  V30 41 1 23 38
M  V30 END BOND
M  V30 END CTAB
M  END
>  <Dataset>  (634) 
ChEMBL_Kinases

>  <Ligand_Instance>  (634) 
nan

>  <PDB_ID>  (634) 
nan

>  <Standardized_SMILES>  (634) 
CSc1sc(-c2cc[nH]n2)c2c1C(=O)N(c1ccccc1)CC2

>  <Name>  (634) 
nan

>  <Pocket>  (634) 
nan

>  <ATP_Site>  (634) 
nan

>  <Peripheral>  (634) 
nan

>  <Num_H_Atoms_ProtBoundConf>  (634) 
nan

>  <Num_Resolved_Atoms>  (634) 
nan

>  <Num_Not_Resolved_Atoms>  (634) 
nan

$$$$
CHEMBL3797601
     RDKit          3D

  0  0  0  0  0  0  0  0  0  0999 V3000
M  V30 BEGIN CTAB
M  V30 COUNTS 53 56 0 0 0
M  V30 BEGIN ATOM
M  V30 1 C 8.647217 -1.740139 6.428402 0
M  V30 2 N 7.534899 -1.534292 5.511070 0
M  V30 3 C 6.838808 -0.310090 5.241721 0
M  V30 4 O 7.278049 0.666816 5.898310 0
M  V30 5 C 5.750464 -0.344415 4.278628 0
M  V30 6 C 5.133756 0.876498 4.077939 0
M  V30 7 C 4.084163 0.956080 3.180644 0
M  V30 8 O 3.360191 2.120389 2.870319 0
M  V30 9 C 2.320493 2.107634 1.956282 0
M  V30 10 C 2.364494 2.320543 0.594362 0
M  V30 11 C 1.259992 2.283703 -0.223156 0
M  V30 12 C 0.002861 2.023644 0.284750 0
M  V30 13 N -1.163108 1.945787 -0.321233 0
M  V30 14 C -2.198283 1.737203 0.060579 0
M  V30 15 N -3.478198 1.674513 -0.754910 0
M  V30 16 C -3.736310 0.372559 -1.231884 0
M  V30 17 O -3.029906 -0.650529 -1.038985 0
M  V30 18 N -4.912684 0.207405 -2.006416 0
M  V30 19 C -5.173981 -1.125349 -2.493198 0
M  V30 20 C -5.922993 -1.915394 -1.662516 0
M  V30 21 C -6.219939 -3.221402 -2.062219 0
M  V30 22 C -7.031536 -4.128119 -1.199513 0
M  V30 23 F -7.418254 -3.492770 -0.042881 0
M  V30 24 F -6.200670 -5.178206 -0.802656 0
M  V30 25 F -8.103662 -4.605739 -1.903732 0
M  V30 26 C -5.774975 -3.725570 -3.270569 0
M  V30 27 C -5.019001 -2.891489 -4.082006 0
M  V30 28 C -4.541367 -3.429990 -5.376882 0
M  V30 29 F -4.405061 -2.428049 -6.330974 0
M  V30 30 F -5.484526 -4.313093 -5.898277 0
M  V30 31 F -3.382771 -4.157436 -5.226653 0
M  V30 32 C -4.706175 -1.595496 -3.719566 0
M  V30 33 S -1.782555 1.515646 1.920852 0
M  V30 34 C -0.023715 1.820185 1.601014 0
M  V30 35 C 1.072074 1.846547 2.479405 0
M  V30 36 C 3.724960 -0.216412 2.539890 0
M  V30 37 C 4.373142 -1.419030 2.773237 0
M  V30 38 N 5.384420 -1.461223 3.647373 0
M  V30 39 H 8.917068 -0.804682 6.975592 0
M  V30 40 H 9.540749 -2.036360 5.845762 0
M  V30 41 H 8.400473 -2.539133 7.173856 0
M  V30 42 H 7.237082 -2.404567 5.008029 0
M  V30 43 H 5.401589 1.798509 4.568974 0
M  V30 44 H 3.378869 2.526272 0.211613 0
M  V30 45 H 1.493630 2.478261 -1.281752 0
M  V30 46 H -4.014727 2.534021 -0.881571 0
M  V30 47 H -5.543726 1.007940 -2.205647 0
M  V30 48 H -6.304636 -1.574385 -0.693283 0
M  V30 49 H -5.998464 -4.745348 -3.598451 0
M  V30 50 H -4.119239 -0.925650 -4.333155 0
M  V30 51 H 0.781053 1.650453 3.493373 0
M  V30 52 H 2.909435 -0.231722 1.821158 0
M  V30 53 H 4.086595 -2.338511 2.266556 0
M  V30 END ATOM
M  V30 BEGIN BOND
M  V30 1 1 1 2
M  V30 2 1 2 3
M  V30 3 2 3 4
M  V30 4 1 3 5
M  V30 5 2 5 6
M  V30 6 1 6 7
M  V30 7 1 7 8
M  V30 8 1 8 9
M  V30 9 2 9 10
M  V30 10 1 10 11
M  V30 11 2 11 12
M  V30 12 1 12 13
M  V30 13 2 13 14
M  V30 14 1 14 15
M  V30 15 1 15 16
M  V30 16 2 16 17
M  V30 17 1 16 18
M  V30 18 1 18 19
M  V30 19 2 19 20
M  V30 20 1 20 21
M  V30 21 1 21 22
M  V30 22 1 22 23
M  V30 23 1 22 24
M  V30 24 1 22 25
M  V30 25 2 21 26
M  V30 26 1 26 27
M  V30 27 1 27 28
M  V30 28 1 28 29
M  V30 29 1 28 30
M  V30 30 1 28 31
M  V30 31 2 27 32
M  V30 32 1 14 33
M  V30 33 1 33 34
M  V30 34 2 34 35
M  V30 35 2 7 36
M  V30 36 1 36 37
M  V30 37 2 37 38
M  V30 38 1 38 5
M  V30 39 1 35 9
M  V30 40 1 34 12
M  V30 41 1 32 19
M  V30 42 1 1 39
M  V30 43 1 1 40
M  V30 44 1 1 41
M  V30 45 1 2 42
M  V30 46 1 6 43
M  V30 47 1 10 44
M  V30 48 1 11 45
M  V30 49 1 15 46
M  V30 50 1 18 47
M  V30 51 1 20 48
M  V30 52 1 26 49
M  V30 53 1 32 50
M  V30 54 1 35 51
M  V30 55 1 36 52
M  V30 56 1 37 53
M  V30 END BOND
M  V30 END CTAB
M  END
>  <Dataset>  (635) 
ChEMBL_Kinases

>  <Ligand_Instance>  (635) 
nan

>  <PDB_ID>  (635) 
nan

>  <Standardized_SMILES>  (635) 
CNC(=O)c1cc(Oc2ccc3nc(NC(=O)Nc4cc(C(F)(F)F)cc(C(F)(F)F)c4)sc3c2)ccn1

>  <Name>  (635) 
nan

>  <Pocket>  (635) 
nan

>  <ATP_Site>  (635) 
nan

>  <Peripheral>  (635) 
nan

>  <Num_H_Atoms_ProtBoundConf>  (635) 
nan

>  <Num_Resolved_Atoms>  (635) 
nan

>  <Num_Not_Resolved_Atoms>  (635) 
nan

$$$$
CHEMBL379760
     RDKit          3D

  0  0  0  0  0  0  0  0  0  0999 V3000
M  V30 BEGIN CTAB
M  V30 COUNTS 58 60 0 0 0
M  V30 BEGIN ATOM
M  V30 1 C 1.383773 -2.517317 5.986069 0
M  V30 2 O 1.952993 -2.609598 4.691435 0
M  V30 3 C 1.553068 -1.789331 3.645526 0
M  V30 4 C 2.186991 -1.977715 2.425308 0
M  V30 5 C 1.777541 -1.154394 1.397361 0
M  V30 6 C 0.789138 -0.167306 1.505133 0
M  V30 7 N 0.422298 0.640414 0.394533 0
M  V30 8 C 1.370224 1.652791 0.661593 0
M  V30 9 O 1.854418 1.090400 1.706169 0
M  V30 10 N 1.838132 2.901014 0.163778 0
M  V30 11 C 2.897562 3.504336 0.906729 0
M  V30 12 C 4.240717 3.297145 0.675155 0
M  V30 13 C 5.134880 3.963938 1.491843 0
M  V30 14 C 4.687893 4.807367 2.503279 0
M  V30 15 C 3.333757 5.003415 2.721292 0
M  V30 16 C 2.449221 4.340150 1.909012 0
M  V30 17 Cl 0.747969 4.636297 2.242880 0
M  V30 18 C -0.598930 0.291738 -0.516278 0
M  V30 19 C -1.003560 1.007799 -1.595635 0
M  V30 20 C -2.013531 0.585922 -2.430978 0
M  V30 21 N -2.584828 -0.582482 -2.121194 0
M  V30 22 C -2.191452 -1.298435 -1.055217 0
M  V30 23 N -2.874469 -2.503346 -0.846649 0
M  V30 24 C -2.793491 -3.879154 -1.201813 0 CFG=1
M  V30 25 C -3.940511 -4.648157 -0.581707 0
M  V30 26 C -2.740327 -4.158836 -2.683337 0
M  V30 27 C -1.475050 -3.617515 -3.310469 0
M  V30 28 C -3.937672 -3.683048 -3.438595 0
M  V30 29 O -2.665234 -5.546208 -2.809445 0
M  V30 30 N -1.216109 -0.873456 -0.263350 0
M  V30 31 C 0.203238 -0.046568 2.771104 0
M  V30 32 C 0.567142 -0.838757 3.841182 0
M  V30 33 H 0.269653 -2.417189 5.838871 0
M  V30 34 H 1.716591 -1.646084 6.549641 0
M  V30 35 H 1.575999 -3.444208 6.562637 0
M  V30 36 H 2.955509 -2.713405 2.259219 0
M  V30 37 H 2.267670 -1.287307 0.422077 0
M  V30 38 H 1.243550 3.066762 -0.677593 0
M  V30 39 H 4.495937 2.627833 -0.128826 0
M  V30 40 H 6.188423 3.774418 1.277589 0
M  V30 41 H 5.435079 5.302500 3.110853 0
M  V30 42 H 3.083056 5.678134 3.531694 0
M  V30 43 H -0.515607 1.945919 -1.809705 0
M  V30 44 H -2.335801 1.149369 -3.284798 0
M  V30 45 H -3.666412 -2.157605 -0.225765 0
M  V30 46 H -1.863967 -4.295001 -0.762569 0
M  V30 47 H -4.826116 -3.964359 -0.521410 0
M  V30 48 H -3.662278 -4.888698 0.470335 0
M  V30 49 H -4.188363 -5.565585 -1.147675 0
M  V30 50 H -0.674346 -3.610292 -2.545904 0
M  V30 51 H -1.633692 -2.626084 -3.780482 0
M  V30 52 H -1.143547 -4.301239 -4.119254 0
M  V30 53 H -4.467779 -2.892796 -2.859891 0
M  V30 54 H -4.667165 -4.515128 -3.515698 0
M  V30 55 H -3.703616 -3.369260 -4.480443 0
M  V30 56 H -2.995243 -5.747006 -3.728977 0
M  V30 57 H -0.574563 0.715235 2.894157 0
M  V30 58 H 0.075846 -0.687880 4.774466 0
M  V30 END ATOM
M  V30 BEGIN BOND
M  V30 1 1 1 2
M  V30 2 1 2 3
M  V30 3 2 3 4
M  V30 4 1 4 5
M  V30 5 2 5 6
M  V30 6 1 6 7
M  V30 7 1 7 8
M  V30 8 2 8 9
M  V30 9 1 8 10
M  V30 10 1 10 11
M  V30 11 2 11 12
M  V30 12 1 12 13
M  V30 13 2 13 14
M  V30 14 1 14 15
M  V30 15 2 15 16
M  V30 16 1 16 17
M  V30 17 1 7 18
M  V30 18 2 18 19
M  V30 19 1 19 20
M  V30 20 2 20 21
M  V30 21 1 21 22
M  V30 22 1 22 23
M  V30 23 1 23 24
M  V30 24 1 24 25
M  V30 25 1 24 26
M  V30 26 1 26 27
M  V30 27 1 26 28
M  V30 28 1 26 29
M  V30 29 2 22 30
M  V30 30 1 6 31
M  V30 31 2 31 32
M  V30 32 1 32 3
M  V30 33 1 16 11
M  V30 34 1 30 18
M  V30 35 1 1 33
M  V30 36 1 1 34
M  V30 37 1 1 35
M  V30 38 1 4 36
M  V30 39 1 5 37
M  V30 40 1 10 38
M  V30 41 1 12 39
M  V30 42 1 13 40
M  V30 43 1 14 41
M  V30 44 1 15 42
M  V30 45 1 19 43
M  V30 46 1 20 44
M  V30 47 1 23 45
M  V30 48 1 24 46 CFG=1
M  V30 49 1 25 47
M  V30 50 1 25 48
M  V30 51 1 25 49
M  V30 52 1 27 50
M  V30 53 1 27 51
M  V30 54 1 27 52
M  V30 55 1 28 53
M  V30 56 1 28 54
M  V30 57 1 28 55
M  V30 58 1 29 56
M  V30 59 1 31 57
M  V30 60 1 32 58
M  V30 END BOND
M  V30 END CTAB
M  END
>  <Dataset>  (636) 
ChEMBL_Kinases

>  <Ligand_Instance>  (636) 
nan

>  <PDB_ID>  (636) 
nan

>  <Standardized_SMILES>  (636) 
COc1ccc(N(C(=O)Nc2ccccc2Cl)c2ccnc(N[C@@H](C)C(C)(C)O)n2)cc1

>  <Name>  (636) 
nan

>  <Pocket>  (636) 
nan

>  <ATP_Site>  (636) 
nan

>  <Peripheral>  (636) 
nan

>  <Num_H_Atoms_ProtBoundConf>  (636) 
nan

>  <Num_Resolved_Atoms>  (636) 
nan

>  <Num_Not_Resolved_Atoms>  (636) 
nan

$$$$
CHEMBL3797472
     RDKit          3D

  0  0  0  0  0  0  0  0  0  0999 V3000
M  V30 BEGIN CTAB
M  V30 COUNTS 54 58 0 0 0
M  V30 BEGIN ATOM
M  V30 1 C 2.801877 -3.857470 -5.333734 0
M  V30 2 N 2.716492 -3.706010 -3.892659 0
M  V30 3 C 2.387721 -2.568649 -3.288903 0
M  V30 4 C 2.396438 -2.756698 -1.905582 0
M  V30 5 C 2.091163 -1.760941 -0.879849 0
M  V30 6 C 2.363298 -0.416268 -1.042183 0
M  V30 7 C 2.039024 0.470941 -0.009310 0
M  V30 8 C 1.445852 0.026586 1.182739 0
M  V30 9 C 1.243359 1.176256 2.048359 0
M  V30 10 C 2.216086 2.114207 2.314776 0
M  V30 11 N 1.952057 3.150961 3.130712 0
M  V30 12 C 0.755202 3.338869 3.726037 0
M  V30 13 N 0.582001 4.470248 4.571932 0
M  V30 14 C -0.251773 2.399128 3.471549 0
M  V30 15 Cl -1.756267 2.743364 4.294415 0
M  V30 16 C 0.004301 1.315475 2.626359 0
M  V30 17 N -1.157099 0.505600 2.519445 0
M  V30 18 C -1.858487 1.076747 1.370702 0
M  V30 19 C -3.162566 0.395198 1.079039 0
M  V30 20 C -3.099522 -1.096712 1.067955 0
M  V30 21 C -2.275902 -1.671014 2.178470 0
M  V30 22 C -1.831331 -0.620362 3.141306 0
M  V30 23 C -2.654030 -1.637222 -0.276978 0
M  V30 24 N -3.220769 -2.973018 -0.231289 0
M  V30 25 C -4.423613 -2.877674 0.557007 0
M  V30 26 O -5.327527 -3.730535 0.788476 0
M  V30 27 O -4.453837 -1.573297 1.085179 0
M  V30 28 C 1.185815 -1.317698 1.318393 0
M  V30 29 C 1.507577 -2.188498 0.296727 0
M  V30 30 C 2.752402 -4.081036 -1.736640 0
M  V30 31 N 2.934786 -4.611367 -2.961561 0
M  V30 32 H 3.798987 -3.483819 -5.707690 0
M  V30 33 H 2.609442 -4.878788 -5.681309 0
M  V30 34 H 2.065951 -3.208753 -5.867678 0
M  V30 35 H 2.131854 -1.582617 -3.709116 0
M  V30 36 H 2.817142 -0.140748 -1.976062 0
M  V30 37 H 2.318716 1.493690 -0.298460 0
M  V30 38 H 3.165586 1.942341 1.826606 0
M  V30 39 H 1.380016 4.640097 5.247130 0
M  V30 40 H -0.252039 5.095724 4.549207 0
M  V30 41 H -1.259280 1.030251 0.439945 0
M  V30 42 H -2.089991 2.158772 1.502627 0
M  V30 43 H -3.977630 0.697451 1.762342 0
M  V30 44 H -3.462840 0.722088 0.055707 0
M  V30 45 H -2.960851 -2.346669 2.759120 0
M  V30 46 H -1.474182 -2.336064 1.810349 0
M  V30 47 H -1.205411 -1.077791 3.939269 0
M  V30 48 H -2.757510 -0.195358 3.602281 0
M  V30 49 H -3.199751 -1.068865 -1.047852 0
M  V30 50 H -1.566498 -1.616513 -0.414535 0
M  V30 51 H -2.931531 -3.881106 -0.629824 0
M  V30 52 H 0.742405 -1.520849 2.265411 0
M  V30 53 H 1.264639 -3.217131 0.499039 0
M  V30 54 H 2.831004 -4.487908 -0.728696 0
M  V30 END ATOM
M  V30 BEGIN BOND
M  V30 1 1 1 2
M  V30 2 1 2 3
M  V30 3 2 3 4
M  V30 4 1 4 5
M  V30 5 2 5 6
M  V30 6 1 6 7
M  V30 7 2 7 8
M  V30 8 1 8 9
M  V30 9 2 9 10
M  V30 10 1 10 11
M  V30 11 2 11 12
M  V30 12 1 12 13
M  V30 13 1 12 14
M  V30 14 1 14 15
M  V30 15 2 14 16
M  V30 16 1 16 17
M  V30 17 1 17 18
M  V30 18 1 18 19
M  V30 19 1 19 20
M  V30 20 1 20 21
M  V30 21 1 21 22
M  V30 22 1 20 23
M  V30 23 1 23 24
M  V30 24 1 24 25
M  V30 25 2 25 26
M  V30 26 1 25 27
M  V30 27 1 8 28
M  V30 28 2 28 29
M  V30 29 1 4 30
M  V30 30 2 30 31
M  V30 31 1 31 2
M  V30 32 1 29 5
M  V30 33 1 16 9
M  V30 34 1 22 17
M  V30 35 1 27 20
M  V30 36 1 1 32
M  V30 37 1 1 33
M  V30 38 1 1 34
M  V30 39 1 3 35
M  V30 40 1 6 36
M  V30 41 1 7 37
M  V30 42 1 10 38
M  V30 43 1 13 39
M  V30 44 1 13 40
M  V30 45 1 18 41
M  V30 46 1 18 42
M  V30 47 1 19 43
M  V30 48 1 19 44
M  V30 49 1 21 45
M  V30 50 1 21 46
M  V30 51 1 22 47
M  V30 52 1 22 48
M  V30 53 1 23 49
M  V30 54 1 23 50
M  V30 55 1 24 51
M  V30 56 1 28 52
M  V30 57 1 29 53
M  V30 58 1 30 54
M  V30 END BOND
M  V30 END CTAB
M  END
>  <Dataset>  (637) 
ChEMBL_Kinases

>  <Ligand_Instance>  (637) 
nan

>  <PDB_ID>  (637) 
nan

>  <Standardized_SMILES>  (637) 
Cn1cc(-c2ccc(-c3cnc(N)c(Cl)c3N3CCC4(CC3)CNC(=O)O4)cc2)cn1

>  <Name>  (637) 
nan

>  <Pocket>  (637) 
nan

>  <ATP_Site>  (637) 
nan

>  <Peripheral>  (637) 
nan

>  <Num_H_Atoms_ProtBoundConf>  (637) 
nan

>  <Num_Resolved_Atoms>  (637) 
nan

>  <Num_Not_Resolved_Atoms>  (637) 
nan

$$$$
CHEMBL5071564
     RDKit          3D

  0  0  0  0  0  0  0  0  0  0999 V3000
M  V30 BEGIN CTAB
M  V30 COUNTS 30 32 0 0 0
M  V30 BEGIN ATOM
M  V30 1 C -2.859992 -3.442537 1.862412 0
M  V30 2 C -1.599065 -3.424095 2.646111 0
M  V30 3 O -1.197100 -4.103035 3.677581 0
M  V30 4 N 0.010277 -3.736923 4.030359 0
M  V30 5 C 0.456889 -2.771288 3.213164 0
M  V30 6 C 1.631209 -2.075560 3.169317 0
M  V30 7 C 1.841141 -1.101006 2.191697 0
M  V30 8 C 0.805390 -0.907916 1.310108 0
M  V30 9 C 0.884724 0.084807 0.233914 0
M  V30 10 C 0.251971 -0.055128 -0.995715 0
M  V30 11 C 0.415537 0.975364 -1.924730 0
M  V30 12 N -0.247275 0.776393 -3.146970 0
M  V30 13 N 1.146317 2.074915 -1.680605 0
M  V30 14 C 1.770450 2.238954 -0.500244 0
M  V30 15 N 2.571618 3.366669 -0.133846 0
M  V30 16 C 1.631526 1.235083 0.449898 0
M  V30 17 C -0.384920 -1.607517 1.348079 0
M  V30 18 C -0.571060 -2.562641 2.318871 0
M  V30 19 H -2.551362 -3.569281 0.801473 0
M  V30 20 H -3.566869 -4.218333 2.185751 0
M  V30 21 H -3.353723 -2.452145 1.941444 0
M  V30 22 H 2.420798 -2.257854 3.881368 0
M  V30 23 H 2.751108 -0.511609 2.099984 0
M  V30 24 H -0.325422 -0.942347 -1.165837 0
M  V30 25 H -0.043324 0.122950 -3.933670 0
M  V30 26 H -1.103714 1.367362 -3.347062 0
M  V30 27 H 3.628733 3.478566 -0.116478 0
M  V30 28 H 1.862585 4.095304 0.126586 0
M  V30 29 H 2.121702 1.339952 1.407210 0
M  V30 30 H -1.195275 -1.434246 0.632735 0
M  V30 END ATOM
M  V30 BEGIN BOND
M  V30 1 1 1 2
M  V30 2 1 2 3
M  V30 3 1 3 4
M  V30 4 2 4 5
M  V30 5 1 5 6
M  V30 6 2 6 7
M  V30 7 1 7 8
M  V30 8 1 8 9
M  V30 9 2 9 10
M  V30 10 1 10 11
M  V30 11 1 11 12
M  V30 12 2 11 13
M  V30 13 1 13 14
M  V30 14 1 14 15
M  V30 15 2 14 16
M  V30 16 2 8 17
M  V30 17 1 17 18
M  V30 18 2 18 2
M  V30 19 1 18 5
M  V30 20 1 16 9
M  V30 21 1 1 19
M  V30 22 1 1 20
M  V30 23 1 1 21
M  V30 24 1 6 22
M  V30 25 1 7 23
M  V30 26 1 10 24
M  V30 27 1 12 25
M  V30 28 1 12 26
M  V30 29 1 15 27
M  V30 30 1 15 28
M  V30 31 1 16 29
M  V30 32 1 17 30
M  V30 END BOND
M  V30 END CTAB
M  END
>  <Dataset>  (638) 
ChEMBL_Kinases

>  <Ligand_Instance>  (638) 
nan

>  <PDB_ID>  (638) 
nan

>  <Standardized_SMILES>  (638) 
Cc1onc2ccc(-c3cc(N)nc(N)c3)cc12

>  <Name>  (638) 
nan

>  <Pocket>  (638) 
nan

>  <ATP_Site>  (638) 
nan

>  <Peripheral>  (638) 
nan

>  <Num_H_Atoms_ProtBoundConf>  (638) 
nan

>  <Num_Resolved_Atoms>  (638) 
nan

>  <Num_Not_Resolved_Atoms>  (638) 
nan

$$$$
CHEMBL5071580
     RDKit          3D

  0  0  0  0  0  0  0  0  0  0999 V3000
M  V30 BEGIN CTAB
M  V30 COUNTS 60 64 0 0 0
M  V30 BEGIN ATOM
M  V30 1 C -0.398002 -3.649677 2.289971 0
M  V30 2 C -0.189410 -2.279328 2.818210 0
M  V30 3 C 0.109539 -2.070199 4.147800 0
M  V30 4 C 0.303575 -0.796958 4.655815 0
M  V30 5 C 0.187866 0.266168 3.784061 0
M  V30 6 N 0.385788 1.582613 4.295683 0
M  V30 7 C -0.448310 2.582966 4.868181 0
M  V30 8 O -1.681156 2.386531 5.016320 0
M  V30 9 C 0.260399 3.800693 5.243424 0
M  V30 10 C -0.525417 4.787806 5.801764 0
M  V30 11 C 0.075189 5.975221 6.184661 0
M  V30 12 N 1.408095 6.192522 6.026290 0
M  V30 13 C 2.141261 5.194759 5.473334 0
M  V30 14 C 3.595646 5.255276 5.226987 0
M  V30 15 F 4.235457 4.569906 6.252271 0
M  V30 16 F 3.904455 4.729611 4.003676 0
M  V30 17 F 4.052019 6.549850 5.274929 0
M  V30 18 N 1.581509 4.033342 5.093656 0
M  V30 19 C -0.112016 0.028234 2.458875 0
M  V30 20 C -0.310675 -1.242181 1.928146 0
M  V30 21 C -0.618434 -1.340545 0.503530 0
M  V30 22 C -1.601352 -0.431104 0.091411 0
M  V30 23 C -2.044680 -0.349048 -1.216364 0
M  V30 24 C -1.508377 -1.190062 -2.170380 0
M  V30 25 C -0.540727 -2.083179 -1.757426 0
M  V30 26 C -0.088107 -2.176994 -0.456777 0
M  V30 27 O 0.135602 -3.017880 -2.530238 0
M  V30 28 C -0.024889 -3.439788 -3.882760 0
M  V30 29 C -1.301635 -4.226723 -4.061339 0
M  V30 30 C -1.270431 -5.233199 -5.156317 0
M  V30 31 O -0.053021 -5.807248 -5.419660 0
M  V30 32 C 0.764794 -5.688458 -4.299591 0
M  V30 33 C 1.193624 -4.230850 -4.262204 0
M  V30 34 C -0.116498 -2.252967 -4.818248 0
M  V30 35 C -1.488587 -1.639511 -4.698464 0
M  V30 36 O -2.326525 -1.584804 -5.661849 0
M  V30 37 N -2.014431 -1.047852 -3.497233 0
M  V30 38 H -1.069290 -3.618985 1.390252 0
M  V30 39 H 0.551255 -4.105881 1.950734 0
M  V30 40 H -0.846303 -4.310755 3.064159 0
M  V30 41 H 0.193514 -2.930034 4.807831 0
M  V30 42 H 0.538181 -0.612586 5.692955 0
M  V30 43 H 1.428535 1.673528 4.138973 0
M  V30 44 H -1.602706 4.666112 5.952185 0
M  V30 45 H -0.489586 6.779717 6.625576 0
M  V30 46 H -0.191776 0.904555 1.813259 0
M  V30 47 H -2.087018 0.272044 0.755133 0
M  V30 48 H -2.796756 0.344852 -1.538373 0
M  V30 49 H 0.653647 -2.840605 -0.077543 0
M  V30 50 H -2.158017 -3.545710 -4.213275 0
M  V30 51 H -1.442955 -4.783790 -3.089264 0
M  V30 52 H -2.075394 -5.982870 -4.972861 0
M  V30 53 H -1.580281 -4.712182 -6.105338 0
M  V30 54 H 0.227997 -5.935650 -3.383165 0
M  V30 55 H 1.674805 -6.329397 -4.437578 0
M  V30 56 H 1.553348 -3.923166 -5.277497 0
M  V30 57 H 1.994853 -4.047072 -3.547553 0
M  V30 58 H 0.074089 -2.554049 -5.847844 0
M  V30 59 H 0.592236 -1.472180 -4.446027 0
M  V30 60 H -2.857840 -0.437801 -3.540013 0
M  V30 END ATOM
M  V30 BEGIN BOND
M  V30 1 1 1 2
M  V30 2 2 2 3
M  V30 3 1 3 4
M  V30 4 2 4 5
M  V30 5 1 5 6
M  V30 6 1 6 7
M  V30 7 2 7 8
M  V30 8 1 7 9
M  V30 9 2 9 10
M  V30 10 1 10 11
M  V30 11 2 11 12
M  V30 12 1 12 13
M  V30 13 1 13 14
M  V30 14 1 14 15
M  V30 15 1 14 16
M  V30 16 1 14 17
M  V30 17 2 13 18
M  V30 18 1 5 19
M  V30 19 2 19 20
M  V30 20 1 20 21
M  V30 21 2 21 22
M  V30 22 1 22 23
M  V30 23 2 23 24
M  V30 24 1 24 25
M  V30 25 2 25 26
M  V30 26 1 25 27
M  V30 27 1 27 28
M  V30 28 1 28 29
M  V30 29 1 29 30
M  V30 30 1 30 31
M  V30 31 1 31 32
M  V30 32 1 32 33
M  V30 33 1 28 34
M  V30 34 1 34 35
M  V30 35 2 35 36
M  V30 36 1 35 37
M  V30 37 1 20 2
M  V30 38 1 26 21
M  V30 39 1 33 28
M  V30 40 1 18 9
M  V30 41 1 37 24
M  V30 42 1 1 38
M  V30 43 1 1 39
M  V30 44 1 1 40
M  V30 45 1 3 41
M  V30 46 1 4 42
M  V30 47 1 6 43
M  V30 48 1 10 44
M  V30 49 1 11 45
M  V30 50 1 19 46
M  V30 51 1 22 47
M  V30 52 1 23 48
M  V30 53 1 26 49
M  V30 54 1 29 50
M  V30 55 1 29 51
M  V30 56 1 30 52
M  V30 57 1 30 53
M  V30 58 1 32 54
M  V30 59 1 32 55
M  V30 60 1 33 56
M  V30 61 1 33 57
M  V30 62 1 34 58
M  V30 63 1 34 59
M  V30 64 1 37 60
M  V30 END BOND
M  V30 END CTAB
M  END
>  <Dataset>  (639) 
ChEMBL_Kinases

>  <Ligand_Instance>  (639) 
nan

>  <PDB_ID>  (639) 
nan

>  <Standardized_SMILES>  (639) 
Cc1ccc(NC(=O)c2ccnc(C(F)(F)F)n2)cc1-c1ccc2c(c1)OC1(CCOCC1)CC(=O)N2

>  <Name>  (639) 
nan

>  <Pocket>  (639) 
nan

>  <ATP_Site>  (639) 
nan

>  <Peripheral>  (639) 
nan

>  <Num_H_Atoms_ProtBoundConf>  (639) 
nan

>  <Num_Resolved_Atoms>  (639) 
nan

>  <Num_Not_Resolved_Atoms>  (639) 
nan

$$$$
CHEMBL5071605
     RDKit          3D

  0  0  0  0  0  0  0  0  0  0999 V3000
M  V30 BEGIN CTAB
M  V30 COUNTS 52 54 0 0 0
M  V30 BEGIN ATOM
M  V30 1 C 2.931343 -4.204769 5.867221 0
M  V30 2 C 2.037011 -2.978044 5.895523 0
M  V30 3 O 2.560650 -1.947348 5.126958 0
M  V30 4 C 2.703185 -2.337708 3.777802 0
M  V30 5 C 3.274506 -1.138718 3.065686 0
M  V30 6 O 3.499159 -1.286875 1.732687 0
M  V30 7 C 2.422457 -1.580065 0.955131 0
M  V30 8 C 1.311140 -0.555995 0.975781 0 CFG=1
M  V30 9 C 1.774675 0.793296 0.500639 0
M  V30 10 C 1.831774 0.949819 -0.984607 0
M  V30 11 C 0.574715 0.543814 -1.707814 0
M  V30 12 N -0.379105 0.092905 -0.682789 0
M  V30 13 C -1.692807 0.562908 -0.333812 0
M  V30 14 C -1.834103 1.045093 0.948397 0
M  V30 15 C -2.981603 1.553434 1.520665 0
M  V30 16 N -4.053304 1.550506 0.675910 0
M  V30 17 C -3.957992 1.089707 -0.579801 0
M  V30 18 S -5.203483 1.005121 -1.788620 0
M  V30 19 C -4.079785 0.245442 -3.100937 0
M  V30 20 C -4.569639 -0.084675 -4.429420 0
M  V30 21 N -5.927898 0.170498 -4.749306 0
M  V30 22 O -3.708409 -0.572412 -5.163236 0
M  V30 23 C -2.851280 0.144049 -2.439951 0
M  V30 24 N -1.811974 -0.414386 -3.228921 0
M  V30 25 C -2.804942 0.581771 -1.146424 0
M  V30 26 C 0.217206 -1.024565 0.041686 0
M  V30 27 H 2.723230 -4.722475 4.910122 0
M  V30 28 H 3.990646 -3.948517 5.962062 0
M  V30 29 H 2.641687 -4.846060 6.739511 0
M  V30 30 H 1.997086 -2.621500 6.934768 0
M  V30 31 H 1.016992 -3.252503 5.595381 0
M  V30 32 H 1.736990 -2.681689 3.420659 0
M  V30 33 H 3.409684 -3.191790 3.746578 0
M  V30 34 H 2.722772 -0.217100 3.343422 0
M  V30 35 H 4.289017 -0.990044 3.543028 0
M  V30 36 H 2.003372 -2.600055 1.072146 0
M  V30 37 H 2.800931 -1.573970 -0.109517 0
M  V30 38 H 0.876068 -0.422856 1.980059 0
M  V30 39 H 2.817675 0.911627 0.870643 0
M  V30 40 H 1.219123 1.647873 0.927284 0
M  V30 41 H 2.728161 0.470290 -1.435758 0
M  V30 42 H 1.965769 2.042755 -1.178023 0
M  V30 43 H 0.169578 1.340388 -2.346757 0
M  V30 44 H 0.827582 -0.321139 -2.363335 0
M  V30 45 H -0.985604 1.050185 1.629427 0
M  V30 46 H -3.026857 1.916728 2.534472 0
M  V30 47 H -6.376784 0.830148 -5.436372 0
M  V30 48 H -6.546189 -0.435306 -4.165511 0
M  V30 49 H -1.552635 -1.365653 -2.877801 0
M  V30 50 H -1.415581 0.123855 -4.036846 0
M  V30 51 H 0.643597 -1.767764 -0.677289 0
M  V30 52 H -0.593467 -1.474775 0.652884 0
M  V30 END ATOM
M  V30 BEGIN BOND
M  V30 1 1 1 2
M  V30 2 1 2 3
M  V30 3 1 3 4
M  V30 4 1 4 5
M  V30 5 1 5 6
M  V30 6 1 6 7
M  V30 7 1 7 8
M  V30 8 1 8 9
M  V30 9 1 9 10
M  V30 10 1 10 11
M  V30 11 1 11 12
M  V30 12 1 12 13
M  V30 13 2 13 14
M  V30 14 1 14 15
M  V30 15 2 15 16
M  V30 16 1 16 17
M  V30 17 1 17 18
M  V30 18 1 18 19
M  V30 19 1 19 20
M  V30 20 1 20 21
M  V30 21 2 20 22
M  V30 22 2 19 23
M  V30 23 1 23 24
M  V30 24 1 23 25
M  V30 25 1 12 26
M  V30 26 1 26 8
M  V30 27 1 25 13
M  V30 28 2 25 17
M  V30 29 1 1 27
M  V30 30 1 1 28
M  V30 31 1 1 29
M  V30 32 1 2 30
M  V30 33 1 2 31
M  V30 34 1 4 32
M  V30 35 1 4 33
M  V30 36 1 5 34
M  V30 37 1 5 35
M  V30 38 1 7 36
M  V30 39 1 7 37
M  V30 40 1 8 38 CFG=1
M  V30 41 1 9 39
M  V30 42 1 9 40
M  V30 43 1 10 41
M  V30 44 1 10 42
M  V30 45 1 11 43
M  V30 46 1 11 44
M  V30 47 1 14 45
M  V30 48 1 15 46
M  V30 49 1 21 47
M  V30 50 1 21 48
M  V30 51 1 24 49
M  V30 52 1 24 50
M  V30 53 1 26 51
M  V30 54 1 26 52
M  V30 END BOND
M  V30 END CTAB
M  END
>  <Dataset>  (640) 
ChEMBL_Kinases

>  <Ligand_Instance>  (640) 
nan

>  <PDB_ID>  (640) 
nan

>  <Standardized_SMILES>  (640) 
CCOCCOC[C@H]1CCCN(c2ccnc3sc(C(N)=O)c(N)c23)C1

>  <Name>  (640) 
nan

>  <Pocket>  (640) 
nan

>  <ATP_Site>  (640) 
nan

>  <Peripheral>  (640) 
nan

>  <Num_H_Atoms_ProtBoundConf>  (640) 
nan

>  <Num_Resolved_Atoms>  (640) 
nan

>  <Num_Not_Resolved_Atoms>  (640) 
nan

$$$$
CHEMBL3797571
     RDKit          3D

  0  0  0  0  0  0  0  0  0  0999 V3000
M  V30 BEGIN CTAB
M  V30 COUNTS 53 57 0 0 0
M  V30 BEGIN ATOM
M  V30 1 C -2.924086 -3.701453 3.065968 0
M  V30 2 N -1.791891 -4.005585 2.252873 0
M  V30 3 C -0.672405 -3.229008 1.867383 0
M  V30 4 C -0.285391 -2.055511 2.481470 0
M  V30 5 C 0.813388 -1.331851 2.072808 0
M  V30 6 C 1.596215 -1.743547 1.015951 0
M  V30 7 C 2.757775 -1.111984 0.458815 0
M  V30 8 C 3.944948 -1.745008 0.212958 0
M  V30 9 N 4.987482 -1.084318 -0.305153 0
M  V30 10 C 4.927526 0.203867 -0.604823 0
M  V30 11 C 3.731472 0.891475 -0.369622 0
M  V30 12 Cl 3.809520 2.600812 -0.820825 0
M  V30 13 C 2.627406 0.225371 0.170671 0
M  V30 14 N 1.551571 1.139864 0.304332 0
M  V30 15 C 0.947064 2.080738 1.191198 0
M  V30 16 C -0.545642 1.923581 1.351832 0
M  V30 17 C -1.266008 1.815813 0.053022 0
M  V30 18 C -2.015411 0.501984 -0.093066 0
M  V30 19 C -3.239884 0.945541 -0.890277 0
M  V30 20 N -3.603771 2.185203 -0.248674 0
M  V30 21 C -2.361695 2.824274 0.021003 0
M  V30 22 O -2.133167 4.055863 0.216483 0
M  V30 23 C -0.296076 2.048652 -1.068703 0
M  V30 24 C 0.830596 1.045273 -0.955121 0
M  V30 25 C 1.168831 -2.940335 0.419794 0
M  V30 26 C 0.056677 -3.700273 0.810975 0
M  V30 27 C -0.431449 -4.969228 0.208478 0
M  V30 28 S -1.523122 -5.554558 1.485901 0
M  V30 29 O -0.849458 -6.482876 2.427722 0
M  V30 30 O -2.805438 -6.074177 0.921561 0
M  V30 31 H -2.880667 -2.706455 3.506363 0
M  V30 32 H -3.831477 -3.735400 2.408528 0
M  V30 33 H -3.037287 -4.436297 3.888272 0
M  V30 34 H -0.811035 -1.622268 3.319758 0
M  V30 35 H 1.119948 -0.423542 2.553110 0
M  V30 36 H 4.014508 -2.786567 0.448075 0
M  V30 37 H 5.813765 0.663553 -1.019900 0
M  V30 38 H 1.215423 3.122615 0.923077 0
M  V30 39 H 1.364629 1.947751 2.227715 0
M  V30 40 H -0.898058 2.812713 1.897957 0
M  V30 41 H -0.819333 1.053751 1.962445 0
M  V30 42 H -1.472754 -0.255618 -0.674812 0
M  V30 43 H -2.283208 0.162876 0.920855 0
M  V30 44 H -2.854910 1.202310 -1.910170 0
M  V30 45 H -4.030768 0.198048 -0.909963 0
M  V30 46 H -4.535226 2.559114 -0.020099 0
M  V30 47 H -0.759769 1.888050 -2.056677 0
M  V30 48 H 0.088802 3.068304 -0.996990 0
M  V30 49 H 0.485076 0.016000 -1.157363 0
M  V30 50 H 1.505497 1.283004 -1.830417 0
M  V30 51 H 1.756364 -3.315023 -0.427205 0
M  V30 52 H -0.972016 -4.787494 -0.738785 0
M  V30 53 H 0.402984 -5.682008 0.098896 0
M  V30 END ATOM
M  V30 BEGIN BOND
M  V30 1 1 1 2
M  V30 2 1 2 3
M  V30 3 2 3 4
M  V30 4 1 4 5
M  V30 5 2 5 6
M  V30 6 1 6 7
M  V30 7 2 7 8
M  V30 8 1 8 9
M  V30 9 2 9 10
M  V30 10 1 10 11
M  V30 11 1 11 12
M  V30 12 2 11 13
M  V30 13 1 13 14
M  V30 14 1 14 15
M  V30 15 1 15 16
M  V30 16 1 16 17
M  V30 17 1 17 18
M  V30 18 1 18 19
M  V30 19 1 19 20
M  V30 20 1 20 21
M  V30 21 2 21 22
M  V30 22 1 17 23
M  V30 23 1 23 24
M  V30 24 1 6 25
M  V30 25 2 25 26
M  V30 26 1 26 27
M  V30 27 1 27 28
M  V30 28 2 28 29
M  V30 29 2 28 30
M  V30 30 1 28 2
M  V30 31 1 26 3
M  V30 32 1 13 7
M  V30 33 1 24 14
M  V30 34 1 21 17
M  V30 35 1 1 31
M  V30 36 1 1 32
M  V30 37 1 1 33
M  V30 38 1 4 34
M  V30 39 1 5 35
M  V30 40 1 8 36
M  V30 41 1 10 37
M  V30 42 1 15 38
M  V30 43 1 15 39
M  V30 44 1 16 40
M  V30 45 1 16 41
M  V30 46 1 18 42
M  V30 47 1 18 43
M  V30 48 1 19 44
M  V30 49 1 19 45
M  V30 50 1 20 46
M  V30 51 1 23 47
M  V30 52 1 23 48
M  V30 53 1 24 49
M  V30 54 1 24 50
M  V30 55 1 25 51
M  V30 56 1 27 52
M  V30 57 1 27 53
M  V30 END BOND
M  V30 END CTAB
M  END
>  <Dataset>  (641) 
ChEMBL_Kinases

>  <Ligand_Instance>  (641) 
nan

>  <PDB_ID>  (641) 
nan

>  <Standardized_SMILES>  (641) 
CN1c2ccc(-c3cncc(Cl)c3N3CCC4(CCNC4=O)CC3)cc2CS1(=O)=O

>  <Name>  (641) 
nan

>  <Pocket>  (641) 
nan

>  <ATP_Site>  (641) 
nan

>  <Peripheral>  (641) 
nan

>  <Num_H_Atoms_ProtBoundConf>  (641) 
nan

>  <Num_Resolved_Atoms>  (641) 
nan

>  <Num_Not_Resolved_Atoms>  (641) 
nan

$$$$
CHEMBL50717
     RDKit          3D

  0  0  0  0  0  0  0  0  0  0999 V3000
M  V30 BEGIN CTAB
M  V30 COUNTS 72 73 0 0 0
M  V30 BEGIN ATOM
M  V30 1 C 2.189995 -4.968195 -2.873488 0
M  V30 2 C 2.838406 -3.855116 -2.118403 0
M  V30 3 C 1.937814 -2.609752 -2.070787 0
M  V30 4 C 2.689881 -1.594358 -1.303289 0
M  V30 5 C 2.057832 -0.265962 -1.095217 0 CFG=2
M  V30 6 C 3.028690 0.528361 -0.309197 0
M  V30 7 O 3.629161 1.497426 -0.840710 0
M  V30 8 N 3.403255 0.330409 1.067833 0
M  V30 9 C 2.616059 -0.215000 2.134090 0 CFG=2
M  V30 10 C 3.435580 -1.351177 2.762536 0
M  V30 11 O 4.639792 -0.891465 3.259872 0
M  V30 12 C 1.310230 -0.805132 1.763901 0
M  V30 13 C 0.447719 0.063774 0.852285 0 CFG=2
M  V30 14 C 0.610124 1.465811 1.289020 0
M  V30 15 C -0.984164 -0.357085 1.167206 0
M  V30 16 C -2.055060 0.219745 0.324809 0
M  V30 17 C -3.185347 -0.724319 0.091955 0
M  V30 18 C -3.050901 -2.002720 -0.559514 0
M  V30 19 C -2.577420 -2.079330 -1.980865 0
M  V30 20 C -2.554056 -3.563294 -2.420736 0
M  V30 21 C -2.697654 1.412480 1.052443 0
M  V30 22 C -3.313101 1.138960 2.358743 0
M  V30 23 C -3.844835 2.506716 2.860246 0
M  V30 24 C -4.500989 2.322088 4.211251 0
M  V30 25 C -1.606074 0.809096 -0.982586 0
M  V30 26 C -0.190652 0.668454 -1.364403 0
M  V30 27 C 0.662007 -0.258583 -0.574756 0 CFG=1
M  V30 28 H 2.441585 -5.977123 -2.485163 0
M  V30 29 H 1.096485 -4.846162 -2.840584 0
M  V30 30 H 2.586227 -4.955263 -3.921179 0
M  V30 31 H 3.836544 -3.596340 -2.544201 0
M  V30 32 H 3.062823 -4.224963 -1.091864 0
M  V30 33 H 0.990827 -2.956937 -1.663800 0
M  V30 34 H 1.790782 -2.322802 -3.134942 0
M  V30 35 H 3.642609 -1.405185 -1.881498 0
M  V30 36 H 3.070537 -2.070872 -0.360985 0
M  V30 37 H 2.032486 0.231563 -2.107243 0
M  V30 38 H 4.362614 0.606828 1.372171 0
M  V30 39 H 2.462206 0.524939 2.959968 0
M  V30 40 H 2.775462 -1.752660 3.578144 0
M  V30 41 H 3.591254 -2.120085 1.978747 0
M  V30 42 H 5.306951 -0.927679 2.516415 0
M  V30 43 H 1.415140 -1.841984 1.360747 0
M  V30 44 H 0.744513 -0.952916 2.717901 0
M  V30 45 H -0.010695 1.600919 2.200023 0
M  V30 46 H 0.293234 2.241098 0.565418 0
M  V30 47 H 1.623717 1.783595 1.601777 0
M  V30 48 H -0.944637 -1.479664 1.154009 0
M  V30 49 H -1.073692 -0.110700 2.249289 0
M  V30 50 H -3.988175 -0.129298 -0.440363 0
M  V30 51 H -3.653709 -0.879720 1.120292 0
M  V30 52 H -2.506360 -2.803258 -0.014264 0
M  V30 53 H -4.100167 -2.441533 -0.609151 0
M  V30 54 H -3.272806 -1.602891 -2.698430 0
M  V30 55 H -1.528544 -1.767779 -2.122108 0
M  V30 56 H -3.595608 -3.893913 -2.569927 0
M  V30 57 H -2.092444 -4.116027 -1.598761 0
M  V30 58 H -1.997817 -3.626811 -3.375628 0
M  V30 59 H -2.014821 2.282791 1.116580 0
M  V30 60 H -3.538732 1.827929 0.405569 0
M  V30 61 H -2.629089 0.834013 3.170911 0
M  V30 62 H -4.253583 0.549462 2.301531 0
M  V30 63 H -3.007723 3.206562 2.974397 0
M  V30 64 H -4.570437 2.903009 2.106330 0
M  V30 65 H -5.380389 2.992793 4.265363 0
M  V30 66 H -3.764392 2.558373 4.997433 0
M  V30 67 H -4.784555 1.254614 4.371230 0
M  V30 68 H -1.804219 1.929322 -1.052101 0
M  V30 69 H -2.235441 0.444489 -1.835896 0
M  V30 70 H -0.085588 0.333534 -2.444774 0
M  V30 71 H 0.364485 1.656875 -1.383645 0
M  V30 72 H 0.289122 -1.300105 -0.739344 0
M  V30 END ATOM
M  V30 BEGIN BOND
M  V30 1 1 1 2
M  V30 2 1 2 3
M  V30 3 1 3 4
M  V30 4 1 4 5
M  V30 5 1 5 6
M  V30 6 2 6 7
M  V30 7 1 6 8
M  V30 8 1 8 9
M  V30 9 1 9 10
M  V30 10 1 10 11
M  V30 11 1 9 12
M  V30 12 1 12 13
M  V30 13 1 13 14 CFG=3
M  V30 14 1 13 15
M  V30 15 1 15 16
M  V30 16 1 16 17
M  V30 17 1 17 18
M  V30 18 1 18 19
M  V30 19 1 19 20
M  V30 20 1 16 21
M  V30 21 1 21 22
M  V30 22 1 22 23
M  V30 23 1 23 24
M  V30 24 1 16 25
M  V30 25 1 25 26
M  V30 26 1 26 27
M  V30 27 1 27 5
M  V30 28 1 27 13
M  V30 29 1 1 28
M  V30 30 1 1 29
M  V30 31 1 1 30
M  V30 32 1 2 31
M  V30 33 1 2 32
M  V30 34 1 3 33
M  V30 35 1 3 34
M  V30 36 1 4 35
M  V30 37 1 4 36
M  V30 38 1 5 37 CFG=3
M  V30 39 1 8 38
M  V30 40 1 9 39 CFG=1
M  V30 41 1 10 40
M  V30 42 1 10 41
M  V30 43 1 11 42
M  V30 44 1 12 43
M  V30 45 1 12 44
M  V30 46 1 14 45
M  V30 47 1 14 46
M  V30 48 1 14 47
M  V30 49 1 15 48
M  V30 50 1 15 49
M  V30 51 1 17 50
M  V30 52 1 17 51
M  V30 53 1 18 52
M  V30 54 1 18 53
M  V30 55 1 19 54
M  V30 56 1 19 55
M  V30 57 1 20 56
M  V30 58 1 20 57
M  V30 59 1 20 58
M  V30 60 1 21 59
M  V30 61 1 21 60
M  V30 62 1 22 61
M  V30 63 1 22 62
M  V30 64 1 23 63
M  V30 65 1 23 64
M  V30 66 1 24 65
M  V30 67 1 24 66
M  V30 68 1 24 67
M  V30 69 1 25 68
M  V30 70 1 25 69
M  V30 71 1 26 70
M  V30 72 1 26 71
M  V30 73 1 27 72 CFG=1
M  V30 END BOND
M  V30 END CTAB
M  END
>  <Dataset>  (642) 
ChEMBL_Kinases

>  <Ligand_Instance>  (642) 
nan

>  <PDB_ID>  (642) 
nan

>  <Standardized_SMILES>  (642) 
CCCC[C@@H]1C(=O)N[C@H](CO)C[C@]2(C)CC(CCCC)(CCCC)CC[C@@H]12

>  <Name>  (642) 
nan

>  <Pocket>  (642) 
nan

>  <ATP_Site>  (642) 
nan

>  <Peripheral>  (642) 
nan

>  <Num_H_Atoms_ProtBoundConf>  (642) 
nan

>  <Num_Resolved_Atoms>  (642) 
nan

>  <Num_Not_Resolved_Atoms>  (642) 
nan

$$$$
CHEMBL3797558
     RDKit          3D

  0  0  0  0  0  0  0  0  0  0999 V3000
M  V30 BEGIN CTAB
M  V30 COUNTS 56 60 0 0 0
M  V30 BEGIN ATOM
M  V30 1 C 3.095254 -4.340181 6.561487 0
M  V30 2 N 3.484347 -3.568420 5.385088 0
M  V30 3 C 2.615560 -2.850973 4.621335 0
M  V30 4 C 3.422755 -2.304061 3.645609 0
M  V30 5 C 2.879412 -1.446075 2.598817 0
M  V30 6 C 3.453940 -1.415564 1.334751 0
M  V30 7 C 2.900819 -0.584871 0.375210 0
M  V30 8 C 1.803056 0.227720 0.586592 0
M  V30 9 C 1.452829 0.994953 -0.596172 0
M  V30 10 C 2.488836 1.714516 -1.205916 0
M  V30 11 N 2.344901 2.483198 -2.300278 0
M  V30 12 C 1.127436 2.606716 -2.899192 0
M  V30 13 N 0.960425 3.416037 -4.056654 0
M  V30 14 C 0.095004 1.905574 -2.313512 0
M  V30 15 Cl -1.458325 2.078580 -3.098851 0
M  V30 16 C 0.215522 1.111209 -1.192887 0
M  V30 17 N -0.881990 0.414451 -0.647086 0
M  V30 18 C -1.920969 0.666424 0.328144 0
M  V30 19 C -3.278596 0.626613 -0.323788 0
M  V30 20 C -3.553305 -0.681842 -1.016946 0
M  V30 21 C -4.764217 -0.523254 -1.878821 0
M  V30 22 C -5.349362 -1.913237 -1.978027 0
M  V30 23 N -4.770898 -2.609114 -0.859975 0
M  V30 24 C -3.896358 -1.780568 -0.080020 0
M  V30 25 O -3.620502 -2.109044 1.113355 0
M  V30 26 C -2.381500 -1.147247 -1.846626 0
M  V30 27 C -1.064928 -0.920389 -1.164281 0
M  V30 28 C 1.246449 0.184657 1.846877 0
M  V30 29 C 1.783599 -0.636879 2.815502 0
M  V30 30 C 4.739653 -2.678003 3.812362 0
M  V30 31 N 4.731865 -3.471242 4.916081 0
M  V30 32 H 2.967928 -5.392623 6.241596 0
M  V30 33 H 2.090831 -4.006584 6.903482 0
M  V30 34 H 3.811966 -4.217461 7.394920 0
M  V30 35 H 1.554994 -2.782566 4.810365 0
M  V30 36 H 4.297681 -2.052024 1.202022 0
M  V30 37 H 3.457205 -0.667521 -0.564090 0
M  V30 38 H 3.511337 1.701191 -0.825715 0
M  V30 39 H 0.604633 4.396526 -4.166132 0
M  V30 40 H 1.218231 3.022902 -4.981963 0
M  V30 41 H -1.808684 1.657052 0.811023 0
M  V30 42 H -1.902417 -0.130054 1.099172 0
M  V30 43 H -4.020448 0.697659 0.518124 0
M  V30 44 H -3.494258 1.474698 -0.984958 0
M  V30 45 H -5.482119 0.131189 -1.363591 0
M  V30 46 H -4.469130 -0.115060 -2.882734 0
M  V30 47 H -5.170851 -2.403735 -2.952227 0
M  V30 48 H -6.470564 -1.890130 -1.849326 0
M  V30 49 H -5.034101 -3.627036 -0.722684 0
M  V30 50 H -2.472278 -0.732215 -2.848738 0
M  V30 51 H -2.488327 -2.254777 -1.973145 0
M  V30 52 H -0.991002 -1.627679 -0.301683 0
M  V30 53 H -0.281810 -1.251127 -1.872740 0
M  V30 54 H 0.402580 0.839508 1.960271 0
M  V30 55 H 1.293859 -0.620055 3.784867 0
M  V30 56 H 5.597540 -2.405628 3.204556 0
M  V30 END ATOM
M  V30 BEGIN BOND
M  V30 1 1 1 2
M  V30 2 1 2 3
M  V30 3 2 3 4
M  V30 4 1 4 5
M  V30 5 2 5 6
M  V30 6 1 6 7
M  V30 7 2 7 8
M  V30 8 1 8 9
M  V30 9 2 9 10
M  V30 10 1 10 11
M  V30 11 2 11 12
M  V30 12 1 12 13
M  V30 13 1 12 14
M  V30 14 1 14 15
M  V30 15 2 14 16
M  V30 16 1 16 17
M  V30 17 1 17 18
M  V30 18 1 18 19
M  V30 19 1 19 20
M  V30 20 1 20 21
M  V30 21 1 21 22
M  V30 22 1 22 23
M  V30 23 1 23 24
M  V30 24 2 24 25
M  V30 25 1 20 26
M  V30 26 1 26 27
M  V30 27 1 8 28
M  V30 28 2 28 29
M  V30 29 1 4 30
M  V30 30 2 30 31
M  V30 31 1 31 2
M  V30 32 1 29 5
M  V30 33 1 16 9
M  V30 34 1 27 17
M  V30 35 1 24 20
M  V30 36 1 1 32
M  V30 37 1 1 33
M  V30 38 1 1 34
M  V30 39 1 3 35
M  V30 40 1 6 36
M  V30 41 1 7 37
M  V30 42 1 10 38
M  V30 43 1 13 39
M  V30 44 1 13 40
M  V30 45 1 18 41
M  V30 46 1 18 42
M  V30 47 1 19 43
M  V30 48 1 19 44
M  V30 49 1 21 45
M  V30 50 1 21 46
M  V30 51 1 22 47
M  V30 52 1 22 48
M  V30 53 1 23 49
M  V30 54 1 26 50
M  V30 55 1 26 51
M  V30 56 1 27 52
M  V30 57 1 27 53
M  V30 58 1 28 54
M  V30 59 1 29 55
M  V30 60 1 30 56
M  V30 END BOND
M  V30 END CTAB
M  END
>  <Dataset>  (643) 
ChEMBL_Kinases

>  <Ligand_Instance>  (643) 
nan

>  <PDB_ID>  (643) 
nan

>  <Standardized_SMILES>  (643) 
Cn1cc(-c2ccc(-c3cnc(N)c(Cl)c3N3CCC4(CCNC4=O)CC3)cc2)cn1

>  <Name>  (643) 
nan

>  <Pocket>  (643) 
nan

>  <ATP_Site>  (643) 
nan

>  <Peripheral>  (643) 
nan

>  <Num_H_Atoms_ProtBoundConf>  (643) 
nan

>  <Num_Resolved_Atoms>  (643) 
nan

>  <Num_Not_Resolved_Atoms>  (643) 
nan

$$$$
CHEMBL507170
     RDKit          3D

  0  0  0  0  0  0  0  0  0  0999 V3000
M  V30 BEGIN CTAB
M  V30 COUNTS 46 49 0 0 0
M  V30 BEGIN ATOM
M  V30 1 O 0.640965 -5.257883 2.415345 0
M  V30 2 C -0.052403 -4.328812 1.859652 0
M  V30 3 N -1.315970 -4.242854 2.459454 0
M  V30 4 C -2.047785 -4.916508 3.505380 0
M  V30 5 C -2.445836 -4.184725 4.738928 0
M  V30 6 C -3.512488 -4.588961 3.735213 0
M  V30 7 C 0.285957 -3.407482 0.755424 0
M  V30 8 C 1.264843 -2.447765 0.726964 0
M  V30 9 C 1.427262 -1.710376 -0.448999 0
M  V30 10 C 0.629836 -1.925655 -1.577171 0
M  V30 11 N 0.766377 -1.152147 -2.753973 0
M  V30 12 C 0.955878 0.215740 -2.523592 0
M  V30 13 N 1.783731 0.967854 -1.738260 0
M  V30 14 C 1.687015 2.303383 -1.717749 0
M  V30 15 N 2.539207 3.087616 -0.902170 0
M  V30 16 C 2.064509 3.217308 0.439976 0
M  V30 17 C 2.794154 4.049018 1.300757 0
M  V30 18 C 2.472627 4.271890 2.621547 0
M  V30 19 C 1.360579 3.638306 3.134563 0
M  V30 20 O 0.821734 3.690003 4.409983 0
M  V30 21 C 0.614853 2.807447 2.307580 0
M  V30 22 C 0.964754 2.600541 0.976190 0
M  V30 23 N 0.795900 2.988756 -2.444886 0
M  V30 24 C -0.082479 2.353111 -3.264869 0
M  V30 25 C 0.031310 0.960105 -3.275975 0
M  V30 26 F -0.897768 0.417722 -4.136989 0
M  V30 27 C -0.350258 -2.918728 -1.491427 0
M  V30 28 C -0.549056 -3.675030 -0.344147 0
M  V30 29 H -1.930965 -3.462519 2.046290 0
M  V30 30 H -1.710325 -5.951067 3.718158 0
M  V30 31 H -2.172353 -3.145001 4.908188 0
M  V30 32 H -2.556149 -4.761713 5.689573 0
M  V30 33 H -4.237936 -5.380412 3.965913 0
M  V30 34 H -3.902206 -3.791718 3.056068 0
M  V30 35 H 1.847366 -2.324633 1.624168 0
M  V30 36 H 2.202161 -0.963051 -0.438776 0
M  V30 37 H 0.746593 -1.518076 -3.753511 0
M  V30 38 H 3.421691 3.533601 -1.211688 0
M  V30 39 H 3.684527 4.563792 0.911854 0
M  V30 40 H 2.981913 4.888427 3.326128 0
M  V30 41 H 0.832215 2.822500 4.956025 0
M  V30 42 H -0.288562 2.250137 2.609540 0
M  V30 43 H 0.403153 1.955892 0.299427 0
M  V30 44 H -0.777128 2.934145 -3.824895 0
M  V30 45 H -0.975873 -3.095363 -2.376198 0
M  V30 46 H -1.327274 -4.413281 -0.385110 0
M  V30 END ATOM
M  V30 BEGIN BOND
M  V30 1 2 1 2
M  V30 2 1 2 3
M  V30 3 1 3 4
M  V30 4 1 4 5
M  V30 5 1 5 6
M  V30 6 1 2 7
M  V30 7 2 7 8
M  V30 8 1 8 9
M  V30 9 2 9 10
M  V30 10 1 10 11
M  V30 11 1 11 12
M  V30 12 2 12 13
M  V30 13 1 13 14
M  V30 14 1 14 15
M  V30 15 1 15 16
M  V30 16 2 16 17
M  V30 17 1 17 18
M  V30 18 2 18 19
M  V30 19 1 19 20
M  V30 20 1 19 21
M  V30 21 2 21 22
M  V30 22 2 14 23
M  V30 23 1 23 24
M  V30 24 2 24 25
M  V30 25 1 25 26
M  V30 26 1 10 27
M  V30 27 2 27 28
M  V30 28 1 6 4
M  V30 29 1 28 7
M  V30 30 1 25 12
M  V30 31 1 22 16
M  V30 32 1 3 29
M  V30 33 1 4 30
M  V30 34 1 5 31
M  V30 35 1 5 32
M  V30 36 1 6 33
M  V30 37 1 6 34
M  V30 38 1 8 35
M  V30 39 1 9 36
M  V30 40 1 11 37
M  V30 41 1 15 38
M  V30 42 1 17 39
M  V30 43 1 18 40
M  V30 44 1 20 41
M  V30 45 1 21 42
M  V30 46 1 22 43
M  V30 47 1 24 44
M  V30 48 1 27 45
M  V30 49 1 28 46
M  V30 END BOND
M  V30 END CTAB
M  END
>  <Dataset>  (644) 
ChEMBL_Kinases

>  <Ligand_Instance>  (644) 
nan

>  <PDB_ID>  (644) 
nan

>  <Standardized_SMILES>  (644) 
O=C(NC1CC1)c1ccc(Nc2nc(Nc3ccc(O)cc3)ncc2F)cc1

>  <Name>  (644) 
nan

>  <Pocket>  (644) 
nan

>  <ATP_Site>  (644) 
nan

>  <Peripheral>  (644) 
nan

>  <Num_H_Atoms_ProtBoundConf>  (644) 
nan

>  <Num_Resolved_Atoms>  (644) 
nan

>  <Num_Not_Resolved_Atoms>  (644) 
nan

$$$$
CHEMBL3797518
     RDKit          3D

  0  0  0  0  0  0  0  0  0  0999 V3000
M  V30 BEGIN CTAB
M  V30 COUNTS 41 44 0 0 0
M  V30 BEGIN ATOM
M  V30 1 C -2.011384 1.314637 3.449594 0
M  V30 2 S -3.196071 0.696506 2.252120 0
M  V30 3 C -2.439961 -0.280354 0.999355 0
M  V30 4 S -2.169505 -2.151726 1.083108 0
M  V30 5 C -1.427664 -2.247415 -0.446957 0
M  V30 6 C -0.968602 -3.551090 -0.985516 0
M  V30 7 C -1.087477 -4.741239 -0.298665 0
M  V30 8 C -0.565199 -5.766589 -1.095693 0
M  V30 9 N -0.148305 -5.180488 -2.230606 0
M  V30 10 N -0.399099 -3.889382 -2.131491 0
M  V30 11 C -1.369829 -1.003737 -1.000864 0
M  V30 12 C -1.896093 0.014271 -0.250124 0
M  V30 13 C -1.913116 1.377299 -0.771771 0
M  V30 14 O -2.373717 2.363061 -0.147042 0
M  V30 15 N -1.387566 1.661059 -2.061876 0
M  V30 16 C -1.362175 0.499191 -2.945235 0
M  V30 17 C -0.761730 -0.709580 -2.320381 0 CFG=1
M  V30 18 C 0.753898 -0.627827 -2.226172 0
M  V30 19 C 1.246914 0.405857 -1.319751 0
M  V30 20 C 1.566196 1.713186 -1.609919 0
M  V30 21 C 2.026877 2.623636 -0.684431 0
M  V30 22 C 2.190152 2.232484 0.626708 0
M  V30 23 C 1.896616 0.942740 1.014454 0
M  V30 24 C 1.440450 0.089798 0.031167 0
M  V30 25 H -2.365954 2.238325 3.965044 0
M  V30 26 H -1.941988 0.554637 4.278298 0
M  V30 27 H -0.997319 1.454195 3.033739 0
M  V30 28 H -1.482677 -4.984284 0.666212 0
M  V30 29 H -0.498870 -6.818781 -0.869716 0
M  V30 30 H 0.299769 -5.602589 -3.076784 0
M  V30 31 H -1.062060 2.638741 -2.314086 0
M  V30 32 H -0.840502 0.757072 -3.889125 0
M  V30 33 H -2.411614 0.281195 -3.217746 0
M  V30 34 H -0.953652 -1.552281 -3.048655 0
M  V30 35 H 1.111799 -1.601758 -1.839465 0
M  V30 36 H 1.195710 -0.536092 -3.254359 0
M  V30 37 H 1.427526 2.001124 -2.662332 0
M  V30 38 H 2.257576 3.650440 -1.007191 0
M  V30 39 H 2.551352 2.941097 1.359734 0
M  V30 40 H 2.002144 0.571748 2.024699 0
M  V30 41 H 1.205934 -0.940200 0.340359 0
M  V30 END ATOM
M  V30 BEGIN BOND
M  V30 1 1 1 2
M  V30 2 1 2 3
M  V30 3 1 3 4
M  V30 4 1 4 5
M  V30 5 1 5 6
M  V30 6 1 6 7
M  V30 7 2 7 8
M  V30 8 1 8 9
M  V30 9 1 9 10
M  V30 10 2 5 11
M  V30 11 1 11 12
M  V30 12 1 12 13
M  V30 13 2 13 14
M  V30 14 1 13 15
M  V30 15 1 15 16
M  V30 16 1 16 17
M  V30 17 1 17 18
M  V30 18 1 18 19
M  V30 19 2 19 20
M  V30 20 1 20 21
M  V30 21 2 21 22
M  V30 22 1 22 23
M  V30 23 2 23 24
M  V30 24 2 12 3
M  V30 25 1 24 19
M  V30 26 2 10 6
M  V30 27 1 17 11
M  V30 28 1 1 25
M  V30 29 1 1 26
M  V30 30 1 1 27
M  V30 31 1 7 28
M  V30 32 1 8 29
M  V30 33 1 9 30
M  V30 34 1 15 31
M  V30 35 1 16 32
M  V30 36 1 16 33
M  V30 37 1 17 34 CFG=3
M  V30 38 1 18 35
M  V30 39 1 18 36
M  V30 40 1 20 37
M  V30 41 1 21 38
M  V30 42 1 22 39
M  V30 43 1 23 40
M  V30 44 1 24 41
M  V30 END BOND
M  V30 END CTAB
M  END
>  <Dataset>  (645) 
ChEMBL_Kinases

>  <Ligand_Instance>  (645) 
nan

>  <PDB_ID>  (645) 
nan

>  <Standardized_SMILES>  (645) 
CSc1sc(-c2cc[nH]n2)c2c1C(=O)NC[C@H]2Cc1ccccc1

>  <Name>  (645) 
nan

>  <Pocket>  (645) 
nan

>  <ATP_Site>  (645) 
nan

>  <Peripheral>  (645) 
nan

>  <Num_H_Atoms_ProtBoundConf>  (645) 
nan

>  <Num_Resolved_Atoms>  (645) 
nan

>  <Num_Not_Resolved_Atoms>  (645) 
nan

$$$$
CHEMBL3797495
     RDKit          3D

  0  0  0  0  0  0  0  0  0  0999 V3000
M  V30 BEGIN CTAB
M  V30 COUNTS 53 57 0 0 0
M  V30 BEGIN ATOM
M  V30 1 C 0.520771 -4.713314 4.893695 0
M  V30 2 C 0.440034 -3.828942 3.698562 0
M  V30 3 N 1.306051 -2.880167 3.748740 0
M  V30 4 C 1.183485 -2.064418 2.579117 0
M  V30 5 C 0.877588 -0.651686 2.951198 0
M  V30 6 C 1.881059 0.359452 2.455562 0
M  V30 7 N 2.129502 0.274033 1.031925 0
M  V30 8 C 2.267001 1.086511 -0.122506 0
M  V30 9 C 3.576367 1.480579 -0.310993 0
M  V30 10 Cl 4.928350 1.053460 0.748641 0
M  V30 11 C 3.942713 2.268113 -1.382150 0
M  V30 12 N 2.997250 2.653321 -2.253017 0
M  V30 13 C 1.734133 2.256015 -2.045235 0
M  V30 14 C 1.286969 1.472633 -1.005295 0
M  V30 15 C -0.090634 1.059814 -0.801113 0
M  V30 16 C -0.860649 1.137578 0.333000 0
M  V30 17 C -2.161196 0.686128 0.353519 0
M  V30 18 C -2.767325 0.132280 -0.754562 0
M  V30 19 C -2.069731 0.021669 -1.913776 0
M  V30 20 C -0.747097 0.490297 -1.903176 0
M  V30 21 C -2.800378 -0.587013 -3.057287 0
M  V30 22 S -4.477231 -0.512451 -2.473597 0
M  V30 23 O -5.170409 -1.808607 -2.756725 0
M  V30 24 O -5.210592 0.669227 -3.004104 0
M  V30 25 N -4.107017 -0.343828 -0.771616 0
M  V30 26 C -5.004311 -0.638313 0.312607 0
M  V30 27 C 2.303403 -1.099092 0.602236 0
M  V30 28 C 2.460293 -2.044165 1.765799 0
M  V30 29 C 0.074903 -2.719473 1.837909 0
M  V30 30 O -0.457182 -2.403486 0.715691 0
M  V30 31 N -0.403300 -3.853185 2.553009 0
M  V30 32 H 0.159805 -4.165031 5.793119 0
M  V30 33 H -0.214758 -5.546681 4.732370 0
M  V30 34 H 1.514282 -5.124161 5.074962 0
M  V30 35 H -0.164241 -0.366890 2.700199 0
M  V30 36 H 0.921137 -0.571828 4.069698 0
M  V30 37 H 2.857097 0.268882 2.966803 0
M  V30 38 H 1.491210 1.363998 2.669462 0
M  V30 39 H 4.951298 2.618286 -1.597765 0
M  V30 40 H 0.993572 2.591666 -2.779216 0
M  V30 41 H -0.374364 1.578033 1.185602 0
M  V30 42 H -2.651133 0.806945 1.308079 0
M  V30 43 H -0.174722 0.403623 -2.841262 0
M  V30 44 H -2.656664 0.005581 -3.981906 0
M  V30 45 H -2.461621 -1.641951 -3.178239 0
M  V30 46 H -5.871541 0.056905 0.293513 0
M  V30 47 H -4.435155 -0.627146 1.261738 0
M  V30 48 H -5.406192 -1.678254 0.201327 0
M  V30 49 H 1.494225 -1.408392 -0.085943 0
M  V30 50 H 3.243714 -1.240510 -0.010478 0
M  V30 51 H 3.256810 -1.652803 2.416855 0
M  V30 52 H 2.668998 -3.058512 1.429842 0
M  V30 53 H -1.138508 -4.578714 2.412788 0
M  V30 END ATOM
M  V30 BEGIN BOND
M  V30 1 1 1 2
M  V30 2 2 2 3
M  V30 3 1 3 4
M  V30 4 1 4 5
M  V30 5 1 5 6
M  V30 6 1 6 7
M  V30 7 1 7 8
M  V30 8 2 8 9
M  V30 9 1 9 10
M  V30 10 1 9 11
M  V30 11 2 11 12
M  V30 12 1 12 13
M  V30 13 2 13 14
M  V30 14 1 14 15
M  V30 15 2 15 16
M  V30 16 1 16 17
M  V30 17 2 17 18
M  V30 18 1 18 19
M  V30 19 2 19 20
M  V30 20 1 19 21
M  V30 21 1 21 22
M  V30 22 2 22 23
M  V30 23 2 22 24
M  V30 24 1 22 25
M  V30 25 1 25 26
M  V30 26 1 7 27
M  V30 27 1 27 28
M  V30 28 1 4 29
M  V30 29 2 29 30
M  V30 30 1 29 31
M  V30 31 1 31 2
M  V30 32 1 28 4
M  V30 33 1 14 8
M  V30 34 1 20 15
M  V30 35 1 25 18
M  V30 36 1 1 32
M  V30 37 1 1 33
M  V30 38 1 1 34
M  V30 39 1 5 35
M  V30 40 1 5 36
M  V30 41 1 6 37
M  V30 42 1 6 38
M  V30 43 1 11 39
M  V30 44 1 13 40
M  V30 45 1 16 41
M  V30 46 1 17 42
M  V30 47 1 20 43
M  V30 48 1 21 44
M  V30 49 1 21 45
M  V30 50 1 26 46
M  V30 51 1 26 47
M  V30 52 1 26 48
M  V30 53 1 27 49
M  V30 54 1 27 50
M  V30 55 1 28 51
M  V30 56 1 28 52
M  V30 57 1 31 53
M  V30 END BOND
M  V30 END CTAB
M  END
>  <Dataset>  (646) 
ChEMBL_Kinases

>  <Ligand_Instance>  (646) 
nan

>  <PDB_ID>  (646) 
nan

>  <Standardized_SMILES>  (646) 
CC1=NC2(CCN(c3c(Cl)cncc3-c3ccc4c(c3)CS(=O)(=O)N4C)CC2)C(=O)N1

>  <Name>  (646) 
nan

>  <Pocket>  (646) 
nan

>  <ATP_Site>  (646) 
nan

>  <Peripheral>  (646) 
nan

>  <Num_H_Atoms_ProtBoundConf>  (646) 
nan

>  <Num_Resolved_Atoms>  (646) 
nan

>  <Num_Not_Resolved_Atoms>  (646) 
nan

$$$$
CHEMBL3702255
     RDKit          3D

  0  0  0  0  0  0  0  0  0  0999 V3000
M  V30 BEGIN CTAB
M  V30 COUNTS 40 42 0 0 0
M  V30 BEGIN ATOM
M  V30 1 C -0.063156 -2.731117 1.614080 0
M  V30 2 C 0.665574 -2.791381 0.319890 0
M  V30 3 C 1.786386 -3.588203 0.252222 0
M  V30 4 C 2.428705 -4.414621 1.242048 0
M  V30 5 O 2.144329 -4.632878 2.432615 0
M  V30 6 O 3.566444 -5.141528 0.943391 0
M  V30 7 S 2.379264 -3.438105 -1.381402 0
M  V30 8 C 1.081034 -2.284897 -1.944451 0
M  V30 9 N 0.857753 -1.689243 -3.159379 0
M  V30 10 C -0.177080 -0.871747 -3.333829 0
M  V30 11 N -0.925292 -0.708456 -2.256813 0
M  V30 12 C -0.729293 -1.269075 -1.082812 0
M  V30 13 N -1.734752 -0.859391 -0.167381 0
M  V30 14 C -1.569314 0.531008 0.211820 0
M  V30 15 C -2.774603 1.160451 -0.161170 0
M  V30 16 C -2.963034 2.526808 0.052994 0
M  V30 17 C -1.878827 3.177039 0.649511 0
M  V30 18 N -0.739826 2.592096 1.004316 0
M  V30 19 C -0.551271 1.291096 0.804930 0
M  V30 20 O 0.472439 0.435962 1.052687 0
M  V30 21 C 1.714657 0.593729 1.614719 0
M  V30 22 C 1.810231 1.061463 3.018342 0
M  V30 23 C 1.226020 2.397139 3.331543 0
M  V30 24 F 3.182027 1.173182 3.305983 0
M  V30 25 C 0.312066 -2.123542 -0.820311 0
M  V30 26 H -1.165063 -2.674954 1.511158 0
M  V30 27 H 0.080055 -3.711122 2.168832 0
M  V30 28 H 0.290587 -1.959993 2.302008 0
M  V30 29 H 4.273443 -5.388140 1.606835 0
M  V30 30 H -0.186867 -0.505727 -4.342509 0
M  V30 31 H -2.559788 -1.383084 0.255654 0
M  V30 32 H -3.663435 0.749304 -0.624693 0
M  V30 33 H -3.825873 3.100731 -0.186829 0
M  V30 34 H -1.949764 4.257088 0.850403 0
M  V30 35 H 2.422380 1.176738 0.942685 0
M  V30 36 H 2.200454 -0.436660 1.602281 0
M  V30 37 H 1.408758 0.252021 3.674089 0
M  V30 38 H 1.479740 3.129447 2.545980 0
M  V30 39 H 0.171584 2.312103 3.592541 0
M  V30 40 H 1.706789 2.838018 4.263852 0
M  V30 END ATOM
M  V30 BEGIN BOND
M  V30 1 1 1 2
M  V30 2 2 2 3
M  V30 3 1 3 4
M  V30 4 2 4 5
M  V30 5 1 4 6
M  V30 6 1 3 7
M  V30 7 1 7 8
M  V30 8 2 8 9
M  V30 9 1 9 10
M  V30 10 2 10 11
M  V30 11 1 11 12
M  V30 12 1 12 13
M  V30 13 1 13 14
M  V30 14 2 14 15
M  V30 15 1 15 16
M  V30 16 2 16 17
M  V30 17 1 17 18
M  V30 18 2 18 19
M  V30 19 1 19 20
M  V30 20 1 20 21
M  V30 21 1 21 22
M  V30 22 1 22 23
M  V30 23 1 22 24
M  V30 24 2 12 25
M  V30 25 1 25 2
M  V30 26 1 25 8
M  V30 27 1 19 14
M  V30 28 1 1 26
M  V30 29 1 1 27
M  V30 30 1 1 28
M  V30 31 1 6 29
M  V30 32 1 10 30
M  V30 33 1 13 31
M  V30 34 1 15 32
M  V30 35 1 16 33
M  V30 36 1 17 34
M  V30 37 1 21 35
M  V30 38 1 21 36
M  V30 39 1 22 37
M  V30 40 1 23 38
M  V30 41 1 23 39
M  V30 42 1 23 40
M  V30 END BOND
M  V30 END CTAB
M  END
>  <Dataset>  (647) 
ChEMBL_Kinases

>  <Ligand_Instance>  (647) 
nan

>  <PDB_ID>  (647) 
nan

>  <Standardized_SMILES>  (647) 
Cc1c(C(=O)O)sc2ncnc(Nc3cccnc3OCC(C)F)c12

>  <Name>  (647) 
nan

>  <Pocket>  (647) 
nan

>  <ATP_Site>  (647) 
nan

>  <Peripheral>  (647) 
nan

>  <Num_H_Atoms_ProtBoundConf>  (647) 
nan

>  <Num_Resolved_Atoms>  (647) 
nan

>  <Num_Not_Resolved_Atoms>  (647) 
nan

$$$$
CHEMBL5071724
     RDKit          3D

  0  0  0  0  0  0  0  0  0  0999 V3000
M  V30 BEGIN CTAB
M  V30 COUNTS 54 58 0 0 0
M  V30 BEGIN ATOM
M  V30 1 C -1.539263 -0.159445 2.975574 0
M  V30 2 N -0.958982 -1.035573 1.937563 0
M  V30 3 C 0.400150 -1.388188 1.713066 0
M  V30 4 N 0.710798 -2.659512 2.081403 0
M  V30 5 C 1.944508 -3.167319 1.987376 0
M  V30 6 N 2.927430 -2.389049 1.506436 0
M  V30 7 C 2.704875 -1.106208 1.113717 0
M  V30 8 N 3.474662 -0.126986 0.601163 0
M  V30 9 C 2.692930 0.949734 0.394112 0
M  V30 10 C 3.025690 2.188357 -0.122911 0
M  V30 11 C 1.998494 3.106523 -0.229703 0
M  V30 12 C 2.330027 4.421640 -0.778100 0
M  V30 13 C 1.503602 5.507988 -0.990941 0
M  V30 14 C 2.230005 6.551848 -1.528028 0
M  V30 15 C 3.511681 6.043152 -1.624015 0
M  V30 16 O 3.519042 4.794635 -1.173168 0
M  V30 17 C 0.690849 2.857683 0.143438 0
M  V30 18 C 0.392738 1.610756 0.656066 0
M  V30 19 C 1.394605 0.681532 0.772858 0
M  V30 20 C 1.423622 -0.614316 1.223260 0
M  V30 21 C -2.058486 -1.522389 1.107783 0
M  V30 22 C -3.003413 -2.249905 2.012892 0
M  V30 23 C -3.818851 -3.314101 1.351652 0
M  V30 24 C -3.203017 -3.950042 0.159372 0
M  V30 25 N -1.777662 -3.764140 0.147627 0
M  V30 26 C -1.158050 -4.441907 -0.971062 0
M  V30 27 C -1.210994 -5.940534 -0.874750 0
M  V30 28 C -0.524635 -6.368922 0.329809 0
M  V30 29 N 0.030558 -6.727954 1.283394 0
M  V30 30 C -1.554322 -2.342619 -0.043405 0
M  V30 31 H -2.152351 -0.747802 3.703448 0
M  V30 32 H -2.184856 0.609047 2.551789 0
M  V30 33 H -0.700621 0.254620 3.594913 0
M  V30 34 H 2.145845 -4.197872 2.297604 0
M  V30 35 H 4.502792 -0.267426 0.426159 0
M  V30 36 H 4.043866 2.399676 -0.419174 0
M  V30 37 H 0.426803 5.525484 -0.762265 0
M  V30 38 H 1.896505 7.546482 -1.815151 0
M  V30 39 H 4.397879 6.529499 -1.994096 0
M  V30 40 H -0.040263 3.628124 0.025258 0
M  V30 41 H -0.637567 1.482678 0.915648 0
M  V30 42 H -2.521751 -0.609832 0.675894 0
M  V30 43 H -2.487242 -2.742510 2.864862 0
M  V30 44 H -3.693448 -1.510417 2.471486 0
M  V30 45 H -4.812128 -2.892869 1.033448 0
M  V30 46 H -4.099069 -4.108551 2.074650 0
M  V30 47 H -3.413293 -5.056649 0.180545 0
M  V30 48 H -3.687516 -3.596786 -0.776247 0
M  V30 49 H -1.582418 -4.093623 -1.938113 0
M  V30 50 H -0.076651 -4.157807 -0.966564 0
M  V30 51 H -2.260271 -6.276936 -0.942398 0
M  V30 52 H -0.691535 -6.412791 -1.749774 0
M  V30 53 H -2.097129 -2.072982 -0.975197 0
M  V30 54 H -0.483216 -2.198952 -0.230504 0
M  V30 END ATOM
M  V30 BEGIN BOND
M  V30 1 1 1 2
M  V30 2 1 2 3
M  V30 3 2 3 4
M  V30 4 1 4 5
M  V30 5 2 5 6
M  V30 6 1 6 7
M  V30 7 1 7 8
M  V30 8 1 8 9
M  V30 9 2 9 10
M  V30 10 1 10 11
M  V30 11 1 11 12
M  V30 12 2 12 13
M  V30 13 1 13 14
M  V30 14 2 14 15
M  V30 15 1 15 16
M  V30 16 2 11 17
M  V30 17 1 17 18
M  V30 18 2 18 19
M  V30 19 1 19 20
M  V30 20 1 2 21
M  V30 21 1 21 22
M  V30 22 1 22 23
M  V30 23 1 23 24
M  V30 24 1 24 25
M  V30 25 1 25 26
M  V30 26 1 26 27
M  V30 27 1 27 28
M  V30 28 3 28 29
M  V30 29 1 25 30
M  V30 30 1 20 3
M  V30 31 1 30 21
M  V30 32 2 20 7
M  V30 33 1 19 9
M  V30 34 1 16 12
M  V30 35 1 1 31
M  V30 36 1 1 32
M  V30 37 1 1 33
M  V30 38 1 5 34
M  V30 39 1 8 35
M  V30 40 1 10 36
M  V30 41 1 13 37
M  V30 42 1 14 38
M  V30 43 1 15 39
M  V30 44 1 17 40
M  V30 45 1 18 41
M  V30 46 1 21 42
M  V30 47 1 22 43
M  V30 48 1 22 44
M  V30 49 1 23 45
M  V30 50 1 23 46
M  V30 51 1 24 47
M  V30 52 1 24 48
M  V30 53 1 26 49
M  V30 54 1 26 50
M  V30 55 1 27 51
M  V30 56 1 27 52
M  V30 57 1 30 53
M  V30 58 1 30 54
M  V30 END BOND
M  V30 END CTAB
M  END
>  <Dataset>  (648) 
ChEMBL_Kinases

>  <Ligand_Instance>  (648) 
nan

>  <PDB_ID>  (648) 
nan

>  <Standardized_SMILES>  (648) 
CN(c1ncnc2[nH]c3cc(-c4ccco4)ccc3c12)C1CCCN(CCC#N)C1

>  <Name>  (648) 
nan

>  <Pocket>  (648) 
nan

>  <ATP_Site>  (648) 
nan

>  <Peripheral>  (648) 
nan

>  <Num_H_Atoms_ProtBoundConf>  (648) 
nan

>  <Num_Resolved_Atoms>  (648) 
nan

>  <Num_Not_Resolved_Atoms>  (648) 
nan

$$$$
CHEMBL3702254
     RDKit          3D

  0  0  0  0  0  0  0  0  0  0999 V3000
M  V30 BEGIN CTAB
M  V30 COUNTS 67 70 0 0 0
M  V30 BEGIN ATOM
M  V30 1 C 0.609664 -1.412238 -1.012397 0
M  V30 2 C 0.902192 -0.330142 -0.042521 0
M  V30 3 C 2.147662 0.141049 0.045963 0
M  V30 4 C 3.475327 0.037506 -0.469670 0
M  V30 5 O 4.390682 0.799984 0.012682 0
M  V30 6 N 4.163094 -0.709831 -1.434332 0
M  V30 7 C 5.547540 -0.594250 -1.753188 0
M  V30 8 C 6.004857 0.726916 -2.264465 0
M  V30 9 C 5.297761 1.141818 -3.539944 0
M  V30 10 N 5.528127 0.174334 -4.600546 0
M  V30 11 C 4.863228 0.546173 -5.833181 0
M  V30 12 C 6.948580 0.005213 -4.865402 0
M  V30 13 S 2.053080 1.389816 1.327155 0
M  V30 14 C 0.282184 1.176541 1.658312 0
M  V30 15 N -0.491484 1.811104 2.532905 0
M  V30 16 C -1.790334 1.494667 2.615126 0
M  V30 17 N -2.151975 0.550365 1.778624 0
M  V30 18 C -1.392131 -0.089476 0.902130 0
M  V30 19 N -2.099681 -1.047044 0.130288 0
M  V30 20 C -3.465870 -1.396704 0.369116 0
M  V30 21 C -4.487330 -1.132751 -0.565298 0
M  V30 22 C -5.811229 -1.480435 -0.404551 0
M  V30 23 C -6.149077 -2.132448 0.755919 0
M  V30 24 F -7.452910 -2.459478 0.882850 0
M  V30 25 C -5.184351 -2.405403 1.685175 0
M  V30 26 C -3.859371 -2.065518 1.541195 0
M  V30 27 O -2.913650 -2.308009 2.400423 0
M  V30 28 C -2.484787 -2.808445 3.552876 0
M  V30 29 C -2.993755 -2.368045 4.880581 0
M  V30 30 C -4.434287 -2.554327 5.168768 0
M  V30 31 C -5.296085 -1.329647 5.035259 0
M  V30 32 O -4.723007 -0.387307 5.932020 0
M  V30 33 C -3.584762 0.064421 5.215017 0
M  V30 34 C -2.501793 -0.963295 5.227641 0
M  V30 35 C -0.053852 0.195572 0.777991 0
M  V30 36 H -0.078955 -1.073881 -1.817601 0
M  V30 37 H 1.500071 -1.772924 -1.534805 0
M  V30 38 H 0.198807 -2.320042 -0.509266 0
M  V30 39 H 3.585002 -1.398565 -1.946460 0
M  V30 40 H 6.183242 -0.848521 -0.872305 0
M  V30 41 H 5.808749 -1.384224 -2.514623 0
M  V30 42 H 7.092896 0.642927 -2.566704 0
M  V30 43 H 5.923352 1.519679 -1.506547 0
M  V30 44 H 5.652981 2.148320 -3.840343 0
M  V30 45 H 4.200254 1.199499 -3.405431 0
M  V30 46 H 3.822364 0.881231 -5.642434 0
M  V30 47 H 5.443748 1.272042 -6.438188 0
M  V30 48 H 4.777165 -0.383118 -6.449823 0
M  V30 49 H 7.060483 -0.320643 -5.921530 0
M  V30 50 H 7.425214 0.993671 -4.674390 0
M  V30 51 H 7.415387 -0.751552 -4.196772 0
M  V30 52 H -2.373470 2.033527 3.335478 0
M  V30 53 H -1.988329 -1.700594 -0.670289 0
M  V30 54 H -4.220447 -0.610053 -1.497814 0
M  V30 55 H -6.528658 -1.239921 -1.169756 0
M  V30 56 H -5.574900 -2.916945 2.537753 0
M  V30 57 H -1.345941 -2.783589 3.668055 0
M  V30 58 H -2.630686 -3.953840 3.500714 0
M  V30 59 H -2.446301 -3.014600 5.648480 0
M  V30 60 H -4.796629 -3.448081 4.662893 0
M  V30 61 H -4.537014 -2.828036 6.277295 0
M  V30 62 H -6.310000 -1.600622 5.350815 0
M  V30 63 H -5.281221 -0.834614 4.069037 0
M  V30 64 H -3.902339 0.369126 4.184249 0
M  V30 65 H -3.227591 0.972339 5.721050 0
M  V30 66 H -1.741422 -0.700453 4.468172 0
M  V30 67 H -1.987304 -0.928442 6.213345 0
M  V30 END ATOM
M  V30 BEGIN BOND
M  V30 1 1 1 2
M  V30 2 2 2 3
M  V30 3 1 3 4
M  V30 4 2 4 5
M  V30 5 1 4 6
M  V30 6 1 6 7
M  V30 7 1 7 8
M  V30 8 1 8 9
M  V30 9 1 9 10
M  V30 10 1 10 11
M  V30 11 1 10 12
M  V30 12 1 3 13
M  V30 13 1 13 14
M  V30 14 2 14 15
M  V30 15 1 15 16
M  V30 16 2 16 17
M  V30 17 1 17 18
M  V30 18 1 18 19
M  V30 19 1 19 20
M  V30 20 2 20 21
M  V30 21 1 21 22
M  V30 22 2 22 23
M  V30 23 1 23 24
M  V30 24 1 23 25
M  V30 25 2 25 26
M  V30 26 1 26 27
M  V30 27 1 27 28
M  V30 28 1 28 29
M  V30 29 1 29 30
M  V30 30 1 30 31
M  V30 31 1 31 32
M  V30 32 1 32 33
M  V30 33 1 33 34
M  V30 34 2 18 35
M  V30 35 1 35 2
M  V30 36 1 35 14
M  V30 37 1 26 20
M  V30 38 1 34 29
M  V30 39 1 1 36
M  V30 40 1 1 37
M  V30 41 1 1 38
M  V30 42 1 6 39
M  V30 43 1 7 40
M  V30 44 1 7 41
M  V30 45 1 8 42
M  V30 46 1 8 43
M  V30 47 1 9 44
M  V30 48 1 9 45
M  V30 49 1 11 46
M  V30 50 1 11 47
M  V30 51 1 11 48
M  V30 52 1 12 49
M  V30 53 1 12 50
M  V30 54 1 12 51
M  V30 55 1 16 52
M  V30 56 1 19 53
M  V30 57 1 21 54
M  V30 58 1 22 55
M  V30 59 1 25 56
M  V30 60 1 28 57
M  V30 61 1 28 58
M  V30 62 1 29 59
M  V30 63 1 30 60
M  V30 64 1 30 61
M  V30 65 1 31 62
M  V30 66 1 31 63
M  V30 67 1 33 64
M  V30 68 1 33 65
M  V30 69 1 34 66
M  V30 70 1 34 67
M  V30 END BOND
M  V30 END CTAB
M  END
>  <Dataset>  (649) 
ChEMBL_Kinases

>  <Ligand_Instance>  (649) 
nan

>  <PDB_ID>  (649) 
nan

>  <Standardized_SMILES>  (649) 
Cc1c(C(=O)NCCCN(C)C)sc2ncnc(Nc3ccc(F)cc3OCC3CCOCC3)c12

>  <Name>  (649) 
nan

>  <Pocket>  (649) 
nan

>  <ATP_Site>  (649) 
nan

>  <Peripheral>  (649) 
nan

>  <Num_H_Atoms_ProtBoundConf>  (649) 
nan

>  <Num_Resolved_Atoms>  (649) 
nan

>  <Num_Not_Resolved_Atoms>  (649) 
nan

$$$$
CHEMBL5076189
     RDKit          3D

  0  0  0  0  0  0  0  0  0  0999 V3000
M  V30 BEGIN CTAB
M  V30 COUNTS 56 60 0 0 0
M  V30 BEGIN ATOM
M  V30 1 C 2.742537 1.815556 -1.415268 0
M  V30 2 C 3.746992 0.695205 -1.573759 0
M  V30 3 C 3.885080 -0.123533 -0.364982 0
M  V30 4 C 4.961619 -0.053629 0.521547 0
M  V30 5 C 5.111196 -0.797026 1.671155 0
M  V30 6 O 6.245245 -0.608649 2.448829 0
M  V30 7 C 4.087467 -1.701808 1.970557 0
M  V30 8 F 4.214523 -2.442261 3.096595 0
M  V30 9 C 3.006764 -1.778710 1.089005 0
M  V30 10 C 2.901155 -1.012034 -0.052952 0
M  V30 11 C 1.681867 -1.317496 -0.784430 0
M  V30 12 C 0.472615 -1.243663 -0.081042 0
M  V30 13 C -0.788702 -1.504520 -0.569097 0
M  V30 14 N -2.001668 -1.413183 0.157107 0
M  V30 15 C -2.221038 -1.013665 1.505074 0 CFG=1
M  V30 16 C -1.939385 0.418844 1.823448 0
M  V30 17 C -2.122784 0.590441 3.331872 0 CFG=1
M  V30 18 C -3.444220 1.244563 3.662861 0
M  V30 19 C -4.435143 0.104308 3.909196 0
M  V30 20 C -3.603590 -1.090617 3.506374 0 CFG=1
M  V30 21 C -3.619520 -1.304359 2.006096 0
M  V30 22 N -2.283075 -0.697577 3.982998 0
M  V30 23 C -0.840327 -1.880282 -1.907444 0
M  V30 24 N -2.032465 -2.157627 -2.482867 0
M  V30 25 C -2.067916 -2.521657 -3.787306 0
M  V30 26 N -3.368511 -2.790043 -4.292796 0
M  V30 27 N -0.947558 -2.604768 -4.489977 0
M  V30 28 C 0.275471 -2.345811 -3.991973 0
M  V30 29 C 0.304630 -1.975725 -2.663734 0
M  V30 30 C 1.527376 -1.697640 -2.099628 0
M  V30 31 H 3.156507 2.811616 -1.670871 0
M  V30 32 H 2.318841 1.882510 -0.404839 0
M  V30 33 H 1.936097 1.655884 -2.190137 0
M  V30 34 H 3.673669 0.158840 -2.526477 0
M  V30 35 H 4.744827 1.235116 -1.663008 0
M  V30 36 H 5.741226 0.652872 0.268957 0
M  V30 37 H 6.133046 -0.707559 3.458320 0
M  V30 38 H 2.279859 -2.526386 1.444910 0
M  V30 39 H 0.527754 -0.959203 0.957149 0
M  V30 40 H -2.884036 -1.667237 -0.335862 0
M  V30 41 H -1.557680 -1.602235 2.217985 0
M  V30 42 H -2.684958 1.066728 1.305845 0
M  V30 43 H -0.922150 0.774088 1.599258 0
M  V30 44 H -1.266354 1.116084 3.802678 0
M  V30 45 H -3.296198 1.762999 4.646357 0
M  V30 46 H -3.807808 1.898441 2.862419 0
M  V30 47 H -4.655950 -0.000246 4.990260 0
M  V30 48 H -5.341675 0.219471 3.300776 0
M  V30 49 H -3.971521 -1.996217 4.037706 0
M  V30 50 H -4.327863 -0.584759 1.545718 0
M  V30 51 H -3.872429 -2.361597 1.794814 0
M  V30 52 H -2.367334 -0.532958 4.995604 0
M  V30 53 H -4.120958 -3.500686 -4.173888 0
M  V30 54 H -3.874321 -2.193832 -5.008567 0
M  V30 55 H 1.187777 -2.415323 -4.571009 0
M  V30 56 H 2.426503 -1.784914 -2.686713 0
M  V30 END ATOM
M  V30 BEGIN BOND
M  V30 1 1 1 2
M  V30 2 1 2 3
M  V30 3 2 3 4
M  V30 4 1 4 5
M  V30 5 1 5 6
M  V30 6 2 5 7
M  V30 7 1 7 8
M  V30 8 1 7 9
M  V30 9 2 9 10
M  V30 10 1 10 11
M  V30 11 2 11 12
M  V30 12 1 12 13
M  V30 13 1 13 14
M  V30 14 1 14 15
M  V30 15 1 15 16
M  V30 16 1 16 17
M  V30 17 1 17 18
M  V30 18 1 18 19
M  V30 19 1 19 20
M  V30 20 1 20 21
M  V30 21 1 20 22
M  V30 22 2 13 23
M  V30 23 1 23 24
M  V30 24 2 24 25
M  V30 25 1 25 26
M  V30 26 1 25 27
M  V30 27 2 27 28
M  V30 28 1 28 29
M  V30 29 2 29 30
M  V30 30 1 10 3
M  V30 31 1 30 11
M  V30 32 1 21 15
M  V30 33 1 29 23
M  V30 34 1 22 17
M  V30 35 1 1 31
M  V30 36 1 1 32
M  V30 37 1 1 33
M  V30 38 1 2 34
M  V30 39 1 2 35
M  V30 40 1 4 36
M  V30 41 1 6 37
M  V30 42 1 9 38
M  V30 43 1 12 39
M  V30 44 1 14 40
M  V30 45 1 15 41 CFG=1
M  V30 46 1 16 42
M  V30 47 1 16 43
M  V30 48 1 17 44 CFG=1
M  V30 49 1 18 45
M  V30 50 1 18 46
M  V30 51 1 19 47
M  V30 52 1 19 48
M  V30 53 1 20 49 CFG=1
M  V30 54 1 21 50
M  V30 55 1 21 51
M  V30 56 1 22 52
M  V30 57 1 26 53
M  V30 58 1 26 54
M  V30 59 1 28 55
M  V30 60 1 30 56
M  V30 END BOND
M  V30 END CTAB
M  END
>  <Dataset>  (650) 
ChEMBL_Kinases

>  <Ligand_Instance>  (650) 
nan

>  <PDB_ID>  (650) 
nan

>  <Standardized_SMILES>  (650) 
CCc1cc(O)c(F)cc1-c1cc(N[C@H]2C[C@H]3CC[C@@H](C2)N3)c2nc(N)ncc2c1

>  <Name>  (650) 
nan

>  <Pocket>  (650) 
nan

>  <ATP_Site>  (650) 
nan

>  <Peripheral>  (650) 
nan

>  <Num_H_Atoms_ProtBoundConf>  (650) 
nan

>  <Num_Resolved_Atoms>  (650) 
nan

>  <Num_Not_Resolved_Atoms>  (650) 
nan

$$$$
CHEMBL5076216
     RDKit          3D

  0  0  0  0  0  0  0  0  0  0999 V3000
M  V30 BEGIN CTAB
M  V30 COUNTS 64 67 0 0 0
M  V30 BEGIN ATOM
M  V30 1 N 5.873360 2.538916 7.131605 0
M  V30 2 C 5.970441 1.127610 6.784349 0 CFG=1
M  V30 3 C 5.094753 0.880052 5.564647 0
M  V30 4 C 5.134944 -0.546145 5.148210 0
M  V30 5 C 4.237679 -0.762654 3.955268 0
M  V30 6 C 4.662536 0.058528 2.786290 0
M  V30 7 N 3.811316 -0.154540 1.620895 0
M  V30 8 C 2.413936 0.099725 1.591740 0
M  V30 9 O 1.908826 0.538322 2.658772 0
M  V30 10 C 1.583432 -0.123521 0.411315 0
M  V30 11 C 2.035283 -0.598431 -0.802434 0
M  V30 12 C 1.219082 -0.796186 -1.891186 0
M  V30 13 C -0.129718 -0.517706 -1.808859 0
M  V30 14 C -0.593809 -0.040829 -0.596441 0
M  V30 15 C 0.233278 0.154914 0.492126 0
M  V30 16 C -1.973238 0.321370 -0.268976 0
M  V30 17 O -2.151201 1.109086 0.695724 0
M  V30 18 C -3.166725 -0.166392 -0.983058 0
M  V30 19 C -4.338563 0.331473 -0.416752 0
M  V30 20 C -5.580010 0.006318 -0.922053 0
M  V30 21 C -5.650981 -0.835324 -2.018113 0
M  V30 22 N -6.903478 -1.215123 -2.596709 0
M  V30 23 C -7.123011 -2.096486 -3.690727 0
M  V30 24 C -7.736870 -1.775345 -4.882385 0
M  V30 25 C -7.897414 -2.717635 -5.877077 0
M  V30 26 C -7.443645 -4.008847 -5.697676 0
M  V30 27 F -7.593646 -4.962103 -6.674521 0
M  V30 28 C -6.824288 -4.365174 -4.516893 0
M  V30 29 C -6.664143 -3.404657 -3.510981 0
M  V30 30 F -6.033571 -3.899471 -2.394495 0
M  V30 31 C -4.484551 -1.327341 -2.577380 0
M  V30 32 C -3.226909 -1.018599 -2.092126 0
M  V30 33 C -2.099671 -1.645472 -2.828464 0
M  V30 34 C -0.912239 -0.771113 -3.049195 0
M  V30 35 C 7.364627 0.801814 6.461646 0
M  V30 36 O 7.970849 -0.280903 6.155062 0
M  V30 37 O 8.695886 1.020329 6.247239 0
M  V30 38 H 6.624942 2.774908 7.791782 0
M  V30 39 H 4.917163 2.795088 7.409005 0
M  V30 40 H 5.603566 0.511536 7.604886 0
M  V30 41 H 5.404471 1.549925 4.735643 0
M  V30 42 H 4.038715 1.136118 5.785970 0
M  V30 43 H 4.859032 -1.237148 5.991552 0
M  V30 44 H 6.171847 -0.893127 4.869854 0
M  V30 45 H 3.167791 -0.583320 4.262355 0
M  V30 46 H 4.310326 -1.845006 3.697023 0
M  V30 47 H 5.688514 -0.226388 2.532884 0
M  V30 48 H 4.653189 1.149108 2.948664 0
M  V30 49 H 4.228461 -0.517493 0.733920 0
M  V30 50 H 3.069983 -0.824127 -0.903337 0
M  V30 51 H 1.593523 -1.167509 -2.829023 0
M  V30 52 H -0.216976 0.532805 1.405796 0
M  V30 53 H -4.272149 0.993052 0.445114 0
M  V30 54 H -6.498706 0.385877 -0.491523 0
M  V30 55 H -7.772280 -0.800319 -2.171770 0
M  V30 56 H -8.084745 -0.737564 -4.987930 0
M  V30 57 H -8.375375 -2.446569 -6.790329 0
M  V30 58 H -6.481060 -5.388154 -4.412548 0
M  V30 59 H -4.443428 -1.987520 -3.432288 0
M  V30 60 H -2.506082 -1.876901 -3.847824 0
M  V30 61 H -1.793408 -2.608847 -2.407340 0
M  V30 62 H -1.228003 0.206643 -3.489344 0
M  V30 63 H -0.253259 -1.276246 -3.753588 0
M  V30 64 H 9.121866 1.837336 5.827722 0
M  V30 END ATOM
M  V30 BEGIN BOND
M  V30 1 1 1 2
M  V30 2 1 2 3
M  V30 3 1 3 4
M  V30 4 1 4 5
M  V30 5 1 5 6
M  V30 6 1 6 7
M  V30 7 1 7 8
M  V30 8 2 8 9
M  V30 9 1 8 10
M  V30 10 2 10 11
M  V30 11 1 11 12
M  V30 12 2 12 13
M  V30 13 1 13 14
M  V30 14 2 14 15
M  V30 15 1 14 16
M  V30 16 2 16 17
M  V30 17 1 16 18
M  V30 18 2 18 19
M  V30 19 1 19 20
M  V30 20 2 20 21
M  V30 21 1 21 22
M  V30 22 1 22 23
M  V30 23 2 23 24
M  V30 24 1 24 25
M  V30 25 2 25 26
M  V30 26 1 26 27
M  V30 27 1 26 28
M  V30 28 2 28 29
M  V30 29 1 29 30
M  V30 30 1 21 31
M  V30 31 2 31 32
M  V30 32 1 32 33
M  V30 33 1 33 34
M  V30 34 1 2 35
M  V30 35 2 35 36
M  V30 36 1 35 37
M  V30 37 1 15 10
M  V30 38 1 32 18
M  V30 39 1 34 13
M  V30 40 1 29 23
M  V30 41 1 1 38
M  V30 42 1 1 39
M  V30 43 1 2 40 CFG=1
M  V30 44 1 3 41
M  V30 45 1 3 42
M  V30 46 1 4 43
M  V30 47 1 4 44
M  V30 48 1 5 45
M  V30 49 1 5 46
M  V30 50 1 6 47
M  V30 51 1 6 48
M  V30 52 1 7 49
M  V30 53 1 11 50
M  V30 54 1 12 51
M  V30 55 1 15 52
M  V30 56 1 19 53
M  V30 57 1 20 54
M  V30 58 1 22 55
M  V30 59 1 24 56
M  V30 60 1 25 57
M  V30 61 1 28 58
M  V30 62 1 31 59
M  V30 63 1 33 60
M  V30 64 1 33 61
M  V30 65 1 34 62
M  V30 66 1 34 63
M  V30 67 1 37 64
M  V30 END BOND
M  V30 END CTAB
M  END
>  <Dataset>  (651) 
ChEMBL_Kinases

>  <Ligand_Instance>  (651) 
nan

>  <PDB_ID>  (651) 
nan

>  <Standardized_SMILES>  (651) 
N[C@@H](CCCCNC(=O)c1ccc2c(c1)C(=O)c1ccc(Nc3ccc(F)cc3F)cc1CC2)C(=O)O

>  <Name>  (651) 
nan

>  <Pocket>  (651) 
nan

>  <ATP_Site>  (651) 
nan

>  <Peripheral>  (651) 
nan

>  <Num_H_Atoms_ProtBoundConf>  (651) 
nan

>  <Num_Resolved_Atoms>  (651) 
nan

>  <Num_Not_Resolved_Atoms>  (651) 
nan

$$$$
CHEMBL507625
     RDKit          3D

  0  0  0  0  0  0  0  0  0  0999 V3000
M  V30 BEGIN CTAB
M  V30 COUNTS 69 73 0 0 0
M  V30 BEGIN ATOM
M  V30 1 C 4.045547 -2.993741 1.605595 0
M  V30 2 O 3.006483 -2.065613 1.870246 0
M  V30 3 C 2.550106 -1.124330 0.971180 0
M  V30 4 C 3.036401 -0.955409 -0.306081 0
M  V30 5 C 2.473981 0.030784 -1.084541 0
M  V30 6 N 2.861836 0.298432 -2.428291 0
M  V30 7 C 2.756976 1.580168 -3.097642 0
M  V30 8 C 1.828747 1.470559 -4.308726 0
M  V30 9 N 1.286403 0.114130 -4.330673 0
M  V30 10 C 0.288787 -0.028663 -5.342922 0
M  V30 11 C -0.251731 -1.465443 -5.300920 0
M  V30 12 C -0.909813 0.865204 -5.140929 0
M  V30 13 C 2.403967 -0.767157 -4.589993 0
M  V30 14 C 3.405532 -0.584680 -3.477021 0
M  V30 15 C 1.440691 0.868269 -0.652542 0
M  V30 16 C 0.957965 0.682108 0.649508 0
M  V30 17 C 1.532253 -0.310952 1.417765 0
M  V30 18 N 0.975182 -0.412826 2.734078 0
M  V30 19 C -0.087954 0.321893 3.312761 0
M  V30 20 N -1.243986 -0.321345 3.307830 0
M  V30 21 C -2.406895 0.112320 3.779626 0
M  V30 22 N -3.635908 -0.598526 3.767474 0
M  V30 23 C -3.826474 -1.910668 3.283751 0
M  V30 24 C -4.670787 -2.174622 2.207949 0
M  V30 25 C -4.798760 -3.494898 1.811754 0
M  V30 26 C -4.140178 -4.573098 2.417680 0
M  V30 27 C -3.303143 -4.297537 3.487459 0
M  V30 28 F -2.642905 -5.294379 4.116887 0
M  V30 29 C -3.197512 -2.983393 3.856048 0
M  V30 30 C -2.348859 -2.686068 4.982426 0
M  V30 31 N -1.633691 -3.676485 5.685006 0
M  V30 32 O -1.771104 -2.002733 5.844206 0
M  V30 33 C -2.415977 1.394374 4.347336 0
M  V30 34 C -3.338450 2.258081 4.952502 0
M  V30 35 C -2.678288 3.413502 5.303332 0
M  V30 36 N -1.376194 3.297607 4.937226 0
M  V30 37 C -1.234332 2.090507 4.369446 0
M  V30 38 N -0.102100 1.566196 3.864856 0
M  V30 39 H 3.636437 -3.681748 0.815573 0
M  V30 40 H 4.945551 -2.515975 1.186497 0
M  V30 41 H 4.256070 -3.597172 2.492093 0
M  V30 42 H 3.829416 -1.583026 -0.678285 0
M  V30 43 H 3.745518 1.893985 -3.491296 0
M  V30 44 H 2.371816 2.395163 -2.488288 0
M  V30 45 H 2.371966 1.612093 -5.259847 0
M  V30 46 H 1.014602 2.210916 -4.269109 0
M  V30 47 H 0.763192 0.141835 -6.330865 0
M  V30 48 H -0.000097 -1.942849 -4.312232 0
M  V30 49 H -1.349295 -1.481063 -5.360618 0
M  V30 50 H 0.169459 -2.046458 -6.132200 0
M  V30 51 H -1.865772 0.276566 -5.022595 0
M  V30 52 H -1.091011 1.492317 -6.038810 0
M  V30 53 H -0.858965 1.467757 -4.213382 0
M  V30 54 H 2.094286 -1.832498 -4.603812 0
M  V30 55 H 2.912088 -0.547117 -5.559843 0
M  V30 56 H 4.389807 -0.227825 -3.826039 0
M  V30 57 H 3.567934 -1.565046 -2.995957 0
M  V30 58 H 0.978532 1.646641 -1.232300 0
M  V30 59 H 0.164556 1.318815 0.995304 0
M  V30 60 H 1.419337 -1.148200 3.361953 0
M  V30 61 H -4.514304 -0.175336 4.130869 0
M  V30 62 H -5.198974 -1.405260 1.703973 0
M  V30 63 H -5.440553 -3.745028 0.987012 0
M  V30 64 H -4.237975 -5.603463 2.111920 0
M  V30 65 H -1.544063 -4.524918 6.275443 0
M  V30 66 H -1.390275 -4.495135 6.257251 0
M  V30 67 H -4.366391 1.953572 5.066718 0
M  V30 68 H -3.276933 4.179305 5.787422 0
M  V30 69 H -0.722937 4.081806 5.124125 0
M  V30 END ATOM
M  V30 BEGIN BOND
M  V30 1 1 1 2
M  V30 2 1 2 3
M  V30 3 2 3 4
M  V30 4 1 4 5
M  V30 5 1 5 6
M  V30 6 1 6 7
M  V30 7 1 7 8
M  V30 8 1 8 9
M  V30 9 1 9 10
M  V30 10 1 10 11
M  V30 11 1 10 12
M  V30 12 1 9 13
M  V30 13 1 13 14
M  V30 14 2 5 15
M  V30 15 1 15 16
M  V30 16 2 16 17
M  V30 17 1 17 18
M  V30 18 1 18 19
M  V30 19 2 19 20
M  V30 20 1 20 21
M  V30 21 1 21 22
M  V30 22 1 22 23
M  V30 23 2 23 24
M  V30 24 1 24 25
M  V30 25 2 25 26
M  V30 26 1 26 27
M  V30 27 1 27 28
M  V30 28 2 27 29
M  V30 29 1 29 30
M  V30 30 1 30 31
M  V30 31 2 30 32
M  V30 32 2 21 33
M  V30 33 1 33 34
M  V30 34 2 34 35
M  V30 35 1 35 36
M  V30 36 1 36 37
M  V30 37 2 37 38
M  V30 38 1 17 3
M  V30 39 1 38 19
M  V30 40 1 14 6
M  V30 41 1 29 23
M  V30 42 1 37 33
M  V30 43 1 1 39
M  V30 44 1 1 40
M  V30 45 1 1 41
M  V30 46 1 4 42
M  V30 47 1 7 43
M  V30 48 1 7 44
M  V30 49 1 8 45
M  V30 50 1 8 46
M  V30 51 1 10 47
M  V30 52 1 11 48
M  V30 53 1 11 49
M  V30 54 1 11 50
M  V30 55 1 12 51
M  V30 56 1 12 52
M  V30 57 1 12 53
M  V30 58 1 13 54
M  V30 59 1 13 55
M  V30 60 1 14 56
M  V30 61 1 14 57
M  V30 62 1 15 58
M  V30 63 1 16 59
M  V30 64 1 18 60
M  V30 65 1 22 61
M  V30 66 1 24 62
M  V30 67 1 25 63
M  V30 68 1 26 64
M  V30 69 1 31 65
M  V30 70 1 31 66
M  V30 71 1 34 67
M  V30 72 1 35 68
M  V30 73 1 36 69
M  V30 END BOND
M  V30 END CTAB
M  END
>  <Dataset>  (652) 
ChEMBL_Kinases

>  <Ligand_Instance>  (652) 
nan

>  <PDB_ID>  (652) 
nan

>  <Standardized_SMILES>  (652) 
COc1cc(N2CCN(C(C)C)CC2)ccc1Nc1nc(Nc2cccc(F)c2C(N)=O)c2cc[nH]c2n1

>  <Name>  (652) 
nan

>  <Pocket>  (652) 
nan

>  <ATP_Site>  (652) 
nan

>  <Peripheral>  (652) 
nan

>  <Num_H_Atoms_ProtBoundConf>  (652) 
nan

>  <Num_Resolved_Atoms>  (652) 
nan

>  <Num_Not_Resolved_Atoms>  (652) 
nan

$$$$
CHEMBL5076378
     RDKit          3D

  0  0  0  0  0  0  0  0  0  0999 V3000
M  V30 BEGIN CTAB
M  V30 COUNTS 38 40 0 0 0
M  V30 BEGIN ATOM
M  V30 1 C -0.575882 -2.934863 3.659264 0
M  V30 2 C -0.892171 -3.001113 2.193331 0
M  V30 3 C 0.098338 -3.833631 1.419001 0
M  V30 4 C 1.384751 -3.138179 1.150463 0
M  V30 5 C 1.292304 -1.633611 1.278479 0
M  V30 6 N -0.002368 -1.239487 0.762759 0
M  V30 7 C -0.306721 -0.512045 -0.421056 0
M  V30 8 C -1.029395 -1.215560 -1.355397 0
M  V30 9 C -1.438873 -0.744235 -2.578721 0
M  V30 10 N -1.062365 0.543778 -2.826881 0
M  V30 11 C -0.355551 1.228634 -1.909966 0
M  V30 12 S 0.286386 2.973380 -1.964842 0
M  V30 13 C 1.033535 2.884556 -0.344001 0
M  V30 14 C 1.744736 4.036084 0.216503 0
M  V30 15 N 1.867092 5.257064 -0.500099 0
M  V30 16 O 2.243532 3.909349 1.352280 0
M  V30 17 C 0.779684 1.654809 0.106575 0
M  V30 18 N 1.282118 1.350394 1.403568 0
M  V30 19 C 0.071813 0.790020 -0.675440 0
M  V30 20 C -1.124034 -1.651888 1.584300 0
M  V30 21 H -0.029930 -3.844461 3.984554 0
M  V30 22 H -1.522248 -2.934603 4.242554 0
M  V30 23 H -0.028729 -2.027144 3.975710 0
M  V30 24 H -1.865086 -3.570583 2.109903 0
M  V30 25 H 0.305354 -4.738060 2.028900 0
M  V30 26 H -0.407227 -4.188224 0.497297 0
M  V30 27 H 1.656281 -3.352575 0.075036 0
M  V30 28 H 2.247554 -3.475962 1.748149 0
M  V30 29 H 2.060273 -1.195813 0.597966 0
M  V30 30 H 1.507333 -1.284129 2.289962 0
M  V30 31 H -1.343331 -2.249432 -1.180285 0
M  V30 32 H -1.991937 -1.223985 -3.340671 0
M  V30 33 H 1.007370 5.871607 -0.419838 0
M  V30 34 H 0.949521 5.738222 -0.320263 0
M  V30 35 H 2.306577 1.258239 1.608046 0
M  V30 36 H 0.646187 1.202323 2.224311 0
M  V30 37 H -1.256640 -0.909079 2.403017 0
M  V30 38 H -2.063532 -1.620930 1.007713 0
M  V30 END ATOM
M  V30 BEGIN BOND
M  V30 1 1 1 2
M  V30 2 1 2 3
M  V30 3 1 3 4
M  V30 4 1 4 5
M  V30 5 1 5 6
M  V30 6 1 6 7
M  V30 7 2 7 8
M  V30 8 1 8 9
M  V30 9 2 9 10
M  V30 10 1 10 11
M  V30 11 1 11 12
M  V30 12 1 12 13
M  V30 13 1 13 14
M  V30 14 1 14 15
M  V30 15 2 14 16
M  V30 16 2 13 17
M  V30 17 1 17 18
M  V30 18 1 17 19
M  V30 19 1 6 20
M  V30 20 1 20 2
M  V30 21 1 19 7
M  V30 22 2 19 11
M  V30 23 1 1 21
M  V30 24 1 1 22
M  V30 25 1 1 23
M  V30 26 1 2 24
M  V30 27 1 3 25
M  V30 28 1 3 26
M  V30 29 1 4 27
M  V30 30 1 4 28
M  V30 31 1 5 29
M  V30 32 1 5 30
M  V30 33 1 8 31
M  V30 34 1 9 32
M  V30 35 1 15 33
M  V30 36 1 15 34
M  V30 37 1 18 35
M  V30 38 1 18 36
M  V30 39 1 20 37
M  V30 40 1 20 38
M  V30 END BOND
M  V30 END CTAB
M  END
>  <Dataset>  (653) 
ChEMBL_Kinases

>  <Ligand_Instance>  (653) 
nan

>  <PDB_ID>  (653) 
nan

>  <Standardized_SMILES>  (653) 
CC1CCCN(c2ccnc3sc(C(N)=O)c(N)c23)C1

>  <Name>  (653) 
nan

>  <Pocket>  (653) 
nan

>  <ATP_Site>  (653) 
nan

>  <Peripheral>  (653) 
nan

>  <Num_H_Atoms_ProtBoundConf>  (653) 
nan

>  <Num_Resolved_Atoms>  (653) 
nan

>  <Num_Not_Resolved_Atoms>  (653) 
nan

$$$$
CHEMBL5076385
     RDKit          3D

  0  0  0  0  0  0  0  0  0  0999 V3000
M  V30 BEGIN CTAB
M  V30 COUNTS 67 71 0 0 0
M  V30 BEGIN ATOM
M  V30 1 C 3.417577 -2.109093 4.061330 0
M  V30 2 N 2.334595 -2.611647 3.202291 0
M  V30 3 C 2.275303 -2.524638 1.833410 0
M  V30 4 N 3.409601 -1.844246 1.325008 0
M  V30 5 C 3.567706 -0.734230 0.452562 0
M  V30 6 C 3.534088 -0.955713 -1.001118 0
M  V30 7 C 2.358940 -1.547189 -1.653222 0
M  V30 8 C 1.049496 -0.815282 -1.508751 0
M  V30 9 C 1.113044 0.582064 -2.004234 0
M  V30 10 N -0.106230 1.332824 -1.941454 0
M  V30 11 C -1.139954 1.518132 -1.017697 0
M  V30 12 C -1.146618 2.440259 0.002277 0
M  V30 13 C -2.204994 2.588108 0.872409 0
M  V30 14 N -3.281760 1.825866 0.753474 0
M  V30 15 C -3.355789 0.898098 -0.220241 0
M  V30 16 C -4.521907 0.153231 -0.268445 0
M  V30 17 C -4.631213 -0.801499 -1.258248 0
M  V30 18 C -3.592136 -0.982050 -2.154514 0
M  V30 19 C -2.448019 -0.213713 -2.064785 0
M  V30 20 C -2.294297 0.739116 -1.105167 0
M  V30 21 C -1.956006 3.653572 1.877328 0
M  V30 22 C -0.630950 3.456305 2.580829 0
M  V30 23 C 0.467937 2.973682 1.667173 0
M  V30 24 C 0.029244 3.322761 0.227481 0
M  V30 25 N 1.207342 -3.034302 1.206436 0
M  V30 26 C 0.190657 -3.624840 1.853189 0
M  V30 27 C -0.899930 -4.113709 1.028755 0
M  V30 28 C -0.895507 -3.983703 -0.342011 0
M  V30 29 C -1.901058 -4.411350 -1.183267 0
M  V30 30 N -2.986110 -5.007009 -0.649755 0
M  V30 31 C -3.016819 -5.147588 0.686190 0
M  V30 32 C -2.019354 -4.726548 1.548244 0
M  V30 33 C 0.179767 -3.747612 3.221134 0
M  V30 34 C 1.289153 -3.216095 3.844355 0
M  V30 35 O 1.317806 -3.307595 5.118789 0
M  V30 36 H 4.406468 -2.182423 3.613740 0
M  V30 37 H 3.419865 -2.755182 4.965485 0
M  V30 38 H 3.169106 -1.079060 4.411315 0
M  V30 39 H 4.336683 -2.256277 1.638915 0
M  V30 40 H 2.799024 0.047900 0.703631 0
M  V30 41 H 4.553784 -0.224823 0.693887 0
M  V30 42 H 4.440013 -1.601674 -1.248270 0
M  V30 43 H 3.781377 0.036954 -1.481025 0
M  V30 44 H 2.249374 -2.633372 -1.409295 0
M  V30 45 H 2.576875 -1.549163 -2.771414 0
M  V30 46 H 0.340137 -1.380807 -2.192613 0
M  V30 47 H 0.661564 -0.925927 -0.491927 0
M  V30 48 H 1.482511 0.612449 -3.054610 0
M  V30 49 H 1.879207 1.139432 -1.392405 0
M  V30 50 H -0.467074 1.957876 -2.695477 0
M  V30 51 H -5.319900 0.309486 0.443618 0
M  V30 52 H -5.565395 -1.386974 -1.278625 0
M  V30 53 H -3.791987 -1.755323 -2.883241 0
M  V30 54 H -1.699211 -0.409402 -2.804035 0
M  V30 55 H -1.992663 4.663225 1.444879 0
M  V30 56 H -2.770736 3.569867 2.650785 0
M  V30 57 H -0.306368 4.372262 3.093211 0
M  V30 58 H -0.812923 2.682981 3.371341 0
M  V30 59 H 1.456252 3.373130 1.905050 0
M  V30 60 H 0.446340 1.848637 1.714566 0
M  V30 61 H -0.330091 4.355549 0.282393 0
M  V30 62 H 0.844918 3.139963 -0.483226 0
M  V30 63 H -0.033998 -3.513635 -0.793538 0
M  V30 64 H -1.803418 -4.255510 -2.267110 0
M  V30 65 H -3.911541 -5.629289 1.060665 0
M  V30 66 H -2.129301 -4.887589 2.606089 0
M  V30 67 H -0.611734 -4.207863 3.762264 0
M  V30 END ATOM
M  V30 BEGIN BOND
M  V30 1 1 1 2
M  V30 2 1 2 3
M  V30 3 1 3 4
M  V30 4 1 4 5
M  V30 5 1 5 6
M  V30 6 1 6 7
M  V30 7 1 7 8
M  V30 8 1 8 9
M  V30 9 1 9 10
M  V30 10 1 10 11
M  V30 11 2 11 12
M  V30 12 1 12 13
M  V30 13 2 13 14
M  V30 14 1 14 15
M  V30 15 2 15 16
M  V30 16 1 16 17
M  V30 17 2 17 18
M  V30 18 1 18 19
M  V30 19 2 19 20
M  V30 20 1 13 21
M  V30 21 1 21 22
M  V30 22 1 22 23
M  V30 23 1 23 24
M  V30 24 2 3 25
M  V30 25 1 25 26
M  V30 26 1 26 27
M  V30 27 2 27 28
M  V30 28 1 28 29
M  V30 29 2 29 30
M  V30 30 1 30 31
M  V30 31 2 31 32
M  V30 32 2 26 33
M  V30 33 1 33 34
M  V30 34 2 34 35
M  V30 35 1 34 2
M  V30 36 1 20 11
M  V30 37 1 32 27
M  V30 38 1 24 12
M  V30 39 1 20 15
M  V30 40 1 1 36
M  V30 41 1 1 37
M  V30 42 1 1 38
M  V30 43 1 4 39
M  V30 44 1 5 40
M  V30 45 1 5 41
M  V30 46 1 6 42
M  V30 47 1 6 43
M  V30 48 1 7 44
M  V30 49 1 7 45
M  V30 50 1 8 46
M  V30 51 1 8 47
M  V30 52 1 9 48
M  V30 53 1 9 49
M  V30 54 1 10 50
M  V30 55 1 16 51
M  V30 56 1 17 52
M  V30 57 1 18 53
M  V30 58 1 19 54
M  V30 59 1 21 55
M  V30 60 1 21 56
M  V30 61 1 22 57
M  V30 62 1 22 58
M  V30 63 1 23 59
M  V30 64 1 23 60
M  V30 65 1 24 61
M  V30 66 1 24 62
M  V30 67 1 28 63
M  V30 68 1 29 64
M  V30 69 1 31 65
M  V30 70 1 32 66
M  V30 71 1 33 67
M  V30 END BOND
M  V30 END CTAB
M  END
>  <Dataset>  (654) 
ChEMBL_Kinases

>  <Ligand_Instance>  (654) 
nan

>  <PDB_ID>  (654) 
nan

>  <Standardized_SMILES>  (654) 
Cn1c(NCCCCCNc2c3c(nc4ccccc24)CCCC3)nc(-c2ccncc2)cc1=O

>  <Name>  (654) 
nan

>  <Pocket>  (654) 
nan

>  <ATP_Site>  (654) 
nan

>  <Peripheral>  (654) 
nan

>  <Num_H_Atoms_ProtBoundConf>  (654) 
nan

>  <Num_Resolved_Atoms>  (654) 
nan

>  <Num_Not_Resolved_Atoms>  (654) 
nan

$$$$
CHEMBL5076389
     RDKit          3D

  0  0  0  0  0  0  0  0  0  0999 V3000
M  V30 BEGIN CTAB
M  V30 COUNTS 56 59 0 0 0
M  V30 BEGIN ATOM
M  V30 1 C 2.967691 -0.754578 4.922780 0
M  V30 2 N 4.210092 -0.673155 4.191826 0
M  V30 3 C 5.308170 -1.057607 5.091995 0
M  V30 4 C 4.550483 -0.317683 2.872587 0
M  V30 5 O 5.800133 -0.408701 2.701479 0
M  V30 6 C 3.892619 0.118768 1.661808 0
M  V30 7 C 4.679107 0.333755 0.553997 0
M  V30 8 N 6.079153 0.152196 0.524775 0
M  V30 9 C 4.137842 0.759893 -0.664127 0
M  V30 10 C 2.782342 0.967266 -0.748548 0
M  V30 11 C 1.934693 0.772387 0.318509 0
M  V30 12 C 0.496794 0.995436 0.218378 0
M  V30 13 C -0.040886 2.249474 0.502397 0
M  V30 14 N -1.372650 2.411182 0.397303 0
M  V30 15 C -2.190262 1.383702 0.023359 0
M  V30 16 C -1.706853 0.103828 -0.273846 0
M  V30 17 C -0.338119 -0.037577 -0.159027 0
M  V30 18 Cl 0.345446 -1.590050 -0.508623 0
M  V30 19 C -2.876606 -0.739477 -0.636740 0 CFG=1
M  V30 20 C -3.222751 -0.592915 -2.093426 0
M  V30 21 C -3.501737 -1.907057 -2.769652 0
M  V30 22 C -4.399675 -2.806297 -1.963393 0 CFG=2
M  V30 23 C -4.296213 -4.197761 -2.554204 0
M  V30 24 C -5.791167 -2.337522 -2.096360 0
M  V30 25 N -6.874409 -1.964700 -2.205594 0
M  V30 26 C -4.017641 -2.883166 -0.520327 0
M  V30 27 C -2.721970 -2.165618 -0.216657 0
M  V30 28 C -3.990191 -0.036539 0.146386 0
M  V30 29 N -3.621632 1.357175 -0.144620 0
M  V30 30 C 2.553470 0.354190 1.473364 0
M  V30 31 F 1.700001 0.174657 2.501987 0
M  V30 32 H 2.273334 -1.480806 4.432307 0
M  V30 33 H 2.481868 0.243588 5.001532 0
M  V30 34 H 3.107018 -1.166545 5.955122 0
M  V30 35 H 5.385370 -0.345808 5.956079 0
M  V30 36 H 6.282052 -1.039849 4.578252 0
M  V30 37 H 5.083828 -2.076263 5.468129 0
M  V30 38 H 6.881506 0.695465 0.918552 0
M  V30 39 H 6.899777 0.683879 0.912326 0
M  V30 40 H 4.738613 0.927350 -1.521517 0
M  V30 41 H 2.376956 1.294913 -1.690337 0
M  V30 42 H 0.587121 3.072868 0.799008 0
M  V30 43 H -4.098277 0.088927 -2.269667 0
M  V30 44 H -2.364886 -0.123854 -2.617530 0
M  V30 45 H -4.008942 -1.663430 -3.731599 0
M  V30 46 H -2.562923 -2.439422 -3.029382 0
M  V30 47 H -4.874847 -4.292685 -3.492687 0
M  V30 48 H -4.521881 -4.995996 -1.812425 0
M  V30 49 H -3.222535 -4.337298 -2.843136 0
M  V30 50 H -4.815696 -2.412256 0.103414 0
M  V30 51 H -3.918415 -3.917483 -0.142762 0
M  V30 52 H -2.566297 -2.220283 0.864181 0
M  V30 53 H -1.959135 -2.628596 -0.844345 0
M  V30 54 H -3.800919 -0.231029 1.210709 0
M  V30 55 H -4.990725 -0.270598 -0.213854 0
M  V30 56 H -4.243734 2.165840 -0.415310 0
M  V30 END ATOM
M  V30 BEGIN BOND
M  V30 1 1 1 2
M  V30 2 1 2 3
M  V30 3 1 2 4
M  V30 4 2 4 5
M  V30 5 1 4 6
M  V30 6 2 6 7
M  V30 7 1 7 8
M  V30 8 1 7 9
M  V30 9 2 9 10
M  V30 10 1 10 11
M  V30 11 1 11 12
M  V30 12 2 12 13
M  V30 13 1 13 14
M  V30 14 2 14 15
M  V30 15 1 15 16
M  V30 16 2 16 17
M  V30 17 1 17 18
M  V30 18 1 16 19
M  V30 19 1 19 20 CFG=3
M  V30 20 1 20 21
M  V30 21 1 21 22
M  V30 22 1 22 23
M  V30 23 1 22 24 CFG=1
M  V30 24 3 24 25
M  V30 25 1 22 26
M  V30 26 1 26 27
M  V30 27 1 19 28
M  V30 28 1 28 29
M  V30 29 2 11 30
M  V30 30 1 30 31
M  V30 31 1 30 6
M  V30 32 1 17 12
M  V30 33 1 27 19
M  V30 34 1 29 15
M  V30 35 1 1 32
M  V30 36 1 1 33
M  V30 37 1 1 34
M  V30 38 1 3 35
M  V30 39 1 3 36
M  V30 40 1 3 37
M  V30 41 1 8 38
M  V30 42 1 8 39
M  V30 43 1 9 40
M  V30 44 1 10 41
M  V30 45 1 13 42
M  V30 46 1 20 43
M  V30 47 1 20 44
M  V30 48 1 21 45
M  V30 49 1 21 46
M  V30 50 1 23 47
M  V30 51 1 23 48
M  V30 52 1 23 49
M  V30 53 1 26 50
M  V30 54 1 26 51
M  V30 55 1 27 52
M  V30 56 1 27 53
M  V30 57 1 28 54
M  V30 58 1 28 55
M  V30 59 1 29 56
M  V30 END BOND
M  V30 END CTAB
M  END
>  <Dataset>  (655) 
ChEMBL_Kinases

>  <Ligand_Instance>  (655) 
nan

>  <PDB_ID>  (655) 
nan

>  <Standardized_SMILES>  (655) 
CN(C)C(=O)c1c(N)ccc(-c2cnc3c(c2Cl)[C@]2(CC[C@](C)(C#N)CC2)CN3)c1F

>  <Name>  (655) 
nan

>  <Pocket>  (655) 
nan

>  <ATP_Site>  (655) 
nan

>  <Peripheral>  (655) 
nan

>  <Num_H_Atoms_ProtBoundConf>  (655) 
nan

>  <Num_Resolved_Atoms>  (655) 
nan

>  <Num_Not_Resolved_Atoms>  (655) 
nan

$$$$
CHEMBL5076397
     RDKit          3D

  0  0  0  0  0  0  0  0  0  0999 V3000
M  V30 BEGIN CTAB
M  V30 COUNTS 59 64 0 0 0
M  V30 BEGIN ATOM
M  V30 1 O 1.950119 -0.032843 3.390740 0
M  V30 2 C 2.468998 -1.191117 3.980811 0 CFG=1
M  V30 3 C 1.233208 -1.960494 4.468308 0
M  V30 4 O 0.777443 -2.587649 3.284252 0
M  V30 5 C 1.954408 -3.210908 2.894141 0
M  V30 6 C 3.007363 -2.168539 2.928010 0 CFG=1
M  V30 7 N 3.210520 -1.449855 1.704610 0
M  V30 8 C 3.717880 -2.293954 0.647271 0
M  V30 9 C 4.084820 -1.572076 -0.581965 0
M  V30 10 C 3.898443 -0.089627 -0.589087 0 CFG=1
M  V30 11 C 2.658629 0.317646 -1.306374 0
M  V30 12 C 1.411538 0.462495 -0.731827 0
M  V30 13 C 0.306885 0.840596 -1.446449 0
M  V30 14 N -0.897973 0.974833 -0.862907 0
M  V30 15 C -1.999071 1.350767 -1.570151 0
M  V30 16 N -3.239358 1.467374 -0.863092 0
M  V30 17 C -4.065716 0.309508 -0.784461 0
M  V30 18 C -3.839652 -0.937321 -1.302350 0
M  V30 19 N -4.873769 -1.732810 -0.996471 0
M  V30 20 N -5.775367 -1.052241 -0.293581 0
M  V30 21 C -6.996323 -1.686439 0.164393 0 CFG=2
M  V30 22 C -7.372458 -1.733860 1.593043 0
M  V30 23 C -6.887346 -2.977188 0.887124 0
M  V30 24 F -5.652000 -3.421583 1.324693 0
M  V30 25 F -7.815421 -3.987009 0.704448 0
M  V30 26 C -5.291567 0.199673 -0.157392 0
M  V30 27 Cl -6.157172 1.453672 0.708032 0
M  V30 28 N -1.897064 1.600412 -2.898114 0
M  V30 29 C -0.708660 1.482567 -3.544987 0
M  V30 30 C 0.393646 1.099932 -2.806121 0
M  V30 31 C 1.607788 0.972798 -3.433605 0
M  V30 32 C 2.698572 0.589639 -2.679874 0
M  V30 33 Cl 4.234644 0.439025 -3.523816 0
M  V30 34 C 3.980434 0.562281 0.751022 0 CFG=2
M  V30 35 F 4.998061 1.503836 0.843432 0
M  V30 36 C 4.228444 -0.425453 1.869877 0
M  V30 37 H 1.893264 0.630482 4.120729 0
M  V30 38 H 3.168947 -1.009886 4.794522 0
M  V30 39 H 1.514257 -2.693972 5.247149 0
M  V30 40 H 0.472578 -1.270344 4.874310 0
M  V30 41 H 1.867499 -3.817979 2.002038 0
M  V30 42 H 2.187820 -3.933901 3.730428 0
M  V30 43 H 3.947984 -2.582123 3.345549 0
M  V30 44 H 2.973587 -3.093602 0.457447 0
M  V30 45 H 4.602839 -2.823313 1.100101 0
M  V30 46 H 5.130801 -1.866604 -0.872858 0
M  V30 47 H 3.473009 -1.970557 -1.432110 0
M  V30 48 H 4.750297 0.332580 -1.189550 0
M  V30 49 H 1.327036 0.266531 0.313287 0
M  V30 50 H -3.571345 2.347377 -0.404243 0
M  V30 51 H -2.968547 -1.240416 -1.868935 0
M  V30 52 H -7.844807 -1.650636 -0.576496 0
M  V30 53 H -8.465797 -1.685136 1.846102 0
M  V30 54 H -6.741355 -1.262615 2.384640 0
M  V30 55 H -0.628765 1.684560 -4.616623 0
M  V30 56 H 1.715354 1.166306 -4.492647 0
M  V30 57 H 3.049636 1.109789 1.001450 0
M  V30 58 H 4.212132 0.086558 2.828290 0
M  V30 59 H 5.249519 -0.854124 1.645386 0
M  V30 END ATOM
M  V30 BEGIN BOND
M  V30 1 1 1 2
M  V30 2 1 2 3
M  V30 3 1 3 4
M  V30 4 1 4 5
M  V30 5 1 5 6
M  V30 6 1 6 7
M  V30 7 1 7 8
M  V30 8 1 8 9
M  V30 9 1 9 10
M  V30 10 1 10 11
M  V30 11 2 11 12
M  V30 12 1 12 13
M  V30 13 2 13 14
M  V30 14 1 14 15
M  V30 15 1 15 16
M  V30 16 1 16 17
M  V30 17 1 17 18
M  V30 18 2 18 19
M  V30 19 1 19 20
M  V30 20 1 20 21
M  V30 21 1 21 22
M  V30 22 1 22 23
M  V30 23 1 23 24
M  V30 24 1 23 25
M  V30 25 1 20 26
M  V30 26 1 26 27
M  V30 27 2 15 28
M  V30 28 1 28 29
M  V30 29 2 29 30
M  V30 30 1 30 31
M  V30 31 2 31 32
M  V30 32 1 32 33
M  V30 33 1 10 34
M  V30 34 1 34 35
M  V30 35 1 34 36
M  V30 36 1 6 2
M  V30 37 1 36 7
M  V30 38 1 32 11
M  V30 39 1 30 13
M  V30 40 2 26 17
M  V30 41 1 23 21
M  V30 42 1 1 37
M  V30 43 1 2 38 CFG=1
M  V30 44 1 3 39
M  V30 45 1 3 40
M  V30 46 1 5 41
M  V30 47 1 5 42
M  V30 48 1 6 43 CFG=1
M  V30 49 1 8 44
M  V30 50 1 8 45
M  V30 51 1 9 46
M  V30 52 1 9 47
M  V30 53 1 10 48 CFG=3
M  V30 54 1 12 49
M  V30 55 1 16 50
M  V30 56 1 18 51
M  V30 57 1 21 52 CFG=3
M  V30 58 1 22 53
M  V30 59 1 22 54
M  V30 60 1 29 55
M  V30 61 1 31 56
M  V30 62 1 34 57 CFG=1
M  V30 63 1 36 58
M  V30 64 1 36 59
M  V30 END BOND
M  V30 END CTAB
M  END
>  <Dataset>  (656) 
ChEMBL_Kinases

>  <Ligand_Instance>  (656) 
nan

>  <PDB_ID>  (656) 
nan

>  <Standardized_SMILES>  (656) 
O[C@H]1COC[C@H]1N1CC[C@@H](c2cc3nc(Nc4cnn([C@@H]5CC5(F)F)c4Cl)ncc3cc2Cl)[C@H](F)C1

>  <Name>  (656) 
nan

>  <Pocket>  (656) 
nan

>  <ATP_Site>  (656) 
nan

>  <Peripheral>  (656) 
nan

>  <Num_H_Atoms_ProtBoundConf>  (656) 
nan

>  <Num_Resolved_Atoms>  (656) 
nan

>  <Num_Not_Resolved_Atoms>  (656) 
nan

$$$$
CHEMBL5076428
     RDKit          3D

  0  0  0  0  0  0  0  0  0  0999 V3000
M  V30 BEGIN CTAB
M  V30 COUNTS 57 60 0 0 0
M  V30 BEGIN ATOM
M  V30 1 C 2.017998 -0.120559 4.002525 0
M  V30 2 C 0.579257 -0.439296 3.720682 0
M  V30 3 O 0.370049 -1.756503 3.306641 0
M  V30 4 C 0.893310 -2.375965 2.205248 0
M  V30 5 C 1.735047 -1.759334 1.310951 0
M  V30 6 C 2.284703 -2.320607 0.201742 0
M  V30 7 C 3.136719 -1.719264 -0.715656 0
M  V30 8 N 3.382979 -0.381116 -0.336197 0
M  V30 9 C 3.626297 0.939522 0.037883 0
M  V30 10 C 3.178298 2.003946 -0.968510 0
M  V30 11 C 1.689579 1.882081 -1.179044 0
M  V30 12 C 0.870072 2.616348 -0.359915 0
M  V30 13 C -0.499221 2.536777 -0.497781 0
M  V30 14 C -1.004159 1.709526 -1.468677 0
M  V30 15 N -2.381396 1.495718 -1.749240 0
M  V30 16 C -2.875565 0.409525 -0.971613 0
M  V30 17 O -2.104606 -0.177415 -0.199402 0
M  V30 18 N -4.208584 -0.083969 -0.994485 0
M  V30 19 C -4.617722 -1.194584 -0.165244 0
M  V30 20 C -5.097657 -0.865870 1.084307 0
M  V30 21 C -5.505524 -1.872501 1.934691 0
M  V30 22 C -5.455561 -3.222933 1.587033 0
M  V30 23 C -4.967585 -3.494780 0.326279 0
M  V30 24 Cl -4.854239 -5.172956 -0.231003 0
M  V30 25 C -4.548069 -2.507404 -0.555341 0
M  V30 26 C -0.168834 0.974443 -2.289151 0
M  V30 27 C 1.221652 1.037060 -2.169889 0
M  V30 28 N 3.558320 -2.468917 -1.740637 0
M  V30 29 C 3.195322 -3.742473 -1.904287 0
M  V30 30 N 2.379002 -4.298289 -1.014112 0
M  V30 31 C 1.896176 -3.647767 0.046491 0
M  V30 32 C 1.061754 -4.364873 0.875026 0
M  V30 33 C 0.555740 -3.706458 1.973695 0
M  V30 34 F -0.263057 -4.369245 2.809288 0
M  V30 35 H 2.290875 0.760561 3.384478 0
M  V30 36 H 2.696831 -0.980746 3.871369 0
M  V30 37 H 2.178274 0.221155 5.059267 0
M  V30 38 H 0.018293 -0.289860 4.677896 0
M  V30 39 H 0.123757 0.243211 2.987090 0
M  V30 40 H 1.955695 -0.739093 1.543095 0
M  V30 41 H 4.016241 -0.178407 -1.181039 0
M  V30 42 H 3.115205 1.213073 1.024845 0
M  V30 43 H 4.691067 1.151538 0.272041 0
M  V30 44 H 3.388317 2.974514 -0.480793 0
M  V30 45 H 3.721310 1.887186 -1.903365 0
M  V30 46 H 1.227400 3.283968 0.421593 0
M  V30 47 H -1.236375 3.067623 0.089520 0
M  V30 48 H -3.132786 1.921702 -2.373347 0
M  V30 49 H -4.888200 0.398439 -1.645740 0
M  V30 50 H -5.156274 0.173372 1.397735 0
M  V30 51 H -5.888238 -1.623277 2.932557 0
M  V30 52 H -5.781829 -4.000842 2.269497 0
M  V30 53 H -4.163861 -2.736505 -1.547330 0
M  V30 54 H -0.518158 0.296406 -3.083588 0
M  V30 55 H 1.860180 0.459497 -2.815678 0
M  V30 56 H 3.643385 -4.168155 -2.790892 0
M  V30 57 H 0.820411 -5.390979 0.669585 0
M  V30 END ATOM
M  V30 BEGIN BOND
M  V30 1 1 1 2
M  V30 2 1 2 3
M  V30 3 1 3 4
M  V30 4 2 4 5
M  V30 5 1 5 6
M  V30 6 2 6 7
M  V30 7 1 7 8
M  V30 8 1 8 9
M  V30 9 1 9 10
M  V30 10 1 10 11
M  V30 11 2 11 12
M  V30 12 1 12 13
M  V30 13 2 13 14
M  V30 14 1 14 15
M  V30 15 1 15 16
M  V30 16 2 16 17
M  V30 17 1 16 18
M  V30 18 1 18 19
M  V30 19 2 19 20
M  V30 20 1 20 21
M  V30 21 2 21 22
M  V30 22 1 22 23
M  V30 23 1 23 24
M  V30 24 2 23 25
M  V30 25 1 14 26
M  V30 26 2 26 27
M  V30 27 1 7 28
M  V30 28 2 28 29
M  V30 29 1 29 30
M  V30 30 2 30 31
M  V30 31 1 31 32
M  V30 32 2 32 33
M  V30 33 1 33 34
M  V30 34 1 33 4
M  V30 35 1 31 6
M  V30 36 1 27 11
M  V30 37 1 25 19
M  V30 38 1 1 35
M  V30 39 1 1 36
M  V30 40 1 1 37
M  V30 41 1 2 38
M  V30 42 1 2 39
M  V30 43 1 5 40
M  V30 44 1 8 41
M  V30 45 1 9 42
M  V30 46 1 9 43
M  V30 47 1 10 44
M  V30 48 1 10 45
M  V30 49 1 12 46
M  V30 50 1 13 47
M  V30 51 1 15 48
M  V30 52 1 18 49
M  V30 53 1 20 50
M  V30 54 1 21 51
M  V30 55 1 22 52
M  V30 56 1 25 53
M  V30 57 1 26 54
M  V30 58 1 27 55
M  V30 59 1 29 56
M  V30 60 1 32 57
M  V30 END BOND
M  V30 END CTAB
M  END
>  <Dataset>  (657) 
ChEMBL_Kinases

>  <Ligand_Instance>  (657) 
nan

>  <PDB_ID>  (657) 
nan

>  <Standardized_SMILES>  (657) 
CCOc1cc2c(NCCc3ccc(NC(=O)Nc4cccc(Cl)c4)cc3)ncnc2cc1F

>  <Name>  (657) 
nan

>  <Pocket>  (657) 
nan

>  <ATP_Site>  (657) 
nan

>  <Peripheral>  (657) 
nan

>  <Num_H_Atoms_ProtBoundConf>  (657) 
nan

>  <Num_Resolved_Atoms>  (657) 
nan

>  <Num_Not_Resolved_Atoms>  (657) 
nan

$$$$
CHEMBL3787023
     RDKit          3D

  0  0  0  0  0  0  0  0  0  0999 V3000
M  V30 BEGIN CTAB
M  V30 COUNTS 28 30 0 0 0
M  V30 BEGIN ATOM
M  V30 1 C -1.608010 -2.519575 4.232049 0
M  V30 2 N -1.323742 -1.140070 3.865562 0
M  V30 3 C -0.677475 -0.858032 2.629196 0
M  V30 4 N -0.312563 -1.828793 1.771383 0
M  V30 5 C 0.296675 -1.515246 0.612546 0
M  V30 6 C 0.631376 -2.603410 -0.202124 0
M  V30 7 C 1.258589 -2.247909 -1.390472 0
M  V30 8 C 1.560805 -0.966370 -1.806212 0
M  V30 9 C 2.241223 -0.764045 -3.121166 0
M  V30 10 C 1.202876 0.064196 -0.953818 0
M  V30 11 C 0.580481 -0.221438 0.234884 0
M  V30 12 N 0.227816 0.756078 1.069461 0
M  V30 13 C 0.356138 2.064065 1.000912 0
M  V30 14 Br 1.099842 3.221174 -0.304246 0
M  V30 15 C -0.176469 2.609278 2.129804 0
M  V30 16 N -0.637687 1.580256 2.895204 0
M  V30 17 C -0.377587 0.424957 2.218248 0
M  V30 18 H -0.871851 -3.164753 3.690400 0
M  V30 19 H -1.477838 -2.686118 5.320119 0
M  V30 20 H -2.642555 -2.792343 3.921527 0
M  V30 21 H -1.570070 -0.320716 4.467717 0
M  V30 22 H 0.433810 -3.622971 0.043978 0
M  V30 23 H 1.525855 -3.084935 -2.036501 0
M  V30 24 H 2.931912 0.094064 -3.088194 0
M  V30 25 H 1.505089 -0.710298 -3.950208 0
M  V30 26 H 2.853198 -1.678322 -3.308948 0
M  V30 27 H 1.461545 1.029677 -1.328247 0
M  V30 28 H -0.285777 3.628612 2.489758 0
M  V30 END ATOM
M  V30 BEGIN BOND
M  V30 1 1 1 2
M  V30 2 1 2 3
M  V30 3 2 3 4
M  V30 4 1 4 5
M  V30 5 2 5 6
M  V30 6 1 6 7
M  V30 7 2 7 8
M  V30 8 1 8 9
M  V30 9 1 8 10
M  V30 10 2 10 11
M  V30 11 1 11 12
M  V30 12 1 12 13
M  V30 13 1 13 14
M  V30 14 2 13 15
M  V30 15 1 15 16
M  V30 16 2 16 17
M  V30 17 1 17 3
M  V30 18 1 11 5
M  V30 19 1 17 12
M  V30 20 1 1 18
M  V30 21 1 1 19
M  V30 22 1 1 20
M  V30 23 1 2 21
M  V30 24 1 6 22
M  V30 25 1 7 23
M  V30 26 1 9 24
M  V30 27 1 9 25
M  V30 28 1 9 26
M  V30 29 1 10 27
M  V30 30 1 15 28
M  V30 END BOND
M  V30 END CTAB
M  END
>  <Dataset>  (658) 
ChEMBL_Kinases

>  <Ligand_Instance>  (658) 
nan

>  <PDB_ID>  (658) 
nan

>  <Standardized_SMILES>  (658) 
CNc1nc2ccc(C)cc2n2c(Br)cnc12

>  <Name>  (658) 
nan

>  <Pocket>  (658) 
nan

>  <ATP_Site>  (658) 
nan

>  <Peripheral>  (658) 
nan

>  <Num_H_Atoms_ProtBoundConf>  (658) 
nan

>  <Num_Resolved_Atoms>  (658) 
nan

>  <Num_Not_Resolved_Atoms>  (658) 
nan

$$$$
CHEMBL5076500
     RDKit          3D

  0  0  0  0  0  0  0  0  0  0999 V3000
M  V30 BEGIN CTAB
M  V30 COUNTS 64 68 0 0 0
M  V30 BEGIN ATOM
M  V30 1 C 4.831356 0.681153 3.491178 0
M  V30 2 C 3.942405 0.532669 2.271757 0
M  V30 3 C 4.284012 1.519998 1.189650 0 CFG=2
M  V30 4 C 5.721697 1.340773 0.725198 0
M  V30 5 N 4.084443 2.875650 1.648802 0
M  V30 6 C 4.828389 3.587066 2.506076 0
M  V30 7 N 4.230524 4.794129 2.609374 0
M  V30 8 N 3.149911 4.833233 1.841862 0
M  V30 9 C 3.040660 3.649763 1.235248 0
M  V30 10 C 1.998316 3.246154 0.297460 0
M  V30 11 C 1.829340 4.156894 -0.753121 0
M  V30 12 C 0.849537 3.850881 -1.703690 0
M  V30 13 C 0.099140 2.698727 -1.586933 0
M  V30 14 C 0.301900 1.826426 -0.529073 0
M  V30 15 N -0.460337 0.610994 -0.367175 0
M  V30 16 C -1.495035 0.218037 -1.304003 0
M  V30 17 C -1.995818 -1.061761 -0.740040 0
M  V30 18 C -3.007289 -1.902585 -1.221955 0
M  V30 19 C -3.745290 -1.552067 -2.465456 0
M  V30 20 N -4.713605 -0.502185 -2.241726 0
M  V30 21 C -5.390508 -0.217417 -3.489230 0
M  V30 22 C -3.287209 -3.049976 -0.507780 0
M  V30 23 C -2.620209 -3.400009 0.648008 0
M  V30 24 N -2.912960 -4.578708 1.376053 0
M  V30 25 C -2.302753 -5.070734 2.578438 0
M  V30 26 C -2.146779 -6.559750 2.343958 0
M  V30 27 C -3.284952 -6.925659 1.403696 0
M  V30 28 C -3.909131 -5.583783 1.082287 0
M  V30 29 C -1.611338 -2.563027 1.130252 0
M  V30 30 C -1.332354 -1.416388 0.415834 0
M  V30 31 C -0.336417 -0.358144 0.681897 0
M  V30 32 O 0.458499 -0.323969 1.642317 0
M  V30 33 N 1.251614 2.127339 0.388151 0
M  V30 34 H 4.485505 1.527996 4.110439 0
M  V30 35 H 5.872738 0.883778 3.186671 0
M  V30 36 H 4.807516 -0.248337 4.109736 0
M  V30 37 H 4.092468 -0.497914 1.904227 0
M  V30 38 H 2.877245 0.624228 2.544822 0
M  V30 39 H 3.624215 1.273627 0.328333 0
M  V30 40 H 5.823857 1.611944 -0.349876 0
M  V30 41 H 6.439445 1.940903 1.322621 0
M  V30 42 H 5.947225 0.238051 0.813085 0
M  V30 43 H 5.727086 3.269318 3.016970 0
M  V30 44 H 2.406869 5.068006 -0.864508 0
M  V30 45 H 0.650218 4.509044 -2.560994 0
M  V30 46 H -0.668087 2.457159 -2.329624 0
M  V30 47 H -1.049477 0.072568 -2.309563 0
M  V30 48 H -2.294706 1.004527 -1.302656 0
M  V30 49 H -4.260179 -2.490687 -2.798839 0
M  V30 50 H -3.016364 -1.252171 -3.242343 0
M  V30 51 H -5.336598 -0.673927 -1.448994 0
M  V30 52 H -5.729892 -1.109173 -4.020658 0
M  V30 53 H -6.262479 0.443969 -3.221499 0
M  V30 54 H -4.680239 0.354367 -4.149053 0
M  V30 55 H -4.068698 -3.705360 -0.874542 0
M  V30 56 H -2.913425 -4.909955 3.488972 0
M  V30 57 H -1.306148 -4.664282 2.775657 0
M  V30 58 H -2.177479 -7.151131 3.284489 0
M  V30 59 H -1.190444 -6.798712 1.845904 0
M  V30 60 H -3.989801 -7.588784 1.959187 0
M  V30 61 H -2.935291 -7.456769 0.500406 0
M  V30 62 H -4.785097 -5.479427 1.758939 0
M  V30 63 H -4.194246 -5.550000 0.017121 0
M  V30 64 H -1.035031 -2.771963 2.041971 0
M  V30 END ATOM
M  V30 BEGIN BOND
M  V30 1 1 1 2
M  V30 2 1 2 3
M  V30 3 1 3 4
M  V30 4 1 3 5
M  V30 5 1 5 6
M  V30 6 2 6 7
M  V30 7 1 7 8
M  V30 8 2 8 9
M  V30 9 1 9 10
M  V30 10 2 10 11
M  V30 11 1 11 12
M  V30 12 2 12 13
M  V30 13 1 13 14
M  V30 14 1 14 15
M  V30 15 1 15 16
M  V30 16 1 16 17
M  V30 17 2 17 18
M  V30 18 1 18 19
M  V30 19 1 19 20
M  V30 20 1 20 21
M  V30 21 1 18 22
M  V30 22 2 22 23
M  V30 23 1 23 24
M  V30 24 1 24 25
M  V30 25 1 25 26
M  V30 26 1 26 27
M  V30 27 1 27 28
M  V30 28 1 23 29
M  V30 29 2 29 30
M  V30 30 1 30 31
M  V30 31 2 31 32
M  V30 32 2 14 33
M  V30 33 1 9 5
M  V30 34 1 33 10
M  V30 35 1 31 15
M  V30 36 1 30 17
M  V30 37 1 28 24
M  V30 38 1 1 34
M  V30 39 1 1 35
M  V30 40 1 1 36
M  V30 41 1 2 37
M  V30 42 1 2 38
M  V30 43 1 3 39 CFG=3
M  V30 44 1 4 40
M  V30 45 1 4 41
M  V30 46 1 4 42
M  V30 47 1 6 43
M  V30 48 1 11 44
M  V30 49 1 12 45
M  V30 50 1 13 46
M  V30 51 1 16 47
M  V30 52 1 16 48
M  V30 53 1 19 49
M  V30 54 1 19 50
M  V30 55 1 20 51
M  V30 56 1 21 52
M  V30 57 1 21 53
M  V30 58 1 21 54
M  V30 59 1 22 55
M  V30 60 1 25 56
M  V30 61 1 25 57
M  V30 62 1 26 58
M  V30 63 1 26 59
M  V30 64 1 27 60
M  V30 65 1 27 61
M  V30 66 1 28 62
M  V30 67 1 28 63
M  V30 68 1 29 64
M  V30 END BOND
M  V30 END CTAB
M  END
>  <Dataset>  (659) 
ChEMBL_Kinases

>  <Ligand_Instance>  (659) 
nan

>  <PDB_ID>  (659) 
nan

>  <Standardized_SMILES>  (659) 
CC[C@H](C)n1cnnc1-c1cccc(N2Cc3c(CNC)cc(N4CCCC4)cc3C2=O)n1

>  <Name>  (659) 
nan

>  <Pocket>  (659) 
nan

>  <ATP_Site>  (659) 
nan

>  <Peripheral>  (659) 
nan

>  <Num_H_Atoms_ProtBoundConf>  (659) 
nan

>  <Num_Resolved_Atoms>  (659) 
nan

>  <Num_Not_Resolved_Atoms>  (659) 
nan

$$$$
CHEMBL3702278
     RDKit          3D

  0  0  0  0  0  0  0  0  0  0999 V3000
M  V30 BEGIN CTAB
M  V30 COUNTS 62 65 0 0 0
M  V30 BEGIN ATOM
M  V30 1 C -2.226308 -0.333735 1.778865 0
M  V30 2 C -1.044581 -0.650810 2.613146 0
M  V30 3 C 0.119509 0.179609 2.501495 0
M  V30 4 C 0.355594 1.302989 1.666420 0
M  V30 5 O -0.371518 1.894102 0.793161 0
M  V30 6 N 1.599810 1.973030 1.729387 0
M  V30 7 C 1.965642 3.108595 0.943357 0
M  V30 8 C 1.959696 2.867457 -0.549898 0
M  V30 9 C 2.358299 4.107354 -1.317345 0
M  V30 10 N 2.354837 3.852867 -2.688046 0
M  V30 11 C 1.177944 3.612001 -3.397572 0
M  V30 12 C 1.283218 2.173943 -3.845019 0
M  V30 13 C 2.752166 1.840102 -3.706455 0
M  V30 14 C 3.403400 3.154125 -3.300527 0
M  V30 15 S 1.310368 -0.482932 3.669235 0
M  V30 16 C 0.190976 -1.841762 4.250030 0
M  V30 17 N 0.454799 -2.786824 5.188796 0
M  V30 18 C -0.503570 -3.681863 5.460967 0
M  V30 19 N -1.629466 -3.553611 4.777825 0
M  V30 20 C -1.875631 -2.625062 3.862468 0
M  V30 21 N -3.177240 -2.775916 3.322587 0
M  V30 22 C -3.297865 -4.008116 2.574870 0
M  V30 23 C -4.253597 -4.936869 2.984903 0
M  V30 24 C -4.538812 -6.187969 2.427811 0
M  V30 25 C -3.717474 -6.457318 1.329581 0
M  V30 26 N -2.792588 -5.605916 0.899174 0
M  V30 27 C -2.573242 -4.423048 1.482196 0
M  V30 28 O -1.608735 -3.534426 1.034746 0
M  V30 29 C -0.794746 -3.861609 -0.068853 0
M  V30 30 C -1.218272 -3.106815 -1.317389 0
M  V30 31 C 0.646396 -3.585112 0.189084 0
M  V30 32 C -0.967963 -1.667565 3.511901 0
M  V30 33 H -3.160645 -0.415375 2.414605 0
M  V30 34 H -2.311814 -0.930660 0.856560 0
M  V30 35 H -2.221204 0.762619 1.527281 0
M  V30 36 H 2.329654 1.608363 2.416204 0
M  V30 37 H 2.986880 3.447903 1.208261 0
M  V30 38 H 1.287791 3.988811 1.120391 0
M  V30 39 H 2.764422 2.097236 -0.715453 0
M  V30 40 H 1.029506 2.472859 -0.951491 0
M  V30 41 H 1.774393 4.998029 -0.993120 0
M  V30 42 H 3.403187 4.331487 -0.998829 0
M  V30 43 H 0.235180 3.776402 -2.810079 0
M  V30 44 H 1.090832 4.201925 -4.360870 0
M  V30 45 H 0.664383 1.571377 -3.127323 0
M  V30 46 H 0.925978 2.015929 -4.886965 0
M  V30 47 H 2.877706 1.119995 -2.889602 0
M  V30 48 H 3.201111 1.438169 -4.637032 0
M  V30 49 H 4.289450 2.947327 -2.657942 0
M  V30 50 H 3.812582 3.629034 -4.219876 0
M  V30 51 H -0.228180 -4.394233 6.208023 0
M  V30 52 H -4.135996 -2.349368 3.240828 0
M  V30 53 H -4.862426 -4.651369 3.856726 0
M  V30 54 H -5.308105 -6.783789 2.863239 0
M  V30 55 H -3.912150 -7.429325 0.866855 0
M  V30 56 H -1.024542 -4.938798 -0.306708 0
M  V30 57 H -1.466180 -2.049869 -1.087366 0
M  V30 58 H -0.346104 -3.091648 -2.001559 0
M  V30 59 H -2.022809 -3.647360 -1.862266 0
M  V30 60 H 1.335754 -4.390887 -0.178378 0
M  V30 61 H 0.837944 -3.479271 1.277880 0
M  V30 62 H 1.011176 -2.636651 -0.289185 0
M  V30 END ATOM
M  V30 BEGIN BOND
M  V30 1 1 1 2
M  V30 2 2 2 3
M  V30 3 1 3 4
M  V30 4 2 4 5
M  V30 5 1 4 6
M  V30 6 1 6 7
M  V30 7 1 7 8
M  V30 8 1 8 9
M  V30 9 1 9 10
M  V30 10 1 10 11
M  V30 11 1 11 12
M  V30 12 1 12 13
M  V30 13 1 13 14
M  V30 14 1 3 15
M  V30 15 1 15 16
M  V30 16 2 16 17
M  V30 17 1 17 18
M  V30 18 2 18 19
M  V30 19 1 19 20
M  V30 20 1 20 21
M  V30 21 1 21 22
M  V30 22 2 22 23
M  V30 23 1 23 24
M  V30 24 2 24 25
M  V30 25 1 25 26
M  V30 26 2 26 27
M  V30 27 1 27 28
M  V30 28 1 28 29
M  V30 29 1 29 30
M  V30 30 1 29 31
M  V30 31 2 20 32
M  V30 32 1 32 2
M  V30 33 1 14 10
M  V30 34 1 32 16
M  V30 35 1 27 22
M  V30 36 1 1 33
M  V30 37 1 1 34
M  V30 38 1 1 35
M  V30 39 1 6 36
M  V30 40 1 7 37
M  V30 41 1 7 38
M  V30 42 1 8 39
M  V30 43 1 8 40
M  V30 44 1 9 41
M  V30 45 1 9 42
M  V30 46 1 11 43
M  V30 47 1 11 44
M  V30 48 1 12 45
M  V30 49 1 12 46
M  V30 50 1 13 47
M  V30 51 1 13 48
M  V30 52 1 14 49
M  V30 53 1 14 50
M  V30 54 1 18 51
M  V30 55 1 21 52
M  V30 56 1 23 53
M  V30 57 1 24 54
M  V30 58 1 25 55
M  V30 59 1 29 56
M  V30 60 1 30 57
M  V30 61 1 30 58
M  V30 62 1 30 59
M  V30 63 1 31 60
M  V30 64 1 31 61
M  V30 65 1 31 62
M  V30 END BOND
M  V30 END CTAB
M  END
>  <Dataset>  (660) 
ChEMBL_Kinases

>  <Ligand_Instance>  (660) 
nan

>  <PDB_ID>  (660) 
nan

>  <Standardized_SMILES>  (660) 
Cc1c(C(=O)NCCCN2CCCC2)sc2ncnc(Nc3cccnc3OC(C)C)c12

>  <Name>  (660) 
nan

>  <Pocket>  (660) 
nan

>  <ATP_Site>  (660) 
nan

>  <Peripheral>  (660) 
nan

>  <Num_H_Atoms_ProtBoundConf>  (660) 
nan

>  <Num_Resolved_Atoms>  (660) 
nan

>  <Num_Not_Resolved_Atoms>  (660) 
nan

$$$$
CHEMBL5076561
     RDKit          3D

  0  0  0  0  0  0  0  0  0  0999 V3000
M  V30 BEGIN CTAB
M  V30 COUNTS 52 56 0 0 0
M  V30 BEGIN ATOM
M  V30 1 C 5.635572 0.562541 1.780760 0
M  V30 2 N 5.771661 1.520337 2.838261 0
M  V30 3 N 6.621065 1.419439 3.858093 0
M  V30 4 C 6.522426 2.460386 4.685346 0
M  V30 5 C 5.536837 3.310751 4.175750 0
M  V30 6 C 5.118071 2.664741 3.033657 0
M  V30 7 N 4.102058 3.216924 2.209506 0
M  V30 8 C 3.537120 2.717383 1.007113 0
M  V30 9 N 3.983133 2.984065 -0.255787 0
M  V30 10 C 3.290192 2.398588 -1.254915 0
M  V30 11 C 2.190032 1.569137 -1.109573 0
M  V30 12 Cl 1.402009 0.887258 -2.522116 0
M  V30 13 C 1.794907 1.343850 0.198557 0
M  V30 14 C 0.633464 0.469818 0.369597 0
M  V30 15 C -0.476010 0.628091 1.189736 0
M  V30 16 C -1.307825 -0.466378 1.002338 0
M  V30 17 N -0.746764 -1.288816 0.096640 0
M  V30 18 C 0.418275 -0.727851 -0.283666 0
M  V30 19 C -1.662935 -2.374433 -0.030914 0
M  V30 20 O -1.376499 -3.314990 -0.837648 0
M  V30 21 N -2.790270 -2.165637 0.833766 0
M  V30 22 C -3.828982 -3.211614 0.811505 0 CFG=2
M  V30 23 C -3.307915 -4.522666 1.323447 0
M  V30 24 O -4.322862 -5.457456 1.309023 0
M  V30 25 C -4.296645 -3.361356 -0.568132 0
M  V30 26 C -4.583119 -2.088855 -1.088785 0
M  V30 27 C -5.049208 -1.909569 -2.399323 0
M  V30 28 C -5.240041 -2.996981 -3.220522 0
M  V30 29 C -4.960122 -4.248840 -2.714354 0
M  V30 30 Cl -5.149346 -5.731101 -3.628717 0
M  V30 31 C -4.503049 -4.417084 -1.427547 0
M  V30 32 C -2.616284 -0.915057 1.549560 0
M  V30 33 N 2.462891 1.911933 1.225751 0
M  V30 34 H 4.680565 -0.001181 1.972432 0
M  V30 35 H 5.653596 0.996229 0.780058 0
M  V30 36 H 6.425738 -0.221424 1.860920 0
M  V30 37 H 7.113766 2.604784 5.592559 0
M  V30 38 H 5.200849 4.246798 4.595731 0
M  V30 39 H 3.606039 4.113524 2.385666 0
M  V30 40 H 3.647410 2.612229 -2.265610 0
M  V30 41 H -0.584234 1.506465 1.840389 0
M  V30 42 H 1.097796 -1.161681 -1.008699 0
M  V30 43 H -4.629950 -2.901240 1.531059 0
M  V30 44 H -2.450869 -4.899362 0.710066 0
M  V30 45 H -2.935714 -4.462916 2.363783 0
M  V30 46 H -4.688757 -5.611530 2.207812 0
M  V30 47 H -4.497610 -1.120540 -0.602980 0
M  V30 48 H -5.284446 -0.968166 -2.852361 0
M  V30 49 H -5.595695 -2.931367 -4.237756 0
M  V30 50 H -4.257279 -5.356046 -0.958907 0
M  V30 51 H -3.360895 -0.140425 1.267586 0
M  V30 52 H -2.577806 -1.067252 2.645532 0
M  V30 END ATOM
M  V30 BEGIN BOND
M  V30 1 1 1 2
M  V30 2 1 2 3
M  V30 3 2 3 4
M  V30 4 1 4 5
M  V30 5 2 5 6
M  V30 6 1 6 7
M  V30 7 1 7 8
M  V30 8 2 8 9
M  V30 9 1 9 10
M  V30 10 2 10 11
M  V30 11 1 11 12
M  V30 12 1 11 13
M  V30 13 1 13 14
M  V30 14 1 14 15
M  V30 15 2 15 16
M  V30 16 1 16 17
M  V30 17 1 17 18
M  V30 18 1 17 19
M  V30 19 2 19 20
M  V30 20 1 19 21
M  V30 21 1 21 22
M  V30 22 1 22 23
M  V30 23 1 23 24
M  V30 24 1 22 25
M  V30 25 2 25 26
M  V30 26 1 26 27
M  V30 27 2 27 28
M  V30 28 1 28 29
M  V30 29 1 29 30
M  V30 30 2 29 31
M  V30 31 1 21 32
M  V30 32 2 13 33
M  V30 33 1 6 2
M  V30 34 1 33 8
M  V30 35 2 18 14
M  V30 36 1 31 25
M  V30 37 1 32 16
M  V30 38 1 1 34
M  V30 39 1 1 35
M  V30 40 1 1 36
M  V30 41 1 4 37
M  V30 42 1 5 38
M  V30 43 1 7 39
M  V30 44 1 10 40
M  V30 45 1 15 41
M  V30 46 1 18 42
M  V30 47 1 22 43 CFG=1
M  V30 48 1 23 44
M  V30 49 1 23 45
M  V30 50 1 24 46
M  V30 51 1 26 47
M  V30 52 1 27 48
M  V30 53 1 28 49
M  V30 54 1 31 50
M  V30 55 1 32 51
M  V30 56 1 32 52
M  V30 END BOND
M  V30 END CTAB
M  END
>  <Dataset>  (661) 
ChEMBL_Kinases

>  <Ligand_Instance>  (661) 
nan

>  <PDB_ID>  (661) 
nan

>  <Standardized_SMILES>  (661) 
Cn1nccc1Nc1ncc(Cl)c(-c2cc3n(c2)C(=O)N([C@H](CO)c2cccc(Cl)c2)C3)n1

>  <Name>  (661) 
nan

>  <Pocket>  (661) 
nan

>  <ATP_Site>  (661) 
nan

>  <Peripheral>  (661) 
nan

>  <Num_H_Atoms_ProtBoundConf>  (661) 
nan

>  <Num_Resolved_Atoms>  (661) 
nan

>  <Num_Not_Resolved_Atoms>  (661) 
nan

$$$$
CHEMBL5076588
     RDKit          3D

  0  0  0  0  0  0  0  0  0  0999 V3000
M  V30 BEGIN CTAB
M  V30 COUNTS 63 67 0 0 0
M  V30 BEGIN ATOM
M  V30 1 C 2.464458 -3.107042 4.242091 0
M  V30 2 C 2.617744 -1.863168 3.479692 0
M  V30 3 C 3.295383 -0.790980 4.022922 0
M  V30 4 C 3.447638 0.385764 3.318261 0
M  V30 5 F 4.117642 1.429761 3.869700 0
M  V30 6 C 2.908279 0.478302 2.050258 0
M  V30 7 N 3.038227 1.678397 1.276012 0
M  V30 8 C 2.033891 2.689516 1.385504 0
M  V30 9 O 1.107700 2.395468 2.186862 0
M  V30 10 N 2.113211 3.904604 0.637380 0
M  V30 11 C 1.013227 4.784676 0.887148 0
M  V30 12 C 0.921436 5.773083 1.853278 0
M  V30 13 C -0.240243 6.511281 1.919463 0
M  V30 14 N -1.256202 6.287261 1.078915 0
M  V30 15 C -1.190260 5.333287 0.132853 0
M  V30 16 C -2.347895 5.110397 -0.791502 0
M  V30 17 F -3.086209 3.991295 -0.424452 0
M  V30 18 F -1.910339 5.002801 -2.104238 0
M  V30 19 F -3.195387 6.198303 -0.740039 0
M  V30 20 C -0.045061 4.565942 0.026676 0
M  V30 21 C 2.234943 -0.612384 1.532819 0
M  V30 22 C 2.065577 -1.817097 2.224531 0
M  V30 23 C 1.333126 -2.896305 1.566390 0
M  V30 24 C 1.675478 -4.232325 1.506195 0
M  V30 25 C 0.862891 -5.126260 0.837137 0
M  V30 26 C -0.289121 -4.643261 0.238208 0
M  V30 27 C -0.669771 -3.309179 0.274877 0
M  V30 28 C 0.156777 -2.452251 0.944976 0
M  V30 29 O -1.795543 -2.719744 -0.286981 0
M  V30 30 C -2.734854 -3.236200 -1.245164 0
M  V30 31 C -2.004311 -3.702166 -2.478947 0
M  V30 32 C -1.968578 -2.667714 -3.562913 0
M  V30 33 O -3.290899 -2.340610 -3.855074 0
M  V30 34 C -3.706791 -1.506523 -2.805063 0
M  V30 35 C -3.790138 -2.216080 -1.492982 0
M  V30 36 C -3.340797 -4.505451 -0.631458 0
M  V30 37 C -2.380583 -5.642673 -0.865069 0
M  V30 38 O -2.772019 -6.650320 -1.508494 0
M  V30 39 N -1.012034 -5.687057 -0.406550 0
M  V30 40 H 2.433481 -2.803823 5.329714 0
M  V30 41 H 1.517687 -3.600576 3.963119 0
M  V30 42 H 3.366222 -3.727483 4.154305 0
M  V30 43 H 3.694657 -0.913285 5.009231 0
M  V30 44 H 3.850477 1.855507 0.619316 0
M  V30 45 H 2.929617 4.070581 -0.015789 0
M  V30 46 H 1.803919 5.861354 2.473594 0
M  V30 47 H -0.257595 7.279263 2.702481 0
M  V30 48 H -0.060966 3.811038 -0.762773 0
M  V30 49 H 1.811950 -0.531411 0.531009 0
M  V30 50 H 2.597525 -4.486123 2.011872 0
M  V30 51 H 1.152572 -6.162453 0.805041 0
M  V30 52 H -0.176045 -1.405500 0.953105 0
M  V30 53 H -2.409183 -4.645562 -2.886311 0
M  V30 54 H -0.948743 -3.925863 -2.157759 0
M  V30 55 H -1.503572 -3.134547 -4.455189 0
M  V30 56 H -1.350957 -1.790692 -3.297441 0
M  V30 57 H -2.985670 -0.646429 -2.784146 0
M  V30 58 H -4.679721 -1.050852 -3.068333 0
M  V30 59 H -3.744713 -1.419331 -0.693702 0
M  V30 60 H -4.783906 -2.689390 -1.356617 0
M  V30 61 H -4.252135 -4.721652 -1.226045 0
M  V30 62 H -3.565083 -4.382614 0.431056 0
M  V30 63 H -0.475874 -6.568076 -0.552667 0
M  V30 END ATOM
M  V30 BEGIN BOND
M  V30 1 1 1 2
M  V30 2 2 2 3
M  V30 3 1 3 4
M  V30 4 1 4 5
M  V30 5 2 4 6
M  V30 6 1 6 7
M  V30 7 1 7 8
M  V30 8 2 8 9
M  V30 9 1 8 10
M  V30 10 1 10 11
M  V30 11 2 11 12
M  V30 12 1 12 13
M  V30 13 2 13 14
M  V30 14 1 14 15
M  V30 15 1 15 16
M  V30 16 1 16 17
M  V30 17 1 16 18
M  V30 18 1 16 19
M  V30 19 2 15 20
M  V30 20 1 6 21
M  V30 21 2 21 22
M  V30 22 1 22 23
M  V30 23 2 23 24
M  V30 24 1 24 25
M  V30 25 2 25 26
M  V30 26 1 26 27
M  V30 27 2 27 28
M  V30 28 1 27 29
M  V30 29 1 29 30
M  V30 30 1 30 31
M  V30 31 1 31 32
M  V30 32 1 32 33
M  V30 33 1 33 34
M  V30 34 1 34 35
M  V30 35 1 30 36
M  V30 36 1 36 37
M  V30 37 2 37 38
M  V30 38 1 37 39
M  V30 39 1 22 2
M  V30 40 1 28 23
M  V30 41 1 35 30
M  V30 42 1 20 11
M  V30 43 1 39 26
M  V30 44 1 1 40
M  V30 45 1 1 41
M  V30 46 1 1 42
M  V30 47 1 3 43
M  V30 48 1 7 44
M  V30 49 1 10 45
M  V30 50 1 12 46
M  V30 51 1 13 47
M  V30 52 1 20 48
M  V30 53 1 21 49
M  V30 54 1 24 50
M  V30 55 1 25 51
M  V30 56 1 28 52
M  V30 57 1 31 53
M  V30 58 1 31 54
M  V30 59 1 32 55
M  V30 60 1 32 56
M  V30 61 1 34 57
M  V30 62 1 34 58
M  V30 63 1 35 59
M  V30 64 1 35 60
M  V30 65 1 36 61
M  V30 66 1 36 62
M  V30 67 1 39 63
M  V30 END BOND
M  V30 END CTAB
M  END
>  <Dataset>  (662) 
ChEMBL_Kinases

>  <Ligand_Instance>  (662) 
nan

>  <PDB_ID>  (662) 
nan

>  <Standardized_SMILES>  (662) 
Cc1cc(F)c(NC(=O)Nc2ccnc(C(F)(F)F)c2)cc1-c1ccc2c(c1)OC1(CCOCC1)CC(=O)N2

>  <Name>  (662) 
nan

>  <Pocket>  (662) 
nan

>  <ATP_Site>  (662) 
nan

>  <Peripheral>  (662) 
nan

>  <Num_H_Atoms_ProtBoundConf>  (662) 
nan

>  <Num_Resolved_Atoms>  (662) 
nan

>  <Num_Not_Resolved_Atoms>  (662) 
nan

$$$$
CHEMBL5076627
     RDKit          3D

  0  0  0  0  0  0  0  0  0  0999 V3000
M  V30 BEGIN CTAB
M  V30 COUNTS 74 78 0 0 0
M  V30 BEGIN ATOM
M  V30 1 C 2.595532 -1.877825 4.841875 0
M  V30 2 C 1.757123 -3.007952 4.227918 0
M  V30 3 N 0.711435 -2.337395 3.442257 0
M  V30 4 C -0.084295 -3.377113 2.871416 0
M  V30 5 C 0.740883 -4.121215 1.832662 0
M  V30 6 C 0.604581 -0.901857 3.334129 0
M  V30 7 C -0.068798 -0.003501 4.132086 0
M  V30 8 N -0.026837 1.307684 3.844853 0
M  V30 9 C 0.677000 1.745756 2.771966 0
M  V30 10 C 0.692125 3.109582 2.527632 0
M  V30 11 C 1.397633 3.616704 1.454317 0
M  V30 12 C 2.089343 2.753958 0.623969 0
M  V30 13 C 2.933021 2.997895 -0.545875 0
M  V30 14 N 2.747651 2.290712 -1.681896 0
M  V30 15 C 3.507109 2.444399 -2.780407 0
M  V30 16 N 3.190907 1.652688 -3.944184 0
M  V30 17 C 1.998826 0.872317 -3.924968 0
M  V30 18 C 1.641665 0.075242 -5.010207 0
M  V30 19 C 0.454697 -0.657387 -4.985737 0
M  V30 20 C -0.375783 -0.602163 -3.892231 0
M  V30 21 C -1.628407 -1.254580 -3.670584 0
M  V30 22 O -2.295097 -0.863088 -4.690617 0
M  V30 23 N -2.191439 -2.106048 -2.710299 0
M  V30 24 C -1.549224 -2.608552 -1.540771 0
M  V30 25 C -2.405803 -2.673934 -0.314476 0
M  V30 26 N -3.738969 -2.284032 -0.449481 0
M  V30 27 C -4.425863 -1.870224 0.715722 0
M  V30 28 C -3.831753 -0.684069 1.433620 0
M  V30 29 C -4.611854 -2.972957 1.734862 0
M  V30 30 C -4.323318 -2.044895 -1.693085 0
M  V30 31 C -3.557798 -2.533442 -2.886950 0
M  V30 32 C 0.006672 0.204935 -2.813838 0
M  V30 33 N 1.162528 0.912786 -2.848409 0
M  V30 34 N 4.507796 3.331743 -2.789806 0
M  V30 35 C 4.768624 4.091980 -1.686430 0
M  V30 36 C 3.976901 3.932865 -0.541179 0
M  V30 37 F 4.177269 4.651893 0.588112 0
M  V30 38 C 2.056806 1.377529 0.894028 0
M  V30 39 C 1.358808 0.848421 1.961240 0
M  V30 40 N 1.311260 -0.463949 2.256198 0
M  V30 41 H 3.382566 -2.350381 5.490075 0
M  V30 42 H 3.152472 -1.336160 4.056030 0
M  V30 43 H 1.959629 -1.212679 5.470456 0
M  V30 44 H 2.405868 -3.532256 3.495264 0
M  V30 45 H 1.350335 -3.666334 4.992480 0
M  V30 46 H -0.970948 -2.971395 2.347507 0
M  V30 47 H -0.484360 -4.075636 3.628620 0
M  V30 48 H 0.126163 -4.515932 0.993044 0
M  V30 49 H 1.260981 -4.963229 2.341411 0
M  V30 50 H 1.470911 -3.428737 1.369509 0
M  V30 51 H -0.574693 -0.493365 4.933022 0
M  V30 52 H 0.186177 3.863806 3.113177 0
M  V30 53 H 1.515438 4.637947 1.122132 0
M  V30 54 H 3.783892 1.624986 -4.784617 0
M  V30 55 H 2.261207 0.002320 -5.883371 0
M  V30 56 H 0.108883 -1.291123 -5.777621 0
M  V30 57 H -1.209539 -3.660449 -1.752174 0
M  V30 58 H -0.617268 -2.016044 -1.407788 0
M  V30 59 H -2.359501 -3.664012 0.192092 0
M  V30 60 H -1.926843 -1.957874 0.420732 0
M  V30 61 H -5.459563 -1.548606 0.415623 0
M  V30 62 H -4.640113 -0.055737 1.907139 0
M  V30 63 H -3.320383 -0.043592 0.693267 0
M  V30 64 H -3.169863 -1.014793 2.250346 0
M  V30 65 H -4.394448 -2.624922 2.767297 0
M  V30 66 H -5.679669 -3.340331 1.769126 0
M  V30 67 H -3.986728 -3.850778 1.538199 0
M  V30 68 H -5.345990 -2.470797 -1.739164 0
M  V30 69 H -4.454759 -0.933917 -1.847435 0
M  V30 70 H -4.019740 -2.061036 -3.791979 0
M  V30 71 H -3.679073 -3.616099 -2.988479 0
M  V30 72 H -0.522442 0.362214 -1.880882 0
M  V30 73 H 5.581678 4.824558 -1.673010 0
M  V30 74 H 2.554982 0.592266 0.324009 0
M  V30 END ATOM
M  V30 BEGIN BOND
M  V30 1 1 1 2
M  V30 2 1 2 3
M  V30 3 1 3 4
M  V30 4 1 4 5
M  V30 5 1 3 6
M  V30 6 2 6 7
M  V30 7 1 7 8
M  V30 8 2 8 9
M  V30 9 1 9 10
M  V30 10 2 10 11
M  V30 11 1 11 12
M  V30 12 1 12 13
M  V30 13 2 13 14
M  V30 14 1 14 15
M  V30 15 1 15 16
M  V30 16 1 16 17
M  V30 17 2 17 18
M  V30 18 1 18 19
M  V30 19 2 19 20
M  V30 20 1 20 21
M  V30 21 2 21 22
M  V30 22 1 21 23
M  V30 23 1 23 24
M  V30 24 1 24 25
M  V30 25 1 25 26
M  V30 26 1 26 27
M  V30 27 1 27 28
M  V30 28 1 27 29
M  V30 29 1 26 30
M  V30 30 1 30 31
M  V30 31 1 20 32
M  V30 32 2 32 33
M  V30 33 2 15 34
M  V30 34 1 34 35
M  V30 35 2 35 36
M  V30 36 1 36 37
M  V30 37 2 12 38
M  V30 38 1 38 39
M  V30 39 2 39 40
M  V30 40 1 40 6
M  V30 41 1 39 9
M  V30 42 1 36 13
M  V30 43 1 33 17
M  V30 44 1 31 23
M  V30 45 1 1 41
M  V30 46 1 1 42
M  V30 47 1 1 43
M  V30 48 1 2 44
M  V30 49 1 2 45
M  V30 50 1 4 46
M  V30 51 1 4 47
M  V30 52 1 5 48
M  V30 53 1 5 49
M  V30 54 1 5 50
M  V30 55 1 7 51
M  V30 56 1 10 52
M  V30 57 1 11 53
M  V30 58 1 16 54
M  V30 59 1 18 55
M  V30 60 1 19 56
M  V30 61 1 24 57
M  V30 62 1 24 58
M  V30 63 1 25 59
M  V30 64 1 25 60
M  V30 65 1 27 61
M  V30 66 1 28 62
M  V30 67 1 28 63
M  V30 68 1 28 64
M  V30 69 1 29 65
M  V30 70 1 29 66
M  V30 71 1 29 67
M  V30 72 1 30 68
M  V30 73 1 30 69
M  V30 74 1 31 70
M  V30 75 1 31 71
M  V30 76 1 32 72
M  V30 77 1 35 73
M  V30 78 1 38 74
M  V30 END BOND
M  V30 END CTAB
M  END
>  <Dataset>  (663) 
ChEMBL_Kinases

>  <Ligand_Instance>  (663) 
nan

>  <PDB_ID>  (663) 
nan

>  <Standardized_SMILES>  (663) 
CCN(CC)c1cnc2ccc(-c3nc(Nc4ccc(C(=O)N5CCN(C(C)C)CC5)cn4)ncc3F)cc2n1

>  <Name>  (663) 
nan

>  <Pocket>  (663) 
nan

>  <ATP_Site>  (663) 
nan

>  <Peripheral>  (663) 
nan

>  <Num_H_Atoms_ProtBoundConf>  (663) 
nan

>  <Num_Resolved_Atoms>  (663) 
nan

>  <Num_Not_Resolved_Atoms>  (663) 
nan

$$$$
CHEMBL5076663
     RDKit          3D

  0  0  0  0  0  0  0  0  0  0999 V3000
M  V30 BEGIN CTAB
M  V30 COUNTS 36 38 0 0 0
M  V30 BEGIN ATOM
M  V30 1 C 0.300530 -2.924994 2.188923 0
M  V30 2 C 1.190382 -2.514186 1.004513 0
M  V30 3 N 0.572021 -1.343953 0.437076 0
M  V30 4 C 0.790565 -0.058750 0.751575 0
M  V30 5 C 1.681625 0.545352 1.724574 0
M  V30 6 C 3.021569 0.321172 1.946302 0
M  V30 7 C 3.746396 0.961046 2.926168 0
M  V30 8 C 3.125769 1.889139 3.754101 0
M  V30 9 C 1.780270 2.135039 3.554454 0
M  V30 10 F 1.283602 3.052610 4.414178 0
M  V30 11 C 1.073559 1.481660 2.566138 0
M  V30 12 F -0.238453 1.885486 2.562790 0
M  V30 13 C -0.053839 0.710918 -0.057770 0
M  V30 14 C -0.223498 2.135689 -0.135323 0
M  V30 15 N -0.340167 3.285153 -0.195415 0
M  V30 16 C -0.785891 -0.132810 -0.866783 0
M  V30 17 C -1.749271 0.019526 -1.841921 0
M  V30 18 N -2.181654 1.328590 -2.191426 0
M  V30 19 N -2.258846 -1.074354 -2.441172 0
M  V30 20 C -1.869781 -2.319700 -2.131481 0
M  V30 21 C -2.387788 -3.563176 -2.750000 0
M  V30 22 N -0.930157 -2.461332 -1.179888 0
M  V30 23 C -0.378735 -1.409283 -0.540777 0
M  V30 24 H 0.033243 -1.964268 2.687199 0
M  V30 25 H -0.621601 -3.341842 1.697624 0
M  V30 26 H 0.790230 -3.654253 2.833310 0
M  V30 27 H 2.195898 -2.363010 1.403125 0
M  V30 28 H 1.139807 -3.351811 0.269102 0
M  V30 29 H 3.477174 -0.396750 1.284406 0
M  V30 30 H 4.802409 0.704445 3.011084 0
M  V30 31 H 3.776655 2.336734 4.490499 0
M  V30 32 H -3.202991 1.549349 -2.076330 0
M  V30 33 H -1.786276 2.203440 -2.550578 0
M  V30 34 H -3.233237 -4.018701 -2.178098 0
M  V30 35 H -2.731786 -3.438919 -3.789766 0
M  V30 36 H -1.594070 -4.340128 -2.785433 0
M  V30 END ATOM
M  V30 BEGIN BOND
M  V30 1 1 1 2
M  V30 2 1 2 3
M  V30 3 1 3 4
M  V30 4 1 4 5
M  V30 5 2 5 6
M  V30 6 1 6 7
M  V30 7 2 7 8
M  V30 8 1 8 9
M  V30 9 1 9 10
M  V30 10 2 9 11
M  V30 11 1 11 12
M  V30 12 2 4 13
M  V30 13 1 13 14
M  V30 14 3 14 15
M  V30 15 1 13 16
M  V30 16 2 16 17
M  V30 17 1 17 18
M  V30 18 1 17 19
M  V30 19 2 19 20
M  V30 20 1 20 21
M  V30 21 1 20 22
M  V30 22 2 22 23
M  V30 23 1 23 3
M  V30 24 1 11 5
M  V30 25 1 23 16
M  V30 26 1 1 24
M  V30 27 1 1 25
M  V30 28 1 1 26
M  V30 29 1 2 27
M  V30 30 1 2 28
M  V30 31 1 6 29
M  V30 32 1 7 30
M  V30 33 1 8 31
M  V30 34 1 18 32
M  V30 35 1 18 33
M  V30 36 1 21 34
M  V30 37 1 21 35
M  V30 38 1 21 36
M  V30 END BOND
M  V30 END CTAB
M  END
>  <Dataset>  (664) 
ChEMBL_Kinases

>  <Ligand_Instance>  (664) 
nan

>  <PDB_ID>  (664) 
nan

>  <Standardized_SMILES>  (664) 
CCn1c(-c2cccc(F)c2F)c(C#N)c2c(N)nc(C)nc21

>  <Name>  (664) 
nan

>  <Pocket>  (664) 
nan

>  <ATP_Site>  (664) 
nan

>  <Peripheral>  (664) 
nan

>  <Num_H_Atoms_ProtBoundConf>  (664) 
nan

>  <Num_Resolved_Atoms>  (664) 
nan

>  <Num_Not_Resolved_Atoms>  (664) 
nan

$$$$
CHEMBL5076688
     RDKit          3D

  0  0  0  0  0  0  0  0  0  0999 V3000
M  V30 BEGIN CTAB
M  V30 COUNTS 50 54 0 0 0
M  V30 BEGIN ATOM
M  V30 1 O 0.619892 -0.721902 2.716098 0
M  V30 2 S 1.849667 -1.212474 3.366122 0
M  V30 3 O 1.577677 -1.739558 4.761372 0
M  V30 4 N 2.611838 -2.523640 2.488593 0
M  V30 5 C 3.525694 -1.751931 1.669614 0
M  V30 6 C 4.148860 -0.749660 2.602385 0
M  V30 7 N 3.146486 -0.104133 3.375530 0
M  V30 8 C 2.845708 1.244257 3.159008 0
M  V30 9 C 3.135279 1.850093 1.843988 0
M  V30 10 N 2.532454 1.373409 0.671431 0
M  V30 11 C 1.365404 1.114781 -0.085827 0
M  V30 12 N 0.915067 2.257336 -0.641370 0
M  V30 13 C -0.206257 2.247575 -1.426314 0
M  V30 14 C -0.819592 1.028903 -1.601846 0
M  V30 15 C -0.391314 -0.127156 -1.059723 0
M  V30 16 C -0.854869 -1.508272 -1.106825 0
M  V30 17 C -2.102229 -1.847028 -0.630226 0
M  V30 18 C -3.207486 -1.135801 -0.050599 0
M  V30 19 C -3.988278 -0.377448 -0.903078 0
M  V30 20 C -5.080788 0.373857 -0.523067 0
M  V30 21 C -5.408530 0.360559 0.807605 0
M  V30 22 C -4.643489 -0.392005 1.692054 0
M  V30 23 O -4.966802 -0.414357 3.053328 0
M  V30 24 C -3.555741 -1.134960 1.285485 0
M  V30 25 N -2.214945 -3.174360 -0.808257 0
M  V30 26 C -1.098658 -3.615028 -1.361895 0
M  V30 27 S -0.166105 -5.104765 -2.018113 0
M  V30 28 C 1.291106 -4.163332 -2.483627 0
M  V30 29 C 0.991340 -2.865886 -2.132326 0
M  V30 30 N -0.189491 -2.574879 -1.574019 0
M  V30 31 N 0.732641 -0.048249 -0.286695 0
M  V30 32 H 1.899972 -2.952349 1.843670 0
M  V30 33 H 2.927207 -1.316686 0.866561 0
M  V30 34 H 4.360349 -2.387795 1.283625 0
M  V30 35 H 4.826032 -0.050354 2.066825 0
M  V30 36 H 4.747210 -1.373200 3.337224 0
M  V30 37 H 3.487979 1.834443 3.905419 0
M  V30 38 H 1.804696 1.522527 3.530308 0
M  V30 39 H 4.249789 1.847914 1.717859 0
M  V30 40 H 2.914659 2.971092 1.893879 0
M  V30 41 H 3.175208 0.988799 -0.092534 0
M  V30 42 H -0.663965 3.091658 -1.922853 0
M  V30 43 H -1.723425 0.864311 -2.202882 0
M  V30 44 H -3.760557 -0.345666 -1.966622 0
M  V30 45 H -5.649243 0.947124 -1.264565 0
M  V30 46 H -6.263540 0.941523 1.140453 0
M  V30 47 H -4.786949 -1.259300 3.569062 0
M  V30 48 H -2.931377 -1.734760 1.931928 0
M  V30 49 H 2.114529 -4.632000 -2.917391 0
M  V30 50 H 1.778409 -2.162667 -2.349509 0
M  V30 END ATOM
M  V30 BEGIN BOND
M  V30 1 2 1 2
M  V30 2 2 2 3
M  V30 3 1 2 4
M  V30 4 1 4 5
M  V30 5 1 5 6
M  V30 6 1 6 7
M  V30 7 1 7 8
M  V30 8 1 8 9
M  V30 9 1 9 10
M  V30 10 1 10 11
M  V30 11 2 11 12
M  V30 12 1 12 13
M  V30 13 2 13 14
M  V30 14 1 14 15
M  V30 15 1 15 16
M  V30 16 2 16 17
M  V30 17 1 17 18
M  V30 18 2 18 19
M  V30 19 1 19 20
M  V30 20 2 20 21
M  V30 21 1 21 22
M  V30 22 1 22 23
M  V30 23 2 22 24
M  V30 24 1 17 25
M  V30 25 2 25 26
M  V30 26 1 26 27
M  V30 27 1 27 28
M  V30 28 2 28 29
M  V30 29 1 29 30
M  V30 30 2 15 31
M  V30 31 1 7 2
M  V30 32 1 31 11
M  V30 33 1 30 16
M  V30 34 1 24 18
M  V30 35 1 30 26
M  V30 36 1 4 32
M  V30 37 1 5 33
M  V30 38 1 5 34
M  V30 39 1 6 35
M  V30 40 1 6 36
M  V30 41 1 8 37
M  V30 42 1 8 38
M  V30 43 1 9 39
M  V30 44 1 9 40
M  V30 45 1 10 41
M  V30 46 1 13 42
M  V30 47 1 14 43
M  V30 48 1 19 44
M  V30 49 1 20 45
M  V30 50 1 21 46
M  V30 51 1 23 47
M  V30 52 1 24 48
M  V30 53 1 28 49
M  V30 54 1 29 50
M  V30 END BOND
M  V30 END CTAB
M  END
>  <Dataset>  (665) 
ChEMBL_Kinases

>  <Ligand_Instance>  (665) 
nan

>  <PDB_ID>  (665) 
nan

>  <Standardized_SMILES>  (665) 
O=S1(=O)NCCN1CCNc1nccc(-c2c(-c3cccc(O)c3)nc3sccn23)n1

>  <Name>  (665) 
nan

>  <Pocket>  (665) 
nan

>  <ATP_Site>  (665) 
nan

>  <Peripheral>  (665) 
nan

>  <Num_H_Atoms_ProtBoundConf>  (665) 
nan

>  <Num_Resolved_Atoms>  (665) 
nan

>  <Num_Not_Resolved_Atoms>  (665) 
nan

$$$$
CHEMBL5076754
     RDKit          3D

  0  0  0  0  0  0  0  0  0  0999 V3000
M  V30 BEGIN CTAB
M  V30 COUNTS 68 72 0 0 0
M  V30 BEGIN ATOM
M  V30 1 C 3.788481 -1.208692 6.922345 0
M  V30 2 C 3.037617 -2.111842 5.987017 0
M  V30 3 N 2.025458 -1.411948 5.212649 0
M  V30 4 C 1.353283 -2.293741 4.279030 0
M  V30 5 C 0.870712 -1.548515 3.037794 0
M  V30 6 N 2.036984 -1.036778 2.354340 0
M  V30 7 C 2.052164 -0.918138 0.929856 0
M  V30 8 C 3.155105 -0.307385 0.387792 0
M  V30 9 C 3.216868 -0.144967 -0.989463 0
M  V30 10 N 4.325731 0.525930 -1.634667 0
M  V30 11 C 3.684907 1.737260 -2.090657 0
M  V30 12 C 3.012253 2.721925 -1.401266 0
M  V30 13 C 2.538696 3.714032 -2.274075 0
M  V30 14 C 1.769389 4.896685 -1.832776 0
M  V30 15 N 2.943607 3.296211 -3.473645 0
M  V30 16 N 3.615015 2.144711 -3.386362 0
M  V30 17 N 2.186759 -0.601602 -1.699216 0
M  V30 18 C 1.093901 -1.203412 -1.201332 0
M  V30 19 N 0.086695 -1.586778 -2.090876 0
M  V30 20 C -1.172842 -2.274271 -1.826679 0 CFG=1
M  V30 21 C -1.933602 -1.632666 -0.722988 0
M  V30 22 C -3.220664 -1.203050 -1.357491 0
M  V30 23 N -3.408553 -2.135226 -2.481943 0
M  V30 24 C -4.669819 -2.748938 -2.838987 0
M  V30 25 O -4.871459 -3.565074 -3.798192 0
M  V30 26 C -5.816165 -2.364998 -1.984753 0
M  V30 27 C -5.993400 -3.145713 -0.868887 0
M  V30 28 F -5.190677 -4.197768 -0.586498 0
M  V30 29 C -7.067369 -2.741639 -0.069810 0
M  V30 30 C -7.867320 -1.655556 -0.387988 0
M  V30 31 Cl -9.184876 -1.277084 0.720103 0
M  V30 32 C -7.607056 -0.935750 -1.531505 0
M  V30 33 C -6.550210 -1.285986 -2.371833 0
M  V30 34 F -6.325765 -0.556038 -3.490602 0
M  V30 35 C -2.084983 -2.191884 -3.018363 0
M  V30 36 N 1.070599 -1.341725 0.134342 0
M  V30 37 C 3.150836 -0.656001 3.183503 0
M  V30 38 C 2.562592 -0.251428 4.544825 0
M  V30 39 H 3.105690 -0.375068 7.239983 0
M  V30 40 H 4.683832 -0.847199 6.374293 0
M  V30 41 H 4.141136 -1.816453 7.779505 0
M  V30 42 H 3.676259 -2.693793 5.316439 0
M  V30 43 H 2.494473 -2.857943 6.619014 0
M  V30 44 H 0.473638 -2.817174 4.722580 0
M  V30 45 H 2.088117 -3.043175 3.930276 0
M  V30 46 H 0.172902 -0.728326 3.321595 0
M  V30 47 H 0.346482 -2.295114 2.408488 0
M  V30 48 H 4.039947 0.087866 0.878133 0
M  V30 49 H 5.338627 0.283053 -1.777841 0
M  V30 50 H 2.929021 2.626344 -0.316966 0
M  V30 51 H 1.561561 4.837896 -0.729674 0
M  V30 52 H 0.782992 4.916606 -2.363120 0
M  V30 53 H 2.361071 5.801078 -2.062248 0
M  V30 54 H 2.741065 3.831977 -4.359379 0
M  V30 55 H 0.222625 -1.363154 -3.123133 0
M  V30 56 H -1.003547 -3.358077 -1.652318 0
M  V30 57 H -1.405673 -0.685706 -0.418035 0
M  V30 58 H -2.090396 -2.294948 0.155732 0
M  V30 59 H -4.046582 -1.352834 -0.598554 0
M  V30 60 H -3.243920 -0.147224 -1.680201 0
M  V30 61 H -7.265059 -3.315376 0.829411 0
M  V30 62 H -8.267676 -0.104291 -1.722577 0
M  V30 63 H -1.943997 -3.081004 -3.691630 0
M  V30 64 H -1.900171 -1.247441 -3.602311 0
M  V30 65 H 3.663815 0.240555 2.823007 0
M  V30 66 H 3.838215 -1.492408 3.388785 0
M  V30 67 H 1.717884 0.449359 4.365969 0
M  V30 68 H 3.357555 0.158952 5.196804 0
M  V30 END ATOM
M  V30 BEGIN BOND
M  V30 1 1 1 2
M  V30 2 1 2 3
M  V30 3 1 3 4
M  V30 4 1 4 5
M  V30 5 1 5 6
M  V30 6 1 6 7
M  V30 7 2 7 8
M  V30 8 1 8 9
M  V30 9 1 9 10
M  V30 10 1 10 11
M  V30 11 1 11 12
M  V30 12 2 12 13
M  V30 13 1 13 14
M  V30 14 1 13 15
M  V30 15 1 15 16
M  V30 16 2 9 17
M  V30 17 1 17 18
M  V30 18 1 18 19
M  V30 19 1 19 20
M  V30 20 1 20 21
M  V30 21 1 21 22
M  V30 22 1 22 23
M  V30 23 1 23 24
M  V30 24 2 24 25
M  V30 25 1 24 26
M  V30 26 2 26 27
M  V30 27 1 27 28
M  V30 28 1 27 29
M  V30 29 2 29 30
M  V30 30 1 30 31
M  V30 31 1 30 32
M  V30 32 2 32 33
M  V30 33 1 33 34
M  V30 34 1 23 35
M  V30 35 2 18 36
M  V30 36 1 6 37
M  V30 37 1 37 38
M  V30 38 1 38 3
M  V30 39 1 36 7
M  V30 40 2 16 11
M  V30 41 1 35 20
M  V30 42 1 33 26
M  V30 43 1 1 39
M  V30 44 1 1 40
M  V30 45 1 1 41
M  V30 46 1 2 42
M  V30 47 1 2 43
M  V30 48 1 4 44
M  V30 49 1 4 45
M  V30 50 1 5 46
M  V30 51 1 5 47
M  V30 52 1 8 48
M  V30 53 1 10 49
M  V30 54 1 12 50
M  V30 55 1 14 51
M  V30 56 1 14 52
M  V30 57 1 14 53
M  V30 58 1 15 54
M  V30 59 1 19 55
M  V30 60 1 20 56 CFG=1
M  V30 61 1 21 57
M  V30 62 1 21 58
M  V30 63 1 22 59
M  V30 64 1 22 60
M  V30 65 1 29 61
M  V30 66 1 32 62
M  V30 67 1 35 63
M  V30 68 1 35 64
M  V30 69 1 37 65
M  V30 70 1 37 66
M  V30 71 1 38 67
M  V30 72 1 38 68
M  V30 END BOND
M  V30 END CTAB
M  END
>  <Dataset>  (666) 
ChEMBL_Kinases

>  <Ligand_Instance>  (666) 
nan

>  <PDB_ID>  (666) 
nan

>  <Standardized_SMILES>  (666) 
CCN1CCN(c2cc(Nc3cc(C)[nH]n3)nc(N[C@H]3CCN(C(=O)c4c(F)cc(Cl)cc4F)C3)n2)CC1

>  <Name>  (666) 
nan

>  <Pocket>  (666) 
nan

>  <ATP_Site>  (666) 
nan

>  <Peripheral>  (666) 
nan

>  <Num_H_Atoms_ProtBoundConf>  (666) 
nan

>  <Num_Resolved_Atoms>  (666) 
nan

>  <Num_Not_Resolved_Atoms>  (666) 
nan

$$$$
CHEMBL5076765
     RDKit          3D

  0  0  0  0  0  0  0  0  0  0999 V3000
M  V30 BEGIN CTAB
M  V30 COUNTS 71 75 0 0 0
M  V30 BEGIN ATOM
M  V30 1 C 4.637963 -1.819539 4.969734 0
M  V30 2 O 4.578409 -1.025762 3.785662 0
M  V30 3 C 3.371010 -0.400224 3.508985 0
M  V30 4 C 2.251005 -0.513203 4.316139 0
M  V30 5 C 1.063122 0.116824 4.021130 0
M  V30 6 C 1.024214 0.881102 2.869431 0
M  V30 7 C 2.120597 1.036010 2.010955 0
M  V30 8 C 1.911282 1.877114 0.843634 0
M  V30 9 N 1.807705 3.172183 1.185954 0
M  V30 10 C 1.617516 3.904333 0.057660 0
M  V30 11 S 1.359753 5.557393 -0.765123 0
M  V30 12 C 1.263974 4.817912 -2.509097 0
M  V30 13 C 1.435699 3.448302 -2.247983 0
M  V30 14 N 1.603290 3.055418 -0.989365 0
M  V30 15 C 1.781991 1.811135 -0.523554 0
M  V30 16 C 1.861862 0.482626 -1.109775 0
M  V30 17 C 3.015667 -0.252481 -1.038977 0
M  V30 18 C 3.041315 -1.501924 -1.604150 0
M  V30 19 N 1.930640 -1.930612 -2.194973 0
M  V30 20 C 0.776035 -1.249093 -2.291218 0
M  V30 21 N -0.337638 -1.861897 -2.969880 0
M  V30 22 C -0.160367 -3.201740 -3.473331 0
M  V30 23 C 0.031025 -4.257526 -2.446800 0
M  V30 24 N -1.005198 -4.476994 -1.521392 0
M  V30 25 C -2.266311 -4.854395 -2.030821 0
M  V30 26 C -3.392415 -4.253501 -1.187074 0
M  V30 27 C -3.301977 -2.763522 -1.092048 0
M  V30 28 N -2.289867 -2.427946 -0.098448 0
M  V30 29 C -2.305676 -1.283329 0.768347 0
M  V30 30 O -1.518055 -0.889217 1.645779 0
M  V30 31 O -3.402629 -0.494810 0.572064 0
M  V30 32 C -3.750102 0.683607 1.221611 0
M  V30 33 C -3.924376 0.487971 2.718774 0
M  V30 34 C -2.804849 1.821528 0.973631 0
M  V30 35 C -5.133369 1.128571 0.720933 0
M  V30 36 S -1.016472 -3.605276 -0.079836 0
M  V30 37 O -1.403649 -4.581607 1.028491 0
M  V30 38 O 0.294938 -3.036777 0.337849 0
M  V30 39 N 0.794722 -0.045415 -1.730984 0
M  V30 40 C 3.245796 0.377547 2.385655 0
M  V30 41 H 5.673847 -2.221082 5.037574 0
M  V30 42 H 3.880440 -2.639765 4.826808 0
M  V30 43 H 4.381772 -1.211523 5.858590 0
M  V30 44 H 2.366513 -1.139696 5.212593 0
M  V30 45 H 0.209665 0.010791 4.667008 0
M  V30 46 H 0.075989 1.355677 2.679389 0
M  V30 47 H 1.112574 5.541569 -3.251917 0
M  V30 48 H 1.389565 2.978161 -3.209777 0
M  V30 49 H 3.909053 0.093618 -0.568818 0
M  V30 50 H 3.931980 -2.127152 -1.575907 0
M  V30 51 H -1.159079 -1.238069 -3.014141 0
M  V30 52 H -0.923062 -3.464809 -4.240363 0
M  V30 53 H 0.802338 -3.160074 -4.064383 0
M  V30 54 H 0.200717 -5.218794 -3.007624 0
M  V30 55 H 0.966599 -4.063529 -1.883310 0
M  V30 56 H -2.442890 -4.670203 -3.103524 0
M  V30 57 H -2.377170 -5.967580 -1.873388 0
M  V30 58 H -3.382167 -4.721876 -0.184285 0
M  V30 59 H -4.364580 -4.537229 -1.669540 0
M  V30 60 H -3.054856 -2.368614 -2.089151 0
M  V30 61 H -4.297105 -2.398277 -0.740191 0
M  V30 62 H -4.593819 -0.374346 2.896254 0
M  V30 63 H -2.962049 0.383438 3.233703 0
M  V30 64 H -4.411841 1.440080 3.071456 0
M  V30 65 H -3.390279 2.764662 0.984653 0
M  V30 66 H -2.378492 1.710653 -0.034319 0
M  V30 67 H -2.055017 1.942342 1.781451 0
M  V30 68 H -5.630187 1.795697 1.447435 0
M  V30 69 H -5.006851 1.723346 -0.229535 0
M  V30 70 H -5.738702 0.243425 0.516067 0
M  V30 71 H 4.097789 0.476942 1.759201 0
M  V30 END ATOM
M  V30 BEGIN BOND
M  V30 1 1 1 2
M  V30 2 1 2 3
M  V30 3 2 3 4
M  V30 4 1 4 5
M  V30 5 2 5 6
M  V30 6 1 6 7
M  V30 7 1 7 8
M  V30 8 1 8 9
M  V30 9 2 9 10
M  V30 10 1 10 11
M  V30 11 1 11 12
M  V30 12 2 12 13
M  V30 13 1 13 14
M  V30 14 1 14 15
M  V30 15 1 15 16
M  V30 16 2 16 17
M  V30 17 1 17 18
M  V30 18 2 18 19
M  V30 19 1 19 20
M  V30 20 1 20 21
M  V30 21 1 21 22
M  V30 22 1 22 23
M  V30 23 1 23 24
M  V30 24 1 24 25
M  V30 25 1 25 26
M  V30 26 1 26 27
M  V30 27 1 27 28
M  V30 28 1 28 29
M  V30 29 2 29 30
M  V30 30 1 29 31
M  V30 31 1 31 32
M  V30 32 1 32 33
M  V30 33 1 32 34
M  V30 34 1 32 35
M  V30 35 1 28 36
M  V30 36 2 36 37
M  V30 37 2 36 38
M  V30 38 2 20 39
M  V30 39 2 7 40
M  V30 40 1 40 3
M  V30 41 2 15 8
M  V30 42 1 39 16
M  V30 43 1 14 10
M  V30 44 1 36 24
M  V30 45 1 1 41
M  V30 46 1 1 42
M  V30 47 1 1 43
M  V30 48 1 4 44
M  V30 49 1 5 45
M  V30 50 1 6 46
M  V30 51 1 12 47
M  V30 52 1 13 48
M  V30 53 1 17 49
M  V30 54 1 18 50
M  V30 55 1 21 51
M  V30 56 1 22 52
M  V30 57 1 22 53
M  V30 58 1 23 54
M  V30 59 1 23 55
M  V30 60 1 25 56
M  V30 61 1 25 57
M  V30 62 1 26 58
M  V30 63 1 26 59
M  V30 64 1 27 60
M  V30 65 1 27 61
M  V30 66 1 33 62
M  V30 67 1 33 63
M  V30 68 1 33 64
M  V30 69 1 34 65
M  V30 70 1 34 66
M  V30 71 1 34 67
M  V30 72 1 35 68
M  V30 73 1 35 69
M  V30 74 1 35 70
M  V30 75 1 40 71
M  V30 END BOND
M  V30 END CTAB
M  END
>  <Dataset>  (667) 
ChEMBL_Kinases

>  <Ligand_Instance>  (667) 
nan

>  <PDB_ID>  (667) 
nan

>  <Standardized_SMILES>  (667) 
COc1cccc(-c2nc3sccn3c2-c2ccnc(NCCN3CCCN(C(=O)OC(C)(C)C)S3(=O)=O)n2)c1

>  <Name>  (667) 
nan

>  <Pocket>  (667) 
nan

>  <ATP_Site>  (667) 
nan

>  <Peripheral>  (667) 
nan

>  <Num_H_Atoms_ProtBoundConf>  (667) 
nan

>  <Num_Resolved_Atoms>  (667) 
nan

>  <Num_Not_Resolved_Atoms>  (667) 
nan

$$$$
CHEMBL5076784
     RDKit          3D

  0  0  0  0  0  0  0  0  0  0999 V3000
M  V30 BEGIN CTAB
M  V30 COUNTS 58 62 0 0 0
M  V30 BEGIN ATOM
M  V30 1 C 3.684721 -2.754281 4.313429 0
M  V30 2 N 2.550252 -3.136533 3.506846 0
M  V30 3 C 1.920618 -2.170895 2.801684 0
M  V30 4 N 2.347306 -0.814087 2.847786 0
M  V30 5 C 1.733627 0.280250 2.080180 0
M  V30 6 C 1.899704 -0.004927 0.638597 0
M  V30 7 N 1.381365 0.924837 -0.292607 0
M  V30 8 C 0.189875 1.526472 -0.701605 0
M  V30 9 C -0.595603 0.948997 -1.679014 0
M  V30 10 C -1.774291 1.520835 -2.098276 0
M  V30 11 N -2.193388 2.674019 -1.555683 0
M  V30 12 C -1.487866 3.299182 -0.600734 0
M  V30 13 C -1.912042 4.504268 -0.028962 0
M  V30 14 C -1.178854 5.141484 0.949132 0
M  V30 15 C 0.004667 4.564244 1.366963 0
M  V30 16 Cl 0.953053 5.355113 2.607686 0
M  V30 17 C 0.385944 3.383451 0.782590 0
M  V30 18 C -0.310223 2.708402 -0.196170 0
M  V30 19 C -2.724226 1.031155 -3.132559 0
M  V30 20 C -2.300954 -0.320404 -3.669638 0
M  V30 21 C -1.564633 -1.041024 -2.558983 0
M  V30 22 C -0.232994 -0.325294 -2.351964 0
M  V30 23 N 0.867895 -2.569560 2.062793 0
M  V30 24 C 0.436862 -3.845565 2.003628 0
M  V30 25 C -0.712574 -4.211652 1.189021 0
M  V30 26 C -1.197310 -5.483639 1.064482 0
M  V30 27 C -2.279504 -5.871718 0.309755 0
M  V30 28 N -2.940939 -4.900763 -0.386430 0
M  V30 29 C -2.495018 -3.618202 -0.293571 0
M  V30 30 C -1.406338 -3.263152 0.472580 0
M  V30 31 F -1.026080 -1.966916 0.515466 0
M  V30 32 C 1.098371 -4.806398 2.732547 0
M  V30 33 C 2.176145 -4.419679 3.493675 0
M  V30 34 O 2.819583 -5.247987 4.179486 0
M  V30 35 H 3.439082 -1.990616 5.067768 0
M  V30 36 H 4.426426 -2.303864 3.591031 0
M  V30 37 H 4.190138 -3.638592 4.750247 0
M  V30 38 H 3.169745 -0.619935 3.494316 0
M  V30 39 H 2.315350 1.190644 2.346110 0
M  V30 40 H 0.707605 0.472287 2.405916 0
M  V30 41 H 1.489589 -1.022370 0.374081 0
M  V30 42 H 2.998216 -0.123551 0.398876 0
M  V30 43 H 1.990406 1.435265 -1.002285 0
M  V30 44 H -2.860012 4.872888 -0.431365 0
M  V30 45 H -1.553454 6.073904 1.359050 0
M  V30 46 H 1.317290 2.978451 1.140322 0
M  V30 47 H -2.614561 1.736958 -3.989671 0
M  V30 48 H -3.772765 1.059100 -2.792038 0
M  V30 49 H -1.671499 -0.281128 -4.559026 0
M  V30 50 H -3.236122 -0.856592 -3.912861 0
M  V30 51 H -1.474587 -2.117115 -2.690782 0
M  V30 52 H -2.191878 -0.851623 -1.639052 0
M  V30 53 H 0.365373 -1.010275 -1.736418 0
M  V30 54 H 0.195610 -0.155920 -3.360576 0
M  V30 55 H -0.730213 -6.298589 1.581187 0
M  V30 56 H -2.631571 -6.889730 0.237549 0
M  V30 57 H -3.084889 -2.941629 -0.877572 0
M  V30 58 H 0.844177 -5.845851 2.760330 0
M  V30 END ATOM
M  V30 BEGIN BOND
M  V30 1 1 1 2
M  V30 2 1 2 3
M  V30 3 1 3 4
M  V30 4 1 4 5
M  V30 5 1 5 6
M  V30 6 1 6 7
M  V30 7 1 7 8
M  V30 8 2 8 9
M  V30 9 1 9 10
M  V30 10 2 10 11
M  V30 11 1 11 12
M  V30 12 2 12 13
M  V30 13 1 13 14
M  V30 14 2 14 15
M  V30 15 1 15 16
M  V30 16 1 15 17
M  V30 17 2 17 18
M  V30 18 1 10 19
M  V30 19 1 19 20
M  V30 20 1 20 21
M  V30 21 1 21 22
M  V30 22 2 3 23
M  V30 23 1 23 24
M  V30 24 1 24 25
M  V30 25 2 25 26
M  V30 26 1 26 27
M  V30 27 2 27 28
M  V30 28 1 28 29
M  V30 29 2 29 30
M  V30 30 1 30 31
M  V30 31 2 24 32
M  V30 32 1 32 33
M  V30 33 2 33 34
M  V30 34 1 33 2
M  V30 35 1 18 8
M  V30 36 1 30 25
M  V30 37 1 22 9
M  V30 38 1 18 12
M  V30 39 1 1 35
M  V30 40 1 1 36
M  V30 41 1 1 37
M  V30 42 1 4 38
M  V30 43 1 5 39
M  V30 44 1 5 40
M  V30 45 1 6 41
M  V30 46 1 6 42
M  V30 47 1 7 43
M  V30 48 1 13 44
M  V30 49 1 14 45
M  V30 50 1 17 46
M  V30 51 1 19 47
M  V30 52 1 19 48
M  V30 53 1 20 49
M  V30 54 1 20 50
M  V30 55 1 21 51
M  V30 56 1 21 52
M  V30 57 1 22 53
M  V30 58 1 22 54
M  V30 59 1 26 55
M  V30 60 1 27 56
M  V30 61 1 29 57
M  V30 62 1 32 58
M  V30 END BOND
M  V30 END CTAB
M  END
>  <Dataset>  (668) 
ChEMBL_Kinases

>  <Ligand_Instance>  (668) 
nan

>  <PDB_ID>  (668) 
nan

>  <Standardized_SMILES>  (668) 
Cn1c(NCCNc2c3c(nc4ccc(Cl)cc24)CCCC3)nc(-c2ccncc2F)cc1=O

>  <Name>  (668) 
nan

>  <Pocket>  (668) 
nan

>  <ATP_Site>  (668) 
nan

>  <Peripheral>  (668) 
nan

>  <Num_H_Atoms_ProtBoundConf>  (668) 
nan

>  <Num_Resolved_Atoms>  (668) 
nan

>  <Num_Not_Resolved_Atoms>  (668) 
nan

$$$$
CHEMBL5076884
     RDKit          3D

  0  0  0  0  0  0  0  0  0  0999 V3000
M  V30 BEGIN CTAB
M  V30 COUNTS 53 56 0 0 0
M  V30 BEGIN ATOM
M  V30 1 N 5.264630 -1.813275 0.726543 0
M  V30 2 C 5.980126 -0.701585 0.207811 0
M  V30 3 C 7.091333 -1.035385 -0.533458 0
M  V30 4 C 7.847976 -0.014553 -1.074025 0
M  V30 5 C 7.442371 1.280863 -0.837094 0
M  V30 6 C 6.324310 1.601406 -0.090818 0
M  V30 7 C 5.544220 0.580941 0.465447 0
M  V30 8 N 4.398804 0.873727 1.233113 0
M  V30 9 C 3.044677 0.523133 1.028095 0
M  V30 10 C 2.687656 -0.187829 -0.098954 0
M  V30 11 C 1.349562 -0.514772 -0.265419 0
M  V30 12 C 0.451484 -0.105282 0.714487 0
M  V30 13 C 0.821680 0.605882 1.837892 0
M  V30 14 C 2.154089 0.930186 2.001495 0
M  V30 15 C -0.043783 1.089172 2.936223 0
M  V30 16 C -0.854066 -0.009008 3.548962 0
M  V30 17 C -2.000339 -0.465120 2.703604 0
M  V30 18 C -3.165456 -0.675913 3.414961 0
M  V30 19 C -4.336623 -1.104970 2.781364 0
M  V30 20 C -4.306762 -1.317176 1.411894 0
M  V30 21 C -5.561908 -1.763616 0.817816 0
M  V30 22 O -6.559726 -1.928435 1.532953 0
M  V30 23 N -5.745020 -2.036484 -0.566173 0
M  V30 24 C -7.036430 -2.472526 -1.031027 0
M  V30 25 C -6.976180 -2.696426 -2.533025 0
M  V30 26 O -8.199150 -3.116200 -3.015956 0
M  V30 27 C -3.163638 -1.116441 0.676212 0
M  V30 28 C -2.031135 -0.693438 1.339128 0
M  V30 29 C -0.920546 -0.539146 0.372909 0
M  V30 30 O -1.135049 -0.793330 -0.856624 0
M  V30 31 H 4.393765 -2.376651 0.726269 0
M  V30 32 H 5.287150 -2.635905 1.396518 0
M  V30 33 H 7.400929 -2.050711 -0.713597 0
M  V30 34 H 8.727359 -0.236192 -1.662080 0
M  V30 35 H 8.024693 2.097560 -1.253897 0
M  V30 36 H 6.055426 2.652867 0.060849 0
M  V30 37 H 4.747646 1.430418 2.031386 0
M  V30 38 H 3.368805 -0.507639 -0.859410 0
M  V30 39 H 0.997529 -1.071665 -1.126535 0
M  V30 40 H 2.414206 1.481358 2.880208 0
M  V30 41 H -0.777137 1.802843 2.461055 0
M  V30 42 H 0.530650 1.579925 3.721838 0
M  V30 43 H -1.264277 0.315364 4.517181 0
M  V30 44 H -0.176794 -0.893128 3.683709 0
M  V30 45 H -3.130727 -0.491588 4.499074 0
M  V30 46 H -5.207307 -1.247353 3.407823 0
M  V30 47 H -4.921662 -1.908918 -1.209768 0
M  V30 48 H -7.255031 -3.445857 -0.547439 0
M  V30 49 H -7.829990 -1.719746 -0.829364 0
M  V30 50 H -6.210866 -3.462466 -2.749273 0
M  V30 51 H -6.653036 -1.736015 -3.010991 0
M  V30 52 H -8.141441 -3.687783 -3.815834 0
M  V30 53 H -3.160934 -1.287099 -0.388458 0
M  V30 END ATOM
M  V30 BEGIN BOND
M  V30 1 1 1 2
M  V30 2 2 2 3
M  V30 3 1 3 4
M  V30 4 2 4 5
M  V30 5 1 5 6
M  V30 6 2 6 7
M  V30 7 1 7 8
M  V30 8 1 8 9
M  V30 9 2 9 10
M  V30 10 1 10 11
M  V30 11 2 11 12
M  V30 12 1 12 13
M  V30 13 2 13 14
M  V30 14 1 13 15
M  V30 15 1 15 16
M  V30 16 1 16 17
M  V30 17 2 17 18
M  V30 18 1 18 19
M  V30 19 2 19 20
M  V30 20 1 20 21
M  V30 21 2 21 22
M  V30 22 1 21 23
M  V30 23 1 23 24
M  V30 24 1 24 25
M  V30 25 1 25 26
M  V30 26 1 20 27
M  V30 27 2 27 28
M  V30 28 1 28 29
M  V30 29 2 29 30
M  V30 30 1 7 2
M  V30 31 1 14 9
M  V30 32 1 28 17
M  V30 33 1 29 12
M  V30 34 1 1 31
M  V30 35 1 1 32
M  V30 36 1 3 33
M  V30 37 1 4 34
M  V30 38 1 5 35
M  V30 39 1 6 36
M  V30 40 1 8 37
M  V30 41 1 10 38
M  V30 42 1 11 39
M  V30 43 1 14 40
M  V30 44 1 15 41
M  V30 45 1 15 42
M  V30 46 1 16 43
M  V30 47 1 16 44
M  V30 48 1 18 45
M  V30 49 1 19 46
M  V30 50 1 23 47
M  V30 51 1 24 48
M  V30 52 1 24 49
M  V30 53 1 25 50
M  V30 54 1 25 51
M  V30 55 1 26 52
M  V30 56 1 27 53
M  V30 END BOND
M  V30 END CTAB
M  END
>  <Dataset>  (669) 
ChEMBL_Kinases

>  <Ligand_Instance>  (669) 
nan

>  <PDB_ID>  (669) 
nan

>  <Standardized_SMILES>  (669) 
Nc1ccccc1Nc1ccc2c(c1)CCc1ccc(C(=O)NCCO)cc1C2=O

>  <Name>  (669) 
nan

>  <Pocket>  (669) 
nan

>  <ATP_Site>  (669) 
nan

>  <Peripheral>  (669) 
nan

>  <Num_H_Atoms_ProtBoundConf>  (669) 
nan

>  <Num_Resolved_Atoms>  (669) 
nan

>  <Num_Not_Resolved_Atoms>  (669) 
nan

$$$$
CHEMBL5076997
     RDKit          3D

  0  0  0  0  0  0  0  0  0  0999 V3000
M  V30 BEGIN CTAB
M  V30 COUNTS 47 50 0 0 0
M  V30 BEGIN ATOM
M  V30 1 C 1.218232 0.352028 3.279267 0
M  V30 2 N 0.963403 -0.449556 2.059368 0
M  V30 3 C 1.965491 -0.294006 1.101779 0
M  V30 4 N 2.755859 -1.374477 1.393010 0
M  V30 5 C 3.927115 -1.558127 0.711093 0
M  V30 6 N 4.307781 -0.674277 -0.252310 0
M  V30 7 C 3.547467 0.391383 -0.555725 0
M  V30 8 N 3.631590 1.410287 -1.420245 0
M  V30 9 C 2.541755 2.179792 -1.264512 0
M  V30 10 C 2.142536 3.329907 -1.908784 0
M  V30 11 C 0.952479 3.930676 -1.567076 0
M  V30 12 C 0.123726 3.398733 -0.569936 0
M  V30 13 C 0.575632 2.255881 0.032828 0
M  V30 14 Cl -0.629292 1.779171 1.162039 0
M  V30 15 C 1.736210 1.655620 -0.285384 0
M  V30 16 C 2.382661 0.550222 0.139831 0
M  V30 17 C -0.039927 -1.448717 1.713210 0
M  V30 18 C 0.573601 -2.842876 1.857819 0
M  V30 19 C -0.602560 -3.808328 1.892497 0
M  V30 20 C -1.741103 -3.207754 1.073280 0
M  V30 21 N -2.319553 -2.077129 1.780717 0
M  V30 22 C -2.905367 -1.137729 0.846821 0
M  V30 23 C -4.121127 -1.779272 0.200228 0
M  V30 24 C -5.129554 -2.142746 1.211603 0
M  V30 25 N -5.913196 -2.422792 2.023111 0
M  V30 26 C -1.283364 -1.389028 2.565546 0
M  V30 27 H 1.939492 -0.164210 3.945573 0
M  V30 28 H 1.660118 1.314684 3.014186 0
M  V30 29 H 0.271287 0.527908 3.827500 0
M  V30 30 H 4.672918 -2.328870 0.789946 0
M  V30 31 H 4.447074 1.507260 -2.067972 0
M  V30 32 H 2.805848 3.711863 -2.671755 0
M  V30 33 H 0.753892 4.808781 -2.130644 0
M  V30 34 H -0.757846 4.008955 -0.450161 0
M  V30 35 H -0.319842 -1.315117 0.667522 0
M  V30 36 H 1.150491 -3.026092 0.928946 0
M  V30 37 H 1.250362 -2.931296 2.707365 0
M  V30 38 H -0.944815 -3.874260 2.933418 0
M  V30 39 H -0.327347 -4.782308 1.446961 0
M  V30 40 H -1.449313 -2.972667 0.039053 0
M  V30 41 H -2.530700 -3.984850 1.020268 0
M  V30 42 H -2.234314 -0.801928 0.054204 0
M  V30 43 H -3.277812 -0.279288 1.462260 0
M  V30 44 H -3.845964 -2.641044 -0.430552 0
M  V30 45 H -4.613557 -1.028228 -0.463870 0
M  V30 46 H -1.579747 -0.380554 2.758507 0
M  V30 47 H -1.140635 -1.939898 3.520766 0
M  V30 END ATOM
M  V30 BEGIN BOND
M  V30 1 1 1 2
M  V30 2 1 2 3
M  V30 3 2 3 4
M  V30 4 1 4 5
M  V30 5 2 5 6
M  V30 6 1 6 7
M  V30 7 1 7 8
M  V30 8 1 8 9
M  V30 9 2 9 10
M  V30 10 1 10 11
M  V30 11 2 11 12
M  V30 12 1 12 13
M  V30 13 1 13 14
M  V30 14 2 13 15
M  V30 15 1 15 16
M  V30 16 1 2 17
M  V30 17 1 17 18
M  V30 18 1 18 19
M  V30 19 1 19 20
M  V30 20 1 20 21
M  V30 21 1 21 22
M  V30 22 1 22 23
M  V30 23 1 23 24
M  V30 24 3 24 25
M  V30 25 1 21 26
M  V30 26 1 16 3
M  V30 27 1 26 17
M  V30 28 2 16 7
M  V30 29 1 15 9
M  V30 30 1 1 27
M  V30 31 1 1 28
M  V30 32 1 1 29
M  V30 33 1 5 30
M  V30 34 1 8 31
M  V30 35 1 10 32
M  V30 36 1 11 33
M  V30 37 1 12 34
M  V30 38 1 17 35
M  V30 39 1 18 36
M  V30 40 1 18 37
M  V30 41 1 19 38
M  V30 42 1 19 39
M  V30 43 1 20 40
M  V30 44 1 20 41
M  V30 45 1 22 42
M  V30 46 1 22 43
M  V30 47 1 23 44
M  V30 48 1 23 45
M  V30 49 1 26 46
M  V30 50 1 26 47
M  V30 END BOND
M  V30 END CTAB
M  END
>  <Dataset>  (670) 
ChEMBL_Kinases

>  <Ligand_Instance>  (670) 
nan

>  <PDB_ID>  (670) 
nan

>  <Standardized_SMILES>  (670) 
CN(c1ncnc2[nH]c3cccc(Cl)c3c12)C1CCCN(CCC#N)C1

>  <Name>  (670) 
nan

>  <Pocket>  (670) 
nan

>  <ATP_Site>  (670) 
nan

>  <Peripheral>  (670) 
nan

>  <Num_H_Atoms_ProtBoundConf>  (670) 
nan

>  <Num_Resolved_Atoms>  (670) 
nan

>  <Num_Not_Resolved_Atoms>  (670) 
nan

$$$$
CHEMBL5077010
     RDKit          3D

  0  0  0  0  0  0  0  0  0  0999 V3000
M  V30 BEGIN CTAB
M  V30 COUNTS 52 55 0 0 0
M  V30 BEGIN ATOM
M  V30 1 C 2.558698 0.870156 4.706545 0
M  V30 2 C 3.740795 -0.022191 4.513239 0 CFG=2
M  V30 3 C 4.415342 -0.360571 5.818468 0
M  V30 4 O 3.400233 -0.862153 6.654659 0
M  V30 5 N 4.746906 0.500514 3.613673 0
M  V30 6 C 4.523992 0.826022 2.245539 0
M  V30 7 N 5.466170 1.319787 1.389335 0
M  V30 8 C 5.150171 1.595027 0.110781 0
M  V30 9 C 3.882293 1.397918 -0.396877 0
M  V30 10 Cl 3.430981 1.742901 -2.052005 0
M  V30 11 C 2.934261 0.898933 0.472297 0
M  V30 12 C 1.537780 0.636489 0.074134 0
M  V30 13 C 0.586389 1.336564 -0.652597 0
M  V30 14 C -0.550445 0.553747 -0.681792 0
M  V30 15 N -0.357657 -0.578727 -0.021132 0
M  V30 16 C 0.904538 -0.554492 0.449112 0
M  V30 17 C -1.577456 -1.305886 -0.110340 0
M  V30 18 O -1.694546 -2.435992 0.430427 0
M  V30 19 N -2.554648 -0.594266 -0.852409 0
M  V30 20 C -3.903503 -0.989468 -1.160795 0 CFG=2
M  V30 21 C -4.764047 -1.130720 0.085492 0
M  V30 22 O -4.249731 -2.078272 0.935706 0
M  V30 23 C -3.979718 -2.224533 -1.979389 0
M  V30 24 C -4.823869 -3.298692 -1.783280 0
M  V30 25 C -4.786921 -4.389389 -2.627896 0
M  V30 26 C -3.906258 -4.437295 -3.691165 0
M  V30 27 C -3.064050 -3.367741 -3.888391 0
M  V30 28 Cl -1.978579 -3.519467 -5.267012 0
M  V30 29 C -3.102941 -2.282555 -3.045554 0
M  V30 30 C -1.918435 0.648155 -1.254776 0
M  V30 31 N 3.302863 0.640620 1.740845 0
M  V30 32 H 2.266179 1.336700 3.766303 0
M  V30 33 H 1.700677 0.237515 5.030327 0
M  V30 34 H 2.710731 1.595761 5.531707 0
M  V30 35 H 3.348329 -1.009907 4.129775 0
M  V30 36 H 5.195477 -1.112869 5.667342 0
M  V30 37 H 4.891011 0.534321 6.294462 0
M  V30 38 H 2.645883 -1.228123 6.117127 0
M  V30 39 H 5.735219 0.677702 3.924371 0
M  V30 40 H 5.915176 1.985350 -0.546784 0
M  V30 41 H 0.866737 2.311521 -1.050607 0
M  V30 42 H 1.347238 -1.371412 1.041801 0
M  V30 43 H -4.403224 -0.183073 -1.773070 0
M  V30 44 H -4.805896 -0.158988 0.609569 0
M  V30 45 H -5.799841 -1.322481 -0.260999 0
M  V30 46 H -3.974890 -1.699693 1.804010 0
M  V30 47 H -5.489112 -3.218488 -0.947764 0
M  V30 48 H -5.503276 -5.184837 -2.376165 0
M  V30 49 H -3.983186 -5.340659 -4.265185 0
M  V30 50 H -2.384453 -1.503338 -3.311700 0
M  V30 51 H -2.465210 1.521625 -0.822810 0
M  V30 52 H -1.817834 0.702410 -2.352864 0
M  V30 END ATOM
M  V30 BEGIN BOND
M  V30 1 1 1 2
M  V30 2 1 2 3
M  V30 3 1 3 4
M  V30 4 1 2 5
M  V30 5 1 5 6
M  V30 6 2 6 7
M  V30 7 1 7 8
M  V30 8 2 8 9
M  V30 9 1 9 10
M  V30 10 1 9 11
M  V30 11 1 11 12
M  V30 12 1 12 13
M  V30 13 2 13 14
M  V30 14 1 14 15
M  V30 15 1 15 16
M  V30 16 1 15 17
M  V30 17 2 17 18
M  V30 18 1 17 19
M  V30 19 1 19 20
M  V30 20 1 20 21
M  V30 21 1 21 22
M  V30 22 1 20 23
M  V30 23 2 23 24
M  V30 24 1 24 25
M  V30 25 2 25 26
M  V30 26 1 26 27
M  V30 27 1 27 28
M  V30 28 2 27 29
M  V30 29 1 19 30
M  V30 30 2 11 31
M  V30 31 1 31 6
M  V30 32 2 16 12
M  V30 33 1 29 23
M  V30 34 1 30 14
M  V30 35 1 1 32
M  V30 36 1 1 33
M  V30 37 1 1 34
M  V30 38 1 2 35 CFG=3
M  V30 39 1 3 36
M  V30 40 1 3 37
M  V30 41 1 4 38
M  V30 42 1 5 39
M  V30 43 1 8 40
M  V30 44 1 13 41
M  V30 45 1 16 42
M  V30 46 1 20 43 CFG=3
M  V30 47 1 21 44
M  V30 48 1 21 45
M  V30 49 1 22 46
M  V30 50 1 24 47
M  V30 51 1 25 48
M  V30 52 1 26 49
M  V30 53 1 29 50
M  V30 54 1 30 51
M  V30 55 1 30 52
M  V30 END BOND
M  V30 END CTAB
M  END
>  <Dataset>  (671) 
ChEMBL_Kinases

>  <Ligand_Instance>  (671) 
nan

>  <PDB_ID>  (671) 
nan

>  <Standardized_SMILES>  (671) 
C[C@H](CO)Nc1ncc(Cl)c(-c2cc3n(c2)C(=O)N([C@H](CO)c2cccc(Cl)c2)C3)n1

>  <Name>  (671) 
nan

>  <Pocket>  (671) 
nan

>  <ATP_Site>  (671) 
nan

>  <Peripheral>  (671) 
nan

>  <Num_H_Atoms_ProtBoundConf>  (671) 
nan

>  <Num_Resolved_Atoms>  (671) 
nan

>  <Num_Not_Resolved_Atoms>  (671) 
nan

$$$$
CHEMBL5076549
     RDKit          3D

  0  0  0  0  0  0  0  0  0  0999 V3000
M  V30 BEGIN CTAB
M  V30 COUNTS 48 51 0 0 0
M  V30 BEGIN ATOM
M  V30 1 C 2.309702 -1.104643 2.924348 0
M  V30 2 N 1.064442 -0.840875 2.182110 0
M  V30 3 C 0.319441 0.352817 1.946910 0
M  V30 4 N -0.786132 0.383692 2.707184 0
M  V30 5 C -1.598333 1.451258 2.645730 0
M  V30 6 N -1.309419 2.500304 1.820313 0
M  V30 7 C -0.210142 2.494175 1.048615 0
M  V30 8 N 0.319158 3.332174 0.165613 0
M  V30 9 C 1.455224 2.793537 -0.325672 0
M  V30 10 C 2.351530 3.268621 -1.262393 0
M  V30 11 C 3.452543 2.471497 -1.582559 0
M  V30 12 C 4.362620 2.995801 -2.562302 0
M  V30 13 N 5.109283 3.429417 -3.341052 0
M  V30 14 C 3.645165 1.242751 -0.983568 0
M  V30 15 C 2.750075 0.768488 -0.047459 0
M  V30 16 C 1.671880 1.559632 0.260673 0
M  V30 17 C 0.615457 1.393926 1.119317 0
M  V30 18 C 0.457728 -2.006449 1.546733 0
M  V30 19 C 0.008088 -3.055219 2.489946 0
M  V30 20 C -1.474870 -3.166497 2.671575 0
M  V30 21 C -2.313218 -2.524335 1.629494 0
M  V30 22 N -1.631969 -2.565379 0.371443 0
M  V30 23 C -2.513587 -1.996675 -0.632843 0
M  V30 24 C -3.725325 -2.849581 -0.913407 0
M  V30 25 C -3.329347 -4.171614 -1.396421 0
M  V30 26 N -3.022764 -5.227537 -1.792022 0
M  V30 27 C -0.502563 -1.663519 0.452925 0
M  V30 28 H 2.848374 -0.163980 3.133300 0
M  V30 29 H 2.147131 -1.638499 3.859723 0
M  V30 30 H 2.955107 -1.697003 2.268284 0
M  V30 31 H -2.505917 1.543607 3.230534 0
M  V30 32 H -0.150296 4.239839 -0.043619 0
M  V30 33 H 2.176982 4.235173 -1.717722 0
M  V30 34 H 4.547869 0.708321 -1.318523 0
M  V30 35 H 2.984482 -0.179409 0.344619 0
M  V30 36 H 1.345041 -2.465416 1.000372 0
M  V30 37 H 0.397679 -4.080913 2.232305 0
M  V30 38 H 0.442829 -2.852501 3.488948 0
M  V30 39 H -1.804026 -2.724012 3.658909 0
M  V30 40 H -1.782335 -4.234972 2.763728 0
M  V30 41 H -2.684106 -1.514979 1.897802 0
M  V30 42 H -3.260044 -3.122754 1.487239 0
M  V30 43 H -2.797244 -0.950277 -0.396647 0
M  V30 44 H -1.930534 -1.984203 -1.586985 0
M  V30 45 H -4.232154 -2.364380 -1.799434 0
M  V30 46 H -4.474504 -2.877268 -0.127802 0
M  V30 47 H -0.914834 -0.636598 0.552417 0
M  V30 48 H -0.040142 -1.672756 -0.575955 0
M  V30 END ATOM
M  V30 BEGIN BOND
M  V30 1 1 1 2
M  V30 2 1 2 3
M  V30 3 2 3 4
M  V30 4 1 4 5
M  V30 5 2 5 6
M  V30 6 1 6 7
M  V30 7 1 7 8
M  V30 8 1 8 9
M  V30 9 2 9 10
M  V30 10 1 10 11
M  V30 11 1 11 12
M  V30 12 3 12 13
M  V30 13 2 11 14
M  V30 14 1 14 15
M  V30 15 2 15 16
M  V30 16 1 16 17
M  V30 17 1 2 18
M  V30 18 1 18 19
M  V30 19 1 19 20
M  V30 20 1 20 21
M  V30 21 1 21 22
M  V30 22 1 22 23
M  V30 23 1 23 24
M  V30 24 1 24 25
M  V30 25 3 25 26
M  V30 26 1 22 27
M  V30 27 1 17 3
M  V30 28 1 27 18
M  V30 29 2 17 7
M  V30 30 1 16 9
M  V30 31 1 1 28
M  V30 32 1 1 29
M  V30 33 1 1 30
M  V30 34 1 5 31
M  V30 35 1 8 32
M  V30 36 1 10 33
M  V30 37 1 14 34
M  V30 38 1 15 35
M  V30 39 1 18 36
M  V30 40 1 19 37
M  V30 41 1 19 38
M  V30 42 1 20 39
M  V30 43 1 20 40
M  V30 44 1 21 41
M  V30 45 1 21 42
M  V30 46 1 23 43
M  V30 47 1 23 44
M  V30 48 1 24 45
M  V30 49 1 24 46
M  V30 50 1 27 47
M  V30 51 1 27 48
M  V30 END BOND
M  V30 END CTAB
M  END
>  <Dataset>  (672) 
ChEMBL_Kinases

>  <Ligand_Instance>  (672) 
nan

>  <PDB_ID>  (672) 
nan

>  <Standardized_SMILES>  (672) 
CN(c1ncnc2[nH]c3cc(C#N)ccc3c12)C1CCCN(CCC#N)C1

>  <Name>  (672) 
nan

>  <Pocket>  (672) 
nan

>  <ATP_Site>  (672) 
nan

>  <Peripheral>  (672) 
nan

>  <Num_H_Atoms_ProtBoundConf>  (672) 
nan

>  <Num_Resolved_Atoms>  (672) 
nan

>  <Num_Not_Resolved_Atoms>  (672) 
nan

$$$$
CHEMBL5075431
     RDKit          3D

  0  0  0  0  0  0  0  0  0  0999 V3000
M  V30 BEGIN CTAB
M  V30 COUNTS 68 72 0 0 0
M  V30 BEGIN ATOM
M  V30 1 C 1.059032 -0.036073 5.483646 0
M  V30 2 C 1.641636 -1.285320 4.861641 0
M  V30 3 N 1.509445 -1.373114 3.452994 0
M  V30 4 C 0.207293 -1.545217 2.943873 0
M  V30 5 C -0.062722 -1.140938 1.547017 0
M  V30 6 N 0.772937 -0.093566 1.044235 0
M  V30 7 C 0.810583 0.224944 -0.339900 0
M  V30 8 C 1.425557 1.330200 -0.884223 0
M  V30 9 C 1.397855 1.531400 -2.246871 0
M  V30 10 N 2.055609 2.697853 -2.780271 0
M  V30 11 C 2.694075 3.566342 -1.832719 0
M  V30 12 C 3.997412 3.524387 -1.344668 0
M  V30 13 C 4.046510 4.604647 -0.463283 0
M  V30 14 C 5.274439 4.942463 0.298985 0
M  V30 15 N 2.853571 5.234319 -0.438407 0
M  V30 16 N 2.028409 4.593136 -1.280037 0
M  V30 17 N 0.782772 0.675203 -3.079899 0
M  V30 18 C 0.179371 -0.412434 -2.533952 0
M  V30 19 N -0.505402 -1.392875 -3.311427 0
M  V30 20 C -1.138121 -2.572918 -2.834274 0 CFG=1
M  V30 21 C -0.143105 -3.506246 -2.128233 0
M  V30 22 C -1.097813 -4.531074 -1.550701 0
M  V30 23 N -2.254763 -3.737467 -1.170889 0
M  V30 24 C -3.155308 -4.412026 -0.302234 0
M  V30 25 O -2.546412 -5.509234 -0.203395 0
M  V30 26 C -4.403759 -3.933853 0.277300 0
M  V30 27 C -4.463668 -3.289080 1.497542 0
M  V30 28 C -5.655181 -2.843272 2.036326 0
M  V30 29 C -6.822611 -3.063430 1.304582 0
M  V30 30 C -6.727053 -3.715862 0.078975 0
M  V30 31 Cl -8.204013 -3.983600 -0.827237 0
M  V30 32 C -5.542200 -4.164818 -0.467608 0
M  V30 33 F -5.560599 -4.788369 -1.668567 0
M  V30 34 C -2.194254 -2.409903 -1.800623 0
M  V30 35 N 0.203894 -0.613581 -1.198203 0
M  V30 36 C 1.544458 0.563882 2.076506 0
M  V30 37 C 2.394774 -0.553853 2.693807 0
M  V30 38 H 0.145408 0.328970 5.017044 0
M  V30 39 H 0.847215 -0.210749 6.576637 0
M  V30 40 H 1.802870 0.787270 5.481576 0
M  V30 41 H 2.689493 -1.404824 5.175394 0
M  V30 42 H 1.034901 -2.137933 5.290441 0
M  V30 43 H -0.078689 -2.623666 3.130121 0
M  V30 44 H -0.510495 -0.988096 3.615669 0
M  V30 45 H -1.122032 -0.763467 1.413151 0
M  V30 46 H -0.031395 -2.040534 0.895497 0
M  V30 47 H 1.911013 2.000788 -0.188854 0
M  V30 48 H 2.054543 2.880881 -3.808297 0
M  V30 49 H 4.744469 2.794088 -1.628524 0
M  V30 50 H 5.265865 4.473121 1.315197 0
M  V30 51 H 6.178328 4.604453 -0.247008 0
M  V30 52 H 5.277777 6.042771 0.447182 0
M  V30 53 H 2.615994 6.075610 0.136849 0
M  V30 54 H -0.525236 -1.186845 -4.354984 0
M  V30 55 H -1.591300 -3.137525 -3.678194 0
M  V30 56 H 0.310132 -2.989789 -1.270749 0
M  V30 57 H 0.574019 -3.954195 -2.826952 0
M  V30 58 H -1.361622 -5.224945 -2.387619 0
M  V30 59 H -0.643520 -5.083707 -0.701418 0
M  V30 60 H -3.531852 -3.141917 2.026169 0
M  V30 61 H -5.656236 -2.344606 2.990885 0
M  V30 62 H -7.735172 -2.717255 1.726358 0
M  V30 63 H -3.177717 -2.120291 -2.234929 0
M  V30 64 H -1.867658 -1.714976 -1.010595 0
M  V30 65 H 2.278036 1.288844 1.683987 0
M  V30 66 H 0.920161 1.076793 2.830191 0
M  V30 67 H 3.183305 -0.163682 3.359392 0
M  V30 68 H 2.779521 -1.166110 1.851345 0
M  V30 END ATOM
M  V30 BEGIN BOND
M  V30 1 1 1 2
M  V30 2 1 2 3
M  V30 3 1 3 4
M  V30 4 1 4 5
M  V30 5 1 5 6
M  V30 6 1 6 7
M  V30 7 2 7 8
M  V30 8 1 8 9
M  V30 9 1 9 10
M  V30 10 1 10 11
M  V30 11 1 11 12
M  V30 12 2 12 13
M  V30 13 1 13 14
M  V30 14 1 13 15
M  V30 15 1 15 16
M  V30 16 2 9 17
M  V30 17 1 17 18
M  V30 18 1 18 19
M  V30 19 1 19 20
M  V30 20 1 20 21
M  V30 21 1 21 22
M  V30 22 1 22 23
M  V30 23 1 23 24
M  V30 24 2 24 25
M  V30 25 1 24 26
M  V30 26 2 26 27
M  V30 27 1 27 28
M  V30 28 2 28 29
M  V30 29 1 29 30
M  V30 30 1 30 31
M  V30 31 2 30 32
M  V30 32 1 32 33
M  V30 33 1 23 34
M  V30 34 2 18 35
M  V30 35 1 6 36
M  V30 36 1 36 37
M  V30 37 1 37 3
M  V30 38 1 35 7
M  V30 39 2 16 11
M  V30 40 1 34 20
M  V30 41 1 32 26
M  V30 42 1 1 38
M  V30 43 1 1 39
M  V30 44 1 1 40
M  V30 45 1 2 41
M  V30 46 1 2 42
M  V30 47 1 4 43
M  V30 48 1 4 44
M  V30 49 1 5 45
M  V30 50 1 5 46
M  V30 51 1 8 47
M  V30 52 1 10 48
M  V30 53 1 12 49
M  V30 54 1 14 50
M  V30 55 1 14 51
M  V30 56 1 14 52
M  V30 57 1 15 53
M  V30 58 1 19 54
M  V30 59 1 20 55 CFG=3
M  V30 60 1 21 56
M  V30 61 1 21 57
M  V30 62 1 22 58
M  V30 63 1 22 59
M  V30 64 1 27 60
M  V30 65 1 28 61
M  V30 66 1 29 62
M  V30 67 1 34 63
M  V30 68 1 34 64
M  V30 69 1 36 65
M  V30 70 1 36 66
M  V30 71 1 37 67
M  V30 72 1 37 68
M  V30 END BOND
M  V30 END CTAB
M  END
>  <Dataset>  (673) 
ChEMBL_Kinases

>  <Ligand_Instance>  (673) 
nan

>  <PDB_ID>  (673) 
nan

>  <Standardized_SMILES>  (673) 
CCN1CCN(c2cc(Nc3cc(C)[nH]n3)nc(N[C@H]3CCN(C(=O)c4cccc(Cl)c4F)C3)n2)CC1

>  <Name>  (673) 
nan

>  <Pocket>  (673) 
nan

>  <ATP_Site>  (673) 
nan

>  <Peripheral>  (673) 
nan

>  <Num_H_Atoms_ProtBoundConf>  (673) 
nan

>  <Num_Resolved_Atoms>  (673) 
nan

>  <Num_Not_Resolved_Atoms>  (673) 
nan

$$$$
CHEMBL5075462
     RDKit          3D

  0  0  0  0  0  0  0  0  0  0999 V3000
M  V30 BEGIN CTAB
M  V30 COUNTS 95 100 0 0 0
M  V30 BEGIN ATOM
M  V30 1 N -4.336533 -3.466025 -2.594913 0
M  V30 2 C -5.259100 -2.436918 -2.968240 0
M  V30 3 C -4.940537 -1.206448 -3.511475 0
M  V30 4 C -3.596104 -0.737493 -3.806838 0
M  V30 5 O -2.660247 -1.549752 -3.541415 0
M  V30 6 N -3.252925 0.525305 -4.355278 0
M  V30 7 C -1.936582 1.023678 -4.663416 0
M  V30 8 C -1.188109 1.460029 -3.461245 0
M  V30 9 C -0.395331 0.627086 -2.701009 0
M  V30 10 C 0.317600 1.005364 -1.584884 0
M  V30 11 C 0.256802 2.319461 -1.165059 0
M  V30 12 C 0.924986 2.912381 -0.015419 0
M  V30 13 O 1.005880 4.127838 0.323393 0
M  V30 14 N 1.606360 2.102895 0.911587 0
M  V30 15 C 2.384743 2.158288 2.128700 0 CFG=1
M  V30 16 C 1.565433 1.518598 3.226433 0
M  V30 17 C 2.245685 1.499395 4.547852 0
M  V30 18 C 1.405621 0.879282 5.644302 0
M  V30 19 C 0.110270 1.644468 5.839900 0
M  V30 20 C -0.650345 0.885826 6.923112 0
M  V30 21 C -1.229421 -0.346689 6.225833 0
M  V30 22 C -0.343562 -0.788064 5.092112 0
M  V30 23 C 1.132031 -0.575774 5.400691 0
M  V30 24 C 3.676414 1.487460 2.031385 0
M  V30 25 O 4.690899 1.234546 2.764555 0
M  V30 26 N 4.026272 0.886260 0.765167 0
M  V30 27 C 5.199122 0.145322 0.308782 0
M  V30 28 C 5.912075 0.952445 -0.737087 0
M  V30 29 C 5.136812 1.168440 -1.993819 0
M  V30 30 C 4.617085 -0.096627 -2.600715 0
M  V30 31 N 4.355477 -1.140849 -1.603887 0
M  V30 32 C 3.579203 -2.261092 -2.042433 0
M  V30 33 O 3.261503 -3.237735 -1.281149 0
M  V30 34 C 3.040935 -2.447680 -3.418715 0
M  V30 35 C 1.627179 -2.871748 -3.604270 0
M  V30 36 C 2.811146 -3.787615 -3.954880 0
M  V30 37 C 4.773350 -1.211418 -0.209861 0
M  V30 38 C -0.515206 3.213996 -1.873714 0
M  V30 39 C -1.201141 2.754587 -2.982982 0
M  V30 40 C -6.112347 -0.499457 -3.731081 0
M  V30 41 N -7.097792 -1.314591 -3.318032 0
M  V30 42 N -6.619854 -2.459588 -2.865591 0
M  V30 43 C -7.251132 -3.626363 -2.324995 0
M  V30 44 C -7.708548 -4.744443 -3.013516 0
M  V30 45 C -8.291439 -5.784784 -2.313818 0
M  V30 46 C -8.438761 -5.756559 -0.944225 0
M  V30 47 C -7.978393 -4.637479 -0.279490 0
M  V30 48 C -7.385712 -3.565765 -0.931422 0
M  V30 49 H -4.078241 -3.287223 -1.578600 0
M  V30 50 H -3.917052 -4.280028 -3.103144 0
M  V30 51 H -4.142487 1.088286 -4.520273 0
M  V30 52 H -2.119297 1.958677 -5.280864 0
M  V30 53 H -1.307927 0.317907 -5.251044 0
M  V30 54 H -0.277207 -0.409750 -2.944669 0
M  V30 55 H 0.933915 0.342065 -1.001871 0
M  V30 56 H 1.600292 1.048285 0.749057 0
M  V30 57 H 2.573297 3.217584 2.467287 0
M  V30 58 H 0.595825 2.067968 3.229560 0
M  V30 59 H 1.271305 0.471593 2.922706 0
M  V30 60 H 3.155479 0.842590 4.435237 0
M  V30 61 H 2.604048 2.492473 4.859467 0
M  V30 62 H 1.978965 0.978008 6.589262 0
M  V30 63 H -0.488430 1.756330 4.926360 0
M  V30 64 H 0.380236 2.641815 6.230187 0
M  V30 65 H -1.434303 1.511359 7.387560 0
M  V30 66 H 0.080644 0.520001 7.657545 0
M  V30 67 H -1.391145 -1.189946 6.923207 0
M  V30 68 H -2.234390 -0.065801 5.832849 0
M  V30 69 H -0.509845 -1.873606 4.964909 0
M  V30 70 H -0.680725 -0.271552 4.193666 0
M  V30 71 H 1.320471 -1.204429 6.308163 0
M  V30 72 H 1.716532 -1.008229 4.570388 0
M  V30 73 H 3.423722 0.899028 -0.115282 0
M  V30 74 H 5.878352 0.046587 1.179229 0
M  V30 75 H 6.897576 0.515224 -1.013200 0
M  V30 76 H 6.114463 1.944254 -0.287120 0
M  V30 77 H 4.297490 1.882131 -1.873394 0
M  V30 78 H 5.836812 1.682976 -2.708951 0
M  V30 79 H 3.682388 0.124911 -3.176338 0
M  V30 80 H 5.354026 -0.491929 -3.313337 0
M  V30 81 H 3.335875 -1.618144 -4.120770 0
M  V30 82 H 1.048433 -2.476833 -4.455326 0
M  V30 83 H 0.993760 -3.214175 -2.754318 0
M  V30 84 H 3.027634 -3.939184 -5.041628 0
M  V30 85 H 2.917668 -4.697154 -3.344700 0
M  V30 86 H 5.606643 -1.925669 -0.093204 0
M  V30 87 H 3.900468 -1.554942 0.413822 0
M  V30 88 H -0.623421 4.266668 -1.619768 0
M  V30 89 H -1.815522 3.478433 -3.543167 0
M  V30 90 H -6.189324 0.483033 -4.142798 0
M  V30 91 H -7.557582 -4.693336 -4.082142 0
M  V30 92 H -8.633837 -6.639212 -2.903616 0
M  V30 93 H -8.896603 -6.584536 -0.437357 0
M  V30 94 H -8.078671 -4.582739 0.795367 0
M  V30 95 H -7.048610 -2.719748 -0.332954 0
M  V30 END ATOM
M  V30 BEGIN BOND
M  V30 1 1 1 2
M  V30 2 2 2 3
M  V30 3 1 3 4
M  V30 4 2 4 5
M  V30 5 1 4 6
M  V30 6 1 6 7
M  V30 7 1 7 8
M  V30 8 2 8 9
M  V30 9 1 9 10
M  V30 10 2 10 11
M  V30 11 1 11 12
M  V30 12 2 12 13
M  V30 13 1 12 14
M  V30 14 1 14 15
M  V30 15 1 15 16
M  V30 16 1 16 17
M  V30 17 1 17 18
M  V30 18 1 18 19
M  V30 19 1 19 20
M  V30 20 1 20 21
M  V30 21 1 21 22
M  V30 22 1 22 23
M  V30 23 1 15 24
M  V30 24 2 24 25
M  V30 25 1 24 26
M  V30 26 1 26 27
M  V30 27 1 27 28
M  V30 28 1 28 29
M  V30 29 1 29 30
M  V30 30 1 30 31
M  V30 31 1 31 32
M  V30 32 2 32 33
M  V30 33 1 32 34
M  V30 34 1 34 35
M  V30 35 1 35 36
M  V30 36 1 31 37
M  V30 37 1 11 38
M  V30 38 2 38 39
M  V30 39 1 3 40
M  V30 40 2 40 41
M  V30 41 1 41 42
M  V30 42 1 42 43
M  V30 43 2 43 44
M  V30 44 1 44 45
M  V30 45 2 45 46
M  V30 46 1 46 47
M  V30 47 2 47 48
M  V30 48 1 42 2
M  V30 49 1 48 43
M  V30 50 1 39 8
M  V30 51 1 23 18
M  V30 52 1 37 27
M  V30 53 1 36 34
M  V30 54 1 1 49
M  V30 55 1 1 50
M  V30 56 1 6 51
M  V30 57 1 7 52
M  V30 58 1 7 53
M  V30 59 1 9 54
M  V30 60 1 10 55
M  V30 61 1 14 56
M  V30 62 1 15 57 CFG=1
M  V30 63 1 16 58
M  V30 64 1 16 59
M  V30 65 1 17 60
M  V30 66 1 17 61
M  V30 67 1 18 62
M  V30 68 1 19 63
M  V30 69 1 19 64
M  V30 70 1 20 65
M  V30 71 1 20 66
M  V30 72 1 21 67
M  V30 73 1 21 68
M  V30 74 1 22 69
M  V30 75 1 22 70
M  V30 76 1 23 71
M  V30 77 1 23 72
M  V30 78 1 26 73
M  V30 79 1 27 74
M  V30 80 1 28 75
M  V30 81 1 28 76
M  V30 82 1 29 77
M  V30 83 1 29 78
M  V30 84 1 30 79
M  V30 85 1 30 80
M  V30 86 1 34 81
M  V30 87 1 35 82
M  V30 88 1 35 83
M  V30 89 1 36 84
M  V30 90 1 36 85
M  V30 91 1 37 86
M  V30 92 1 37 87
M  V30 93 1 38 88
M  V30 94 1 39 89
M  V30 95 1 40 90
M  V30 96 1 44 91
M  V30 97 1 45 92
M  V30 98 1 46 93
M  V30 99 1 47 94
M  V30 100 1 48 95
M  V30 END BOND
M  V30 END CTAB
M  END
>  <Dataset>  (674) 
ChEMBL_Kinases

>  <Ligand_Instance>  (674) 
nan

>  <PDB_ID>  (674) 
nan

>  <Standardized_SMILES>  (674) 
Nc1c(C(=O)NCc2ccc(C(=O)N[C@@H](CCC3CCCCC3)C(=O)NC3CCCN(C(=O)C4CC4)C3)cc2)cnn1-c1ccccc1

>  <Name>  (674) 
nan

>  <Pocket>  (674) 
nan

>  <ATP_Site>  (674) 
nan

>  <Peripheral>  (674) 
nan

>  <Num_H_Atoms_ProtBoundConf>  (674) 
nan

>  <Num_Resolved_Atoms>  (674) 
nan

>  <Num_Not_Resolved_Atoms>  (674) 
nan

$$$$
CHEMBL5075490
     RDKit          3D

  0  0  0  0  0  0  0  0  0  0999 V3000
M  V30 BEGIN CTAB
M  V30 COUNTS 31 33 0 0 0
M  V30 BEGIN ATOM
M  V30 1 C 0.073493 -1.204455 3.746803 0
M  V30 2 O 0.106359 -0.843366 2.383926 0
M  V30 3 C 0.431256 -1.773893 1.408133 0
M  V30 4 N 0.717503 -3.040911 1.778232 0
M  V30 5 C 1.028856 -3.928286 0.816352 0
M  V30 6 C 1.344396 -5.334539 1.252224 0
M  V30 7 N 1.073372 -3.635568 -0.488598 0
M  V30 8 C 0.797411 -2.383535 -0.929587 0
M  V30 9 N 0.730915 -1.717083 -2.090625 0
M  V30 10 C 0.384092 -0.437621 -1.845570 0
M  V30 11 C 0.215977 -0.247388 -0.490553 0
M  V30 12 C -0.144374 1.081458 -0.011568 0
M  V30 13 C 0.457779 1.830194 0.977607 0
M  V30 14 C -0.016739 3.076840 1.324301 0
M  V30 15 C -1.113885 3.628017 0.695880 0
M  V30 16 F -1.555569 4.859963 1.062481 0
M  V30 17 C -1.760141 2.928866 -0.302329 0
M  V30 18 C -1.253351 1.685643 -0.618204 0
M  V30 19 C 0.480243 -1.482795 0.062978 0
M  V30 20 H -0.915741 -1.021947 4.206529 0
M  V30 21 H 0.870297 -0.592565 4.254334 0
M  V30 22 H 0.336256 -2.285108 3.872632 0
M  V30 23 H 1.334665 -6.033422 0.411566 0
M  V30 24 H 2.291290 -5.342267 1.831464 0
M  V30 25 H 0.555776 -5.669868 1.958111 0
M  V30 26 H 0.948822 -2.272908 -2.956106 0
M  V30 27 H 0.299143 0.199905 -2.717435 0
M  V30 28 H 1.308458 1.387133 1.443393 0
M  V30 29 H 0.534009 3.581933 2.119314 0
M  V30 30 H -2.623573 3.315280 -0.826172 0
M  V30 31 H -1.782361 1.147984 -1.414050 0
M  V30 END ATOM
M  V30 BEGIN BOND
M  V30 1 1 1 2
M  V30 2 1 2 3
M  V30 3 2 3 4
M  V30 4 1 4 5
M  V30 5 1 5 6
M  V30 6 2 5 7
M  V30 7 1 7 8
M  V30 8 1 8 9
M  V30 9 1 9 10
M  V30 10 2 10 11
M  V30 11 1 11 12
M  V30 12 2 12 13
M  V30 13 1 13 14
M  V30 14 2 14 15
M  V30 15 1 15 16
M  V30 16 1 15 17
M  V30 17 2 17 18
M  V30 18 1 11 19
M  V30 19 1 19 3
M  V30 20 2 19 8
M  V30 21 1 18 12
M  V30 22 1 1 20
M  V30 23 1 1 21
M  V30 24 1 1 22
M  V30 25 1 6 23
M  V30 26 1 6 24
M  V30 27 1 6 25
M  V30 28 1 9 26
M  V30 29 1 10 27
M  V30 30 1 13 28
M  V30 31 1 14 29
M  V30 32 1 17 30
M  V30 33 1 18 31
M  V30 END BOND
M  V30 END CTAB
M  END
>  <Dataset>  (675) 
ChEMBL_Kinases

>  <Ligand_Instance>  (675) 
nan

>  <PDB_ID>  (675) 
nan

>  <Standardized_SMILES>  (675) 
COc1nc(C)nc2[nH]cc(-c3ccc(F)cc3)c12

>  <Name>  (675) 
nan

>  <Pocket>  (675) 
nan

>  <ATP_Site>  (675) 
nan

>  <Peripheral>  (675) 
nan

>  <Num_H_Atoms_ProtBoundConf>  (675) 
nan

>  <Num_Resolved_Atoms>  (675) 
nan

>  <Num_Not_Resolved_Atoms>  (675) 
nan

$$$$
CHEMBL5075551
     RDKit          3D

  0  0  0  0  0  0  0  0  0  0999 V3000
M  V30 BEGIN CTAB
M  V30 COUNTS 57 60 0 0 0
M  V30 BEGIN ATOM
M  V30 1 C 4.043565 1.031278 4.281683 0
M  V30 2 C 2.879117 0.190571 4.773561 0
M  V30 3 O 3.119998 -1.188592 4.578946 0
M  V30 4 C 3.343833 -1.765872 3.360564 0
M  V30 5 C 3.366775 -1.106262 2.155126 0
M  V30 6 C 3.592164 -1.682677 0.940222 0
M  V30 7 C 3.621690 -1.003850 -0.272752 0
M  V30 8 N 3.373460 0.356391 -0.136451 0
M  V30 9 C 3.125407 1.718977 -0.004431 0
M  V30 10 C 2.038450 2.351906 -0.817457 0
M  V30 11 C 0.696036 1.833882 -0.638410 0
M  V30 12 C -0.211941 2.273267 0.285684 0
M  V30 13 C -1.471866 1.747609 0.393676 0
M  V30 14 C -1.937738 0.729074 -0.418807 0
M  V30 15 N -3.249775 0.244165 -0.247664 0
M  V30 16 C -3.939226 -0.753206 -0.951856 0
M  V30 17 O -3.338207 -1.323901 -1.872820 0
M  V30 18 N -5.251127 -1.145218 -0.688761 0
M  V30 19 C -6.036955 -2.118847 -1.327456 0
M  V30 20 C -5.703502 -2.939342 -2.367983 0
M  V30 21 C -6.495799 -3.875540 -2.978392 0
M  V30 22 C -7.788648 -4.013547 -2.489222 0
M  V30 23 C -8.191501 -3.220031 -1.442439 0
M  V30 24 C -7.350258 -2.293681 -0.867583 0
M  V30 25 C -1.013078 0.299513 -1.341120 0
M  V30 26 C 0.260099 0.813333 -1.467910 0
M  V30 27 N 3.873824 -1.812490 -1.311762 0
M  V30 28 C 4.083110 -3.104668 -1.302791 0
M  V30 29 N 4.040859 -3.691502 -0.109648 0
M  V30 30 C 3.802827 -3.035697 1.027823 0
M  V30 31 C 3.801022 -3.786921 2.168827 0
M  V30 32 C 3.567748 -3.150075 3.368269 0
M  V30 33 F 3.554832 -3.841519 4.529556 0
M  V30 34 H 3.726109 1.830509 3.602592 0
M  V30 35 H 4.479602 1.523171 5.188787 0
M  V30 36 H 4.865493 0.387647 3.894668 0
M  V30 37 H 2.627364 0.446566 5.798506 0
M  V30 38 H 2.010757 0.438339 4.129543 0
M  V30 39 H 3.184480 -0.071573 2.256576 0
M  V30 40 H 3.468719 0.564765 -1.187063 0
M  V30 41 H 4.064576 2.325168 -0.179587 0
M  V30 42 H 2.957693 1.911909 1.099534 0
M  V30 43 H 2.327074 2.225700 -1.892248 0
M  V30 44 H 2.006273 3.448721 -0.659320 0
M  V30 45 H 0.111733 3.071151 0.943635 0
M  V30 46 H -2.104091 2.171520 1.159990 0
M  V30 47 H -3.810858 0.693168 0.528109 0
M  V30 48 H -5.690202 -0.612704 0.113871 0
M  V30 49 H -4.717863 -2.864611 -2.771346 0
M  V30 50 H -6.153092 -4.484292 -3.796574 0
M  V30 51 H -8.459542 -4.740363 -2.935881 0
M  V30 52 H -9.204665 -3.332337 -1.062229 0
M  V30 53 H -7.753153 -1.712601 -0.048328 0
M  V30 54 H -1.263748 -0.481947 -2.019330 0
M  V30 55 H 0.947065 0.423109 -2.226567 0
M  V30 56 H 4.267946 -3.560754 -2.262914 0
M  V30 57 H 3.969152 -4.850543 2.208446 0
M  V30 END ATOM
M  V30 BEGIN BOND
M  V30 1 1 1 2
M  V30 2 1 2 3
M  V30 3 1 3 4
M  V30 4 2 4 5
M  V30 5 1 5 6
M  V30 6 2 6 7
M  V30 7 1 7 8
M  V30 8 1 8 9
M  V30 9 1 9 10
M  V30 10 1 10 11
M  V30 11 2 11 12
M  V30 12 1 12 13
M  V30 13 2 13 14
M  V30 14 1 14 15
M  V30 15 1 15 16
M  V30 16 2 16 17
M  V30 17 1 16 18
M  V30 18 1 18 19
M  V30 19 2 19 20
M  V30 20 1 20 21
M  V30 21 2 21 22
M  V30 22 1 22 23
M  V30 23 2 23 24
M  V30 24 1 14 25
M  V30 25 2 25 26
M  V30 26 1 7 27
M  V30 27 2 27 28
M  V30 28 1 28 29
M  V30 29 2 29 30
M  V30 30 1 30 31
M  V30 31 2 31 32
M  V30 32 1 32 33
M  V30 33 1 32 4
M  V30 34 1 30 6
M  V30 35 1 26 11
M  V30 36 1 24 19
M  V30 37 1 1 34
M  V30 38 1 1 35
M  V30 39 1 1 36
M  V30 40 1 2 37
M  V30 41 1 2 38
M  V30 42 1 5 39
M  V30 43 1 8 40
M  V30 44 1 9 41
M  V30 45 1 9 42
M  V30 46 1 10 43
M  V30 47 1 10 44
M  V30 48 1 12 45
M  V30 49 1 13 46
M  V30 50 1 15 47
M  V30 51 1 18 48
M  V30 52 1 20 49
M  V30 53 1 21 50
M  V30 54 1 22 51
M  V30 55 1 23 52
M  V30 56 1 24 53
M  V30 57 1 25 54
M  V30 58 1 26 55
M  V30 59 1 28 56
M  V30 60 1 31 57
M  V30 END BOND
M  V30 END CTAB
M  END
>  <Dataset>  (676) 
ChEMBL_Kinases

>  <Ligand_Instance>  (676) 
nan

>  <PDB_ID>  (676) 
nan

>  <Standardized_SMILES>  (676) 
CCOc1cc2c(NCCc3ccc(NC(=O)Nc4ccccc4)cc3)ncnc2cc1F

>  <Name>  (676) 
nan

>  <Pocket>  (676) 
nan

>  <ATP_Site>  (676) 
nan

>  <Peripheral>  (676) 
nan

>  <Num_H_Atoms_ProtBoundConf>  (676) 
nan

>  <Num_Resolved_Atoms>  (676) 
nan

>  <Num_Not_Resolved_Atoms>  (676) 
nan

$$$$
CHEMBL5075553
     RDKit          3D

  0  0  0  0  0  0  0  0  0  0999 V3000
M  V30 BEGIN CTAB
M  V30 COUNTS 61 65 0 0 0
M  V30 BEGIN ATOM
M  V30 1 C -1.046664 -3.522158 4.517455 0
M  V30 2 C -0.235808 -2.301413 4.270489 0
M  V30 3 C -0.037966 -1.345804 5.245920 0
M  V30 4 C 0.712664 -0.213026 5.019326 0
M  V30 5 C 1.255580 -0.091620 3.755906 0
M  V30 6 N 2.056805 1.068878 3.437666 0
M  V30 7 C 1.170904 2.064410 2.927490 0
M  V30 8 O -0.031123 1.646570 2.904349 0
M  V30 9 C 1.606195 3.405979 2.485589 0
M  V30 10 C 2.887344 3.923904 2.482783 0
M  V30 11 N 3.090063 5.163873 2.044291 0
M  V30 12 C 2.099368 5.952901 1.596488 0
M  V30 13 C 0.814207 5.490486 1.577696 0
M  V30 14 C -0.307745 6.352171 1.082590 0
M  V30 15 F -1.482037 5.640900 1.083043 0
M  V30 16 F -0.429298 7.414202 1.962576 0
M  V30 17 F -0.038790 6.861616 -0.171905 0
M  V30 18 C 0.576689 4.211416 2.025733 0
M  V30 19 C 1.077154 -1.016877 2.776297 0
M  V30 20 C 0.313597 -2.165842 3.012074 0
M  V30 21 C 0.174704 -3.107537 1.903338 0
M  V30 22 C 0.292981 -4.470334 1.919997 0
M  V30 23 C 0.126871 -5.206463 0.764648 0
M  V30 24 C -0.161868 -4.570081 -0.425341 0
M  V30 25 C -0.289876 -3.198074 -0.487441 0
M  V30 26 C -0.118305 -2.504625 0.677378 0
M  V30 27 O -0.574395 -2.406975 -1.589987 0
M  V30 28 C -0.795633 -2.709974 -2.934097 0
M  V30 29 C -2.267114 -2.968347 -3.132594 0
M  V30 30 C -2.757181 -2.493676 -4.479142 0
M  V30 31 O -2.623675 -1.125103 -4.661082 0
M  V30 32 C -1.688001 -0.535338 -3.824851 0
M  V30 33 C -0.451602 -1.431646 -3.710397 0
M  V30 34 C 0.063538 -3.789272 -3.501412 0
M  V30 35 C -0.213224 -5.126672 -2.927372 0
M  V30 36 O -0.411346 -6.160834 -3.644443 0
M  V30 37 N -0.303468 -5.480620 -1.531324 0
M  V30 38 H -1.889107 -3.208893 5.200330 0
M  V30 39 H -0.441743 -4.321719 5.008968 0
M  V30 40 H -1.546023 -3.913503 3.621591 0
M  V30 41 H -0.481301 -1.477700 6.225976 0
M  V30 42 H 0.896105 0.562906 5.750277 0
M  V30 43 H 3.089597 1.315350 3.500143 0
M  V30 44 H 3.630571 3.240785 2.853217 0
M  V30 45 H 2.265742 6.964556 1.238882 0
M  V30 46 H -0.458053 3.880091 1.995079 0
M  V30 47 H 1.524892 -0.873100 1.803212 0
M  V30 48 H 0.519113 -4.886137 2.885049 0
M  V30 49 H 0.225133 -6.277562 0.804459 0
M  V30 50 H -0.230923 -1.414653 0.572709 0
M  V30 51 H -2.827003 -2.420131 -2.345989 0
M  V30 52 H -2.537919 -4.029366 -3.041520 0
M  V30 53 H -3.838461 -2.736548 -4.535923 0
M  V30 54 H -2.257214 -3.086919 -5.263574 0
M  V30 55 H -2.100800 -0.255256 -2.849424 0
M  V30 56 H -1.326523 0.379744 -4.346882 0
M  V30 57 H 0.352505 -0.865414 -3.207873 0
M  V30 58 H -0.133036 -1.651953 -4.742215 0
M  V30 59 H 1.114413 -3.531916 -3.345899 0
M  V30 60 H -0.145778 -3.844293 -4.583117 0
M  V30 61 H -0.485544 -6.463980 -1.213777 0
M  V30 END ATOM
M  V30 BEGIN BOND
M  V30 1 1 1 2
M  V30 2 2 2 3
M  V30 3 1 3 4
M  V30 4 2 4 5
M  V30 5 1 5 6
M  V30 6 1 6 7
M  V30 7 2 7 8
M  V30 8 1 7 9
M  V30 9 2 9 10
M  V30 10 1 10 11
M  V30 11 2 11 12
M  V30 12 1 12 13
M  V30 13 1 13 14
M  V30 14 1 14 15
M  V30 15 1 14 16
M  V30 16 1 14 17
M  V30 17 2 13 18
M  V30 18 1 5 19
M  V30 19 2 19 20
M  V30 20 1 20 21
M  V30 21 2 21 22
M  V30 22 1 22 23
M  V30 23 2 23 24
M  V30 24 1 24 25
M  V30 25 2 25 26
M  V30 26 1 25 27
M  V30 27 1 27 28
M  V30 28 1 28 29
M  V30 29 1 29 30
M  V30 30 1 30 31
M  V30 31 1 31 32
M  V30 32 1 32 33
M  V30 33 1 28 34
M  V30 34 1 34 35
M  V30 35 2 35 36
M  V30 36 1 35 37
M  V30 37 1 20 2
M  V30 38 1 26 21
M  V30 39 1 33 28
M  V30 40 1 18 9
M  V30 41 1 37 24
M  V30 42 1 1 38
M  V30 43 1 1 39
M  V30 44 1 1 40
M  V30 45 1 3 41
M  V30 46 1 4 42
M  V30 47 1 6 43
M  V30 48 1 10 44
M  V30 49 1 12 45
M  V30 50 1 18 46
M  V30 51 1 19 47
M  V30 52 1 22 48
M  V30 53 1 23 49
M  V30 54 1 26 50
M  V30 55 1 29 51
M  V30 56 1 29 52
M  V30 57 1 30 53
M  V30 58 1 30 54
M  V30 59 1 32 55
M  V30 60 1 32 56
M  V30 61 1 33 57
M  V30 62 1 33 58
M  V30 63 1 34 59
M  V30 64 1 34 60
M  V30 65 1 37 61
M  V30 END BOND
M  V30 END CTAB
M  END
>  <Dataset>  (677) 
ChEMBL_Kinases

>  <Ligand_Instance>  (677) 
nan

>  <PDB_ID>  (677) 
nan

>  <Standardized_SMILES>  (677) 
Cc1ccc(NC(=O)c2cncc(C(F)(F)F)c2)cc1-c1ccc2c(c1)OC1(CCOCC1)CC(=O)N2

>  <Name>  (677) 
nan

>  <Pocket>  (677) 
nan

>  <ATP_Site>  (677) 
nan

>  <Peripheral>  (677) 
nan

>  <Num_H_Atoms_ProtBoundConf>  (677) 
nan

>  <Num_Resolved_Atoms>  (677) 
nan

>  <Num_Not_Resolved_Atoms>  (677) 
nan

$$$$
CHEMBL5075556
     RDKit          3D

  0  0  0  0  0  0  0  0  0  0999 V3000
M  V30 BEGIN CTAB
M  V30 COUNTS 70 72 0 0 0
M  V30 BEGIN ATOM
M  V30 1 C 2.653335 -0.611323 2.353700 0
M  V30 2 C 2.925211 0.875786 2.454069 0
M  V30 3 C 3.785043 1.343384 1.340801 0
M  V30 4 C 5.132460 1.665830 1.532310 0
M  V30 5 C 5.943023 2.089997 0.519125 0
M  V30 6 O 7.276970 2.387457 0.817244 0
M  V30 7 C 5.424190 2.207918 -0.740910 0
M  V30 8 F 6.254715 2.636726 -1.748328 0
M  V30 9 C 4.086176 1.897773 -0.983484 0
M  V30 10 C 3.258544 1.462487 0.063507 0
M  V30 11 C 1.884553 1.182194 -0.308555 0
M  V30 12 C 0.655254 1.622912 0.130023 0
M  V30 13 C -0.540143 1.169908 -0.369007 0
M  V30 14 N -1.736968 1.725968 0.158350 0
M  V30 15 C -2.132854 2.662569 1.159435 0 CFG=1
M  V30 16 C -3.608266 3.107126 0.991119 0
M  V30 17 C -2.051056 2.077073 2.561739 0
M  V30 18 O -0.778991 1.664541 2.892470 0
M  V30 19 C -0.524531 0.221024 -1.366523 0
M  V30 20 N -1.705785 -0.216244 -1.838036 0
M  V30 21 C -1.787047 -1.146109 -2.803893 0
M  V30 22 N -2.863254 -1.760873 -3.475182 0
M  V30 23 C -3.385043 -2.707896 -2.514221 0
M  V30 24 C -2.347918 -3.617816 -1.953498 0
M  V30 25 C -2.884340 -4.606866 -0.963278 0
M  V30 26 C -3.558884 -4.055346 0.229539 0
M  V30 27 C -2.776051 -3.161486 1.114619 0
M  V30 28 N -1.610434 -3.647383 1.718953 0
M  V30 29 C -0.885551 -2.769161 2.573421 0
M  V30 30 C -1.392965 -5.030769 1.864313 0
M  V30 31 N -0.622405 -1.624160 -3.283482 0
M  V30 32 C 0.577127 -1.207162 -2.833566 0
M  V30 33 C 0.669862 -0.253646 -1.842035 0
M  V30 34 C 1.856333 0.216225 -1.325020 0
M  V30 35 H 3.452049 -1.215151 2.784701 0
M  V30 36 H 2.532208 -0.931329 1.307486 0
M  V30 37 H 1.706987 -0.800848 2.864865 0
M  V30 38 H 3.550747 0.992117 3.377716 0
M  V30 39 H 2.020759 1.438299 2.622706 0
M  V30 40 H 5.545003 1.573452 2.532435 0
M  V30 41 H 7.983533 1.717320 0.483887 0
M  V30 42 H 3.760537 2.014792 -1.989446 0
M  V30 43 H 0.798535 2.364710 0.875732 0
M  V30 44 H -2.599587 1.330705 -0.328737 0
M  V30 45 H -1.535124 3.578452 1.107254 0
M  V30 46 H -3.939861 3.475336 1.969454 0
M  V30 47 H -4.213267 2.180133 0.762298 0
M  V30 48 H -3.736949 3.785056 0.145686 0
M  V30 49 H -2.815913 1.306904 2.728386 0
M  V30 50 H -2.288713 2.928713 3.248083 0
M  V30 51 H -0.617981 1.610419 3.847118 0
M  V30 52 H -3.097290 -1.467412 -4.469326 0
M  V30 53 H -3.963941 -2.156539 -1.749753 0
M  V30 54 H -4.172633 -3.285675 -3.084686 0
M  V30 55 H -1.481934 -3.045502 -1.594806 0
M  V30 56 H -1.960332 -4.233534 -2.807860 0
M  V30 57 H -3.664817 -5.197558 -1.527866 0
M  V30 58 H -2.090494 -5.323861 -0.750447 0
M  V30 59 H -3.910444 -4.933758 0.836632 0
M  V30 60 H -4.539211 -3.571217 -0.071845 0
M  V30 61 H -2.497199 -2.236939 0.525852 0
M  V30 62 H -3.439346 -2.730737 1.928482 0
M  V30 63 H -1.450592 -1.791601 2.592900 0
M  V30 64 H 0.077939 -2.513220 2.090323 0
M  V30 65 H -0.766757 -3.126649 3.621299 0
M  V30 66 H -0.942359 -5.325110 2.842065 0
M  V30 67 H -2.257071 -5.680440 1.674178 0
M  V30 68 H -0.591835 -5.319641 1.117642 0
M  V30 69 H 1.521697 -1.595208 -3.221660 0
M  V30 70 H 2.715117 -0.249463 -1.797967 0
M  V30 END ATOM
M  V30 BEGIN BOND
M  V30 1 1 1 2
M  V30 2 1 2 3
M  V30 3 2 3 4
M  V30 4 1 4 5
M  V30 5 1 5 6
M  V30 6 2 5 7
M  V30 7 1 7 8
M  V30 8 1 7 9
M  V30 9 2 9 10
M  V30 10 1 10 11
M  V30 11 2 11 12
M  V30 12 1 12 13
M  V30 13 1 13 14
M  V30 14 1 14 15
M  V30 15 1 15 16
M  V30 16 1 15 17
M  V30 17 1 17 18
M  V30 18 2 13 19
M  V30 19 1 19 20
M  V30 20 2 20 21
M  V30 21 1 21 22
M  V30 22 1 22 23
M  V30 23 1 23 24
M  V30 24 1 24 25
M  V30 25 1 25 26
M  V30 26 1 26 27
M  V30 27 1 27 28
M  V30 28 1 28 29
M  V30 29 1 28 30
M  V30 30 1 21 31
M  V30 31 2 31 32
M  V30 32 1 32 33
M  V30 33 2 33 34
M  V30 34 1 10 3
M  V30 35 1 34 11
M  V30 36 1 33 19
M  V30 37 1 1 35
M  V30 38 1 1 36
M  V30 39 1 1 37
M  V30 40 1 2 38
M  V30 41 1 2 39
M  V30 42 1 4 40
M  V30 43 1 6 41
M  V30 44 1 9 42
M  V30 45 1 12 43
M  V30 46 1 14 44
M  V30 47 1 15 45 CFG=1
M  V30 48 1 16 46
M  V30 49 1 16 47
M  V30 50 1 16 48
M  V30 51 1 17 49
M  V30 52 1 17 50
M  V30 53 1 18 51
M  V30 54 1 22 52
M  V30 55 1 23 53
M  V30 56 1 23 54
M  V30 57 1 24 55
M  V30 58 1 24 56
M  V30 59 1 25 57
M  V30 60 1 25 58
M  V30 61 1 26 59
M  V30 62 1 26 60
M  V30 63 1 27 61
M  V30 64 1 27 62
M  V30 65 1 29 63
M  V30 66 1 29 64
M  V30 67 1 29 65
M  V30 68 1 30 66
M  V30 69 1 30 67
M  V30 70 1 30 68
M  V30 71 1 32 69
M  V30 72 1 34 70
M  V30 END BOND
M  V30 END CTAB
M  END
>  <Dataset>  (678) 
ChEMBL_Kinases

>  <Ligand_Instance>  (678) 
nan

>  <PDB_ID>  (678) 
nan

>  <Standardized_SMILES>  (678) 
CCc1cc(O)c(F)cc1-c1cc(N[C@@H](C)CO)c2nc(NCCCCCN(C)C)ncc2c1

>  <Name>  (678) 
nan

>  <Pocket>  (678) 
nan

>  <ATP_Site>  (678) 
nan

>  <Peripheral>  (678) 
nan

>  <Num_H_Atoms_ProtBoundConf>  (678) 
nan

>  <Num_Resolved_Atoms>  (678) 
nan

>  <Num_Not_Resolved_Atoms>  (678) 
nan

$$$$
CHEMBL5075583
     RDKit          3D

  0  0  0  0  0  0  0  0  0  0999 V3000
M  V30 BEGIN CTAB
M  V30 COUNTS 117 118 0 0 0
M  V30 BEGIN ATOM
M  V30 1 C 3.351656 -4.568631 -3.602830 0
M  V30 2 O 3.623088 -3.266505 -4.042333 0
M  V30 3 C 4.827818 -2.838607 -4.570404 0
M  V30 4 O 5.829541 -3.588426 -4.717051 0
M  V30 5 C 4.961244 -1.426231 -4.990517 0 CFG=2
M  V30 6 C 6.146908 -0.820036 -4.315057 0
M  V30 7 C 6.146459 -0.803506 -2.829989 0
M  V30 8 C 5.022546 -0.037062 -2.199738 0
M  V30 9 C 7.438867 -0.133800 -2.377131 0
M  V30 10 N 3.740297 -0.701975 -4.746382 0
M  V30 11 C 3.067539 -0.102788 -5.883425 0
M  V30 12 O 3.455427 -0.155084 -7.104628 0
M  V30 13 C 1.822072 0.686477 -5.934525 0 CFG=2
M  V30 14 C 2.101736 2.153200 -6.302158 0
M  V30 15 C 2.477511 2.797402 -4.985839 0
M  V30 16 C 1.628251 2.079056 -3.995916 0
M  V30 17 N 1.192352 0.854922 -4.647454 0
M  V30 18 C 0.282131 0.131981 -3.878923 0
M  V30 19 O 0.005910 0.635333 -2.753686 0
M  V30 20 C -0.595872 -0.996856 -3.670229 0 CFG=1
M  V30 21 N -1.170019 -0.902837 -2.312520 0
M  V30 22 C -1.213419 -2.089486 -1.519725 0
M  V30 23 O -0.792755 -3.218824 -1.900054 0
M  V30 24 C -1.753550 -2.177015 -0.147953 0 CFG=2
M  V30 25 C -2.908711 -3.170462 -0.108102 0
M  V30 26 O -3.432883 -3.258487 1.177558 0
M  V30 27 N -2.171862 -0.866442 0.248215 0
M  V30 28 C -1.799848 -0.294325 1.459574 0
M  V30 29 O -1.078537 -0.750428 2.415988 0
M  V30 30 C -1.823577 0.818129 2.408422 0 CFG=2
M  V30 31 C -1.114501 2.060831 1.983208 0
M  V30 32 C -1.701282 2.607513 0.733352 0
M  V30 33 C -3.141543 2.917394 0.970509 0
M  V30 34 N -3.816585 3.447337 -0.136270 0
M  V30 35 O -4.055197 2.893393 1.819008 0
M  V30 36 N -1.218114 0.432365 3.699200 0
M  V30 37 C -2.033256 0.385505 4.853816 0
M  V30 38 O -3.247376 0.670528 4.711491 0
M  V30 39 C -1.525634 0.016661 6.227756 0 CFG=2
M  V30 40 C -0.560975 -1.100905 6.243524 0
M  V30 41 C -1.126153 -2.389441 5.690430 0
M  V30 42 S 0.159077 -3.658654 5.771812 0
M  V30 43 C 1.519954 -3.245648 4.648185 0
M  V30 44 N -2.574071 -0.037907 7.210379 0
M  V30 45 C -3.892553 -0.556923 7.146908 0
M  V30 46 O -4.359151 -1.111865 6.114516 0
M  V30 47 C -5.015235 -0.623843 8.106884 0 CFG=2
M  V30 48 C -6.142602 0.218916 7.479523 0
M  V30 49 C -5.653227 1.616758 7.804664 0
M  V30 50 C -4.925823 1.456720 9.121900 0
M  V30 51 N -4.745370 0.042199 9.368395 0
M  V30 52 C -1.763426 -0.843814 -4.668069 0 CFG=1
M  V30 53 C -2.405568 0.511124 -4.483330 0
M  V30 54 O -1.235827 -0.921512 -5.931527 0
M  V30 55 P -1.871940 -2.216574 -6.816905 0
M  V30 56 O -2.391145 -3.300441 -5.917080 0
M  V30 57 O -3.113486 -1.705329 -7.837226 0
M  V30 58 O -0.613553 -2.815754 -7.797092 0
M  V30 59 H 4.192104 -5.261736 -3.614960 0
M  V30 60 H 2.507742 -4.940635 -4.251113 0
M  V30 61 H 2.925094 -4.495657 -2.579564 0
M  V30 62 H 5.095429 -1.446384 -6.104918 0
M  V30 63 H 7.107941 -1.269591 -4.673988 0
M  V30 64 H 6.243379 0.263383 -4.640148 0
M  V30 65 H 6.209215 -1.839693 -2.422031 0
M  V30 66 H 4.177403 -0.696752 -1.917571 0
M  V30 67 H 5.346535 0.417430 -1.210516 0
M  V30 68 H 4.716414 0.827592 -2.817755 0
M  V30 69 H 7.612410 0.824881 -2.920901 0
M  V30 70 H 7.312963 0.123257 -1.306319 0
M  V30 71 H 8.303033 -0.827273 -2.481068 0
M  V30 72 H 3.110433 -0.437878 -3.978405 0
M  V30 73 H 1.075017 0.325796 -6.648750 0
M  V30 74 H 1.234520 2.623301 -6.775852 0
M  V30 75 H 2.959221 2.220406 -6.996979 0
M  V30 76 H 3.553199 2.656666 -4.765109 0
M  V30 77 H 2.237155 3.889710 -5.096220 0
M  V30 78 H 0.720428 2.701196 -3.777063 0
M  V30 79 H 2.194084 1.846692 -3.056989 0
M  V30 80 H -0.205309 -2.001315 -3.761648 0
M  V30 81 H -1.569280 -0.085278 -1.803561 0
M  V30 82 H -1.007554 -2.550740 0.564749 0
M  V30 83 H -3.659481 -2.999256 -0.894483 0
M  V30 84 H -2.441647 -4.165862 -0.311125 0
M  V30 85 H -4.301050 -3.752336 1.105657 0
M  V30 86 H -2.756058 -0.111202 -0.145440 0
M  V30 87 H -2.886507 1.043918 2.607228 0
M  V30 88 H -1.292005 2.830402 2.781548 0
M  V30 89 H -0.010799 1.953201 1.952163 0
M  V30 90 H -1.549061 1.877547 -0.086948 0
M  V30 91 H -1.196465 3.580141 0.491458 0
M  V30 92 H -4.332889 3.717086 -0.980430 0
M  V30 93 H -3.854429 4.475187 -0.212957 0
M  V30 94 H -0.218619 0.180103 3.861872 0
M  V30 95 H -0.964286 0.976015 6.486244 0
M  V30 96 H -0.213174 -1.256167 7.287665 0
M  V30 97 H 0.340249 -0.805274 5.669356 0
M  V30 98 H -2.026349 -2.718958 6.236056 0
M  V30 99 H -1.403663 -2.291737 4.624254 0
M  V30 100 H 1.295328 -3.569412 3.600802 0
M  V30 101 H 1.595340 -2.125128 4.623042 0
M  V30 102 H 2.472686 -3.736491 4.906438 0
M  V30 103 H -2.418500 0.360373 8.184387 0
M  V30 104 H -5.417443 -1.621756 8.289153 0
M  V30 105 H -6.192062 0.099853 6.394013 0
M  V30 106 H -7.101801 0.067815 7.991966 0
M  V30 107 H -6.504203 2.324556 7.865876 0
M  V30 108 H -4.954467 2.003412 7.041413 0
M  V30 109 H -3.983337 2.026874 9.150564 0
M  V30 110 H -5.594653 1.887806 9.901746 0
M  V30 111 H -3.751503 -0.115797 9.619065 0
M  V30 112 H -2.524196 -1.630864 -4.461200 0
M  V30 113 H -2.478060 0.811363 -3.416030 0
M  V30 114 H -1.902611 1.283127 -5.100012 0
M  V30 115 H -3.461361 0.442832 -4.883340 0
M  V30 116 H -3.037791 -0.780130 -8.141955 0
M  V30 117 H -0.141960 -2.067157 -8.242999 0
M  V30 END ATOM
M  V30 BEGIN BOND
M  V30 1 1 1 2
M  V30 2 1 2 3
M  V30 3 2 3 4
M  V30 4 1 3 5
M  V30 5 1 5 6
M  V30 6 1 6 7
M  V30 7 1 7 8
M  V30 8 1 7 9
M  V30 9 1 5 10
M  V30 10 1 10 11
M  V30 11 2 11 12
M  V30 12 1 11 13
M  V30 13 1 13 14
M  V30 14 1 14 15
M  V30 15 1 15 16
M  V30 16 1 16 17
M  V30 17 1 17 18
M  V30 18 2 18 19
M  V30 19 1 18 20
M  V30 20 1 20 21
M  V30 21 1 21 22
M  V30 22 2 22 23
M  V30 23 1 22 24
M  V30 24 1 24 25
M  V30 25 1 25 26
M  V30 26 1 24 27
M  V30 27 1 27 28
M  V30 28 2 28 29
M  V30 29 1 28 30
M  V30 30 1 30 31
M  V30 31 1 31 32
M  V30 32 1 32 33
M  V30 33 1 33 34
M  V30 34 2 33 35
M  V30 35 1 30 36
M  V30 36 1 36 37
M  V30 37 2 37 38
M  V30 38 1 37 39
M  V30 39 1 39 40
M  V30 40 1 40 41
M  V30 41 1 41 42
M  V30 42 1 42 43
M  V30 43 1 39 44
M  V30 44 1 44 45
M  V30 45 2 45 46
M  V30 46 1 45 47
M  V30 47 1 47 48
M  V30 48 1 48 49
M  V30 49 1 49 50
M  V30 50 1 50 51
M  V30 51 1 20 52
M  V30 52 1 52 53
M  V30 53 1 52 54
M  V30 54 1 54 55
M  V30 55 2 55 56
M  V30 56 1 55 57
M  V30 57 1 55 58
M  V30 58 1 17 13
M  V30 59 1 51 47
M  V30 60 1 1 59
M  V30 61 1 1 60
M  V30 62 1 1 61
M  V30 63 1 5 62 CFG=3
M  V30 64 1 6 63
M  V30 65 1 6 64
M  V30 66 1 7 65
M  V30 67 1 8 66
M  V30 68 1 8 67
M  V30 69 1 8 68
M  V30 70 1 9 69
M  V30 71 1 9 70
M  V30 72 1 9 71
M  V30 73 1 10 72
M  V30 74 1 13 73 CFG=3
M  V30 75 1 14 74
M  V30 76 1 14 75
M  V30 77 1 15 76
M  V30 78 1 15 77
M  V30 79 1 16 78
M  V30 80 1 16 79
M  V30 81 1 20 80 CFG=1
M  V30 82 1 21 81
M  V30 83 1 24 82 CFG=1
M  V30 84 1 25 83
M  V30 85 1 25 84
M  V30 86 1 26 85
M  V30 87 1 27 86
M  V30 88 1 30 87 CFG=1
M  V30 89 1 31 88
M  V30 90 1 31 89
M  V30 91 1 32 90
M  V30 92 1 32 91
M  V30 93 1 34 92
M  V30 94 1 34 93
M  V30 95 1 36 94
M  V30 96 1 39 95 CFG=1
M  V30 97 1 40 96
M  V30 98 1 40 97
M  V30 99 1 41 98
M  V30 100 1 41 99
M  V30 101 1 43 100
M  V30 102 1 43 101
M  V30 103 1 43 102
M  V30 104 1 44 103
M  V30 105 1 47 104 CFG=1
M  V30 106 1 48 105
M  V30 107 1 48 106
M  V30 108 1 49 107
M  V30 109 1 49 108
M  V30 110 1 50 109
M  V30 111 1 50 110
M  V30 112 1 51 111
M  V30 113 1 52 112 CFG=1
M  V30 114 1 53 113
M  V30 115 1 53 114
M  V30 116 1 53 115
M  V30 117 1 57 116
M  V30 118 1 58 117
M  V30 END BOND
M  V30 END CTAB
M  END
>  <Dataset>  (679) 
ChEMBL_Kinases

>  <Ligand_Instance>  (679) 
nan

>  <PDB_ID>  (679) 
nan

>  <Standardized_SMILES>  (679) 
COC(=O)[C@H](CC(C)C)NC(=O)[C@@H]1CCCN1C(=O)[C@@H](NC(=O)[C@H](CO)NC(=O)[C@H](CCC(N)=O)NC(=O)[C@H](CCSC)NC(=O)[C@@H]1CCCN1)[C@@H](C)OP(=O)(O)O

>  <Name>  (679) 
nan

>  <Pocket>  (679) 
nan

>  <ATP_Site>  (679) 
nan

>  <Peripheral>  (679) 
nan

>  <Num_H_Atoms_ProtBoundConf>  (679) 
nan

>  <Num_Resolved_Atoms>  (679) 
nan

>  <Num_Not_Resolved_Atoms>  (679) 
nan

$$$$
CHEMBL5075604
     RDKit          3D

  0  0  0  0  0  0  0  0  0  0999 V3000
M  V30 BEGIN CTAB
M  V30 COUNTS 48 52 0 0 0
M  V30 BEGIN ATOM
M  V30 1 N 2.422044 -6.604813 2.648450 0
M  V30 2 C 2.371940 -5.467238 2.444125 0
M  V30 3 C 2.329581 -4.039386 2.196883 0
M  V30 4 C 1.666431 -3.689959 0.867447 0
M  V30 5 N 1.661497 -2.235455 0.681281 0
M  V30 6 C 2.943653 -1.697019 0.481734 0
M  V30 7 C 3.163686 -0.675096 -0.550678 0
M  V30 8 C 2.007834 -0.128781 -1.281948 0
M  V30 9 C 1.960699 1.406235 -1.262548 0
M  V30 10 C 0.443489 1.584931 -1.115278 0
M  V30 11 N 0.204278 0.575448 -0.062173 0
M  V30 12 C -0.259597 0.428144 1.268543 0
M  V30 13 N 0.725829 0.074008 2.132286 0
M  V30 14 C 0.504009 -0.091731 3.446646 0
M  V30 15 N -0.744696 0.097254 3.945591 0
M  V30 16 C -1.757982 0.446700 3.143200 0
M  V30 17 N -3.064217 0.695554 3.333541 0
M  V30 18 C -3.620878 1.005512 2.149517 0
M  V30 19 C -4.926458 1.333741 1.822142 0
M  V30 20 C -5.244432 1.610217 0.502341 0
M  V30 21 F -6.528697 1.926099 0.222038 0
M  V30 22 C -4.256469 1.557681 -0.486616 0
M  V30 23 C -2.972238 1.230901 -0.136792 0
M  V30 24 C -2.660906 0.959608 1.162686 0
M  V30 25 C -1.510745 0.611789 1.799930 0
M  V30 26 C 0.655080 -0.579414 -0.851346 0
M  V30 27 C 0.597221 -1.874349 -0.160537 0
M  V30 28 H 3.341381 -3.621483 2.213574 0
M  V30 29 H 1.751770 -3.539126 3.027728 0
M  V30 30 H 2.188015 -4.190220 0.033898 0
M  V30 31 H 0.626749 -4.068792 0.930436 0
M  V30 32 H 3.317955 -1.355455 1.497451 0
M  V30 33 H 3.632881 -2.572986 0.270112 0
M  V30 34 H 3.692081 0.200865 -0.061174 0
M  V30 35 H 3.935220 -1.025870 -1.298195 0
M  V30 36 H 2.080793 -0.380062 -2.380298 0
M  V30 37 H 2.333772 1.850007 -2.197001 0
M  V30 38 H 2.453513 1.805312 -0.367461 0
M  V30 39 H -0.044418 1.248635 -2.026736 0
M  V30 40 H 0.165831 2.593204 -0.768590 0
M  V30 41 H 1.268251 -0.373166 4.157489 0
M  V30 42 H -3.564089 0.653695 4.255651 0
M  V30 43 H -5.678444 1.369796 2.602147 0
M  V30 44 H -4.640030 1.796749 -1.480906 0
M  V30 45 H -2.329164 1.220731 -0.972992 0
M  V30 46 H -0.056252 -0.617617 -1.713811 0
M  V30 47 H -0.358852 -1.958424 0.396944 0
M  V30 48 H 0.517105 -2.663586 -0.964006 0
M  V30 END ATOM
M  V30 BEGIN BOND
M  V30 1 3 1 2
M  V30 2 1 2 3
M  V30 3 1 3 4
M  V30 4 1 4 5
M  V30 5 1 5 6
M  V30 6 1 6 7
M  V30 7 1 7 8
M  V30 8 1 8 9
M  V30 9 1 9 10
M  V30 10 1 10 11
M  V30 11 1 11 12
M  V30 12 2 12 13
M  V30 13 1 13 14
M  V30 14 2 14 15
M  V30 15 1 15 16
M  V30 16 1 16 17
M  V30 17 1 17 18
M  V30 18 2 18 19
M  V30 19 1 19 20
M  V30 20 1 20 21
M  V30 21 2 20 22
M  V30 22 1 22 23
M  V30 23 2 23 24
M  V30 24 1 24 25
M  V30 25 1 11 26
M  V30 26 1 26 27
M  V30 27 1 27 5
M  V30 28 1 26 8
M  V30 29 1 25 12
M  V30 30 2 25 16
M  V30 31 1 24 18
M  V30 32 1 3 28
M  V30 33 1 3 29
M  V30 34 1 4 30
M  V30 35 1 4 31
M  V30 36 1 6 32
M  V30 37 1 6 33
M  V30 38 1 7 34
M  V30 39 1 7 35
M  V30 40 1 8 36
M  V30 41 1 9 37
M  V30 42 1 9 38
M  V30 43 1 10 39
M  V30 44 1 10 40
M  V30 45 1 14 41
M  V30 46 1 17 42
M  V30 47 1 19 43
M  V30 48 1 22 44
M  V30 49 1 23 45
M  V30 50 1 26 46
M  V30 51 1 27 47
M  V30 52 1 27 48
M  V30 END BOND
M  V30 END CTAB
M  END
>  <Dataset>  (680) 
ChEMBL_Kinases

>  <Ligand_Instance>  (680) 
nan

>  <PDB_ID>  (680) 
nan

>  <Standardized_SMILES>  (680) 
N#CCCN1CCC2CCN(c3ncnc4[nH]c5cc(F)ccc5c34)C2C1

>  <Name>  (680) 
nan

>  <Pocket>  (680) 
nan

>  <ATP_Site>  (680) 
nan

>  <Peripheral>  (680) 
nan

>  <Num_H_Atoms_ProtBoundConf>  (680) 
nan

>  <Num_Resolved_Atoms>  (680) 
nan

>  <Num_Not_Resolved_Atoms>  (680) 
nan

$$$$
CHEMBL5075673
     RDKit          3D

  0  0  0  0  0  0  0  0  0  0999 V3000
M  V30 BEGIN CTAB
M  V30 COUNTS 56 60 0 0 0
M  V30 BEGIN ATOM
M  V30 1 C 2.739151 2.479773 -1.695461 0
M  V30 2 C 3.430977 1.347079 -2.457927 0
M  V30 3 C 3.970525 0.370681 -1.490745 0
M  V30 4 C 5.302789 0.283331 -1.159327 0
M  V30 5 C 5.797752 -0.612718 -0.240327 0
M  V30 6 O 7.142084 -0.641198 0.039048 0
M  V30 7 C 4.885616 -1.463357 0.371860 0
M  V30 8 F 5.385082 -2.325496 1.260955 0
M  V30 9 C 3.563753 -1.363434 0.030230 0
M  V30 10 C 3.044013 -0.457048 -0.903553 0
M  V30 11 C 1.618363 -0.593386 -1.084874 0
M  V30 12 C 0.882535 -0.470853 0.073589 0
M  V30 13 C -0.497907 -0.586928 0.119635 0
M  V30 14 N -1.256633 -0.431577 1.329049 0
M  V30 15 C -2.644751 -0.569072 1.609447 0 CFG=2
M  V30 16 C -2.968939 0.025268 2.986266 0
M  V30 17 C -2.257819 -0.655056 4.104271 0 CFG=1
M  V30 18 C -3.349729 -1.257585 5.007083 0
M  V30 19 C -3.855795 -2.346033 4.047697 0
M  V30 20 C -2.710379 -2.587408 3.090989 0 CFG=1
M  V30 21 C -3.077961 -2.022119 1.730605 0
M  V30 22 N -1.621537 -1.894329 3.698020 0
M  V30 23 C -1.131501 -0.841938 -1.103085 0
M  V30 24 N -2.465210 -0.962722 -1.186898 0
M  V30 25 C -3.063438 -1.195638 -2.352632 0
M  V30 26 N -4.480889 -1.320215 -2.415206 0
M  V30 27 N -2.370271 -1.323823 -3.514809 0
M  V30 28 C -1.024426 -1.213359 -3.504714 0
M  V30 29 C -0.448452 -0.974838 -2.294015 0
M  V30 30 C 0.923126 -0.845282 -2.247994 0
M  V30 31 H 2.899838 3.438988 -2.201782 0
M  V30 32 H 3.143716 2.506453 -0.663357 0
M  V30 33 H 1.649794 2.246160 -1.629888 0
M  V30 34 H 2.784876 0.957335 -3.234199 0
M  V30 35 H 4.326734 1.830008 -2.924359 0
M  V30 36 H 5.956377 0.978832 -1.677157 0
M  V30 37 H 7.577571 -1.466709 0.443610 0
M  V30 38 H 2.945819 -2.088979 0.582646 0
M  V30 39 H 1.367972 -0.270292 1.041390 0
M  V30 40 H -0.652974 -0.164462 2.163668 0
M  V30 41 H -3.274015 -0.070592 0.865460 0
M  V30 42 H -2.746176 1.104494 2.888064 0
M  V30 43 H -4.088573 -0.054472 3.047593 0
M  V30 44 H -1.588285 0.020252 4.630784 0
M  V30 45 H -4.125690 -0.521266 5.251174 0
M  V30 46 H -2.820228 -1.694746 5.867956 0
M  V30 47 H -4.783426 -2.072740 3.547696 0
M  V30 48 H -3.919375 -3.278248 4.665321 0
M  V30 49 H -2.514900 -3.671279 2.940427 0
M  V30 50 H -2.674838 -2.651722 0.922558 0
M  V30 51 H -4.183076 -2.015319 1.625782 0
M  V30 52 H -1.134450 -2.375924 4.446881 0
M  V30 53 H -4.936276 -1.765251 -1.589004 0
M  V30 54 H -5.102662 -1.015073 -3.193853 0
M  V30 55 H -0.429259 -1.307536 -4.403001 0
M  V30 56 H 1.484882 -0.954494 -3.138741 0
M  V30 END ATOM
M  V30 BEGIN BOND
M  V30 1 1 1 2
M  V30 2 1 2 3
M  V30 3 2 3 4
M  V30 4 1 4 5
M  V30 5 1 5 6
M  V30 6 2 5 7
M  V30 7 1 7 8
M  V30 8 1 7 9
M  V30 9 2 9 10
M  V30 10 1 10 11
M  V30 11 2 11 12
M  V30 12 1 12 13
M  V30 13 1 13 14
M  V30 14 1 14 15
M  V30 15 1 15 16
M  V30 16 1 16 17
M  V30 17 1 17 18
M  V30 18 1 18 19
M  V30 19 1 19 20
M  V30 20 1 20 21
M  V30 21 1 20 22
M  V30 22 2 13 23
M  V30 23 1 23 24
M  V30 24 2 24 25
M  V30 25 1 25 26
M  V30 26 1 25 27
M  V30 27 2 27 28
M  V30 28 1 28 29
M  V30 29 2 29 30
M  V30 30 1 10 3
M  V30 31 1 30 11
M  V30 32 1 21 15
M  V30 33 1 29 23
M  V30 34 1 22 17
M  V30 35 1 1 31
M  V30 36 1 1 32
M  V30 37 1 1 33
M  V30 38 1 2 34
M  V30 39 1 2 35
M  V30 40 1 4 36
M  V30 41 1 6 37
M  V30 42 1 9 38
M  V30 43 1 12 39
M  V30 44 1 14 40
M  V30 45 1 15 41 CFG=3
M  V30 46 1 16 42
M  V30 47 1 16 43
M  V30 48 1 17 44 CFG=1
M  V30 49 1 18 45
M  V30 50 1 18 46
M  V30 51 1 19 47
M  V30 52 1 19 48
M  V30 53 1 20 49 CFG=3
M  V30 54 1 21 50
M  V30 55 1 21 51
M  V30 56 1 22 52
M  V30 57 1 26 53
M  V30 58 1 26 54
M  V30 59 1 28 55
M  V30 60 1 30 56
M  V30 END BOND
M  V30 END CTAB
M  END
>  <Dataset>  (681) 
ChEMBL_Kinases

>  <Ligand_Instance>  (681) 
nan

>  <PDB_ID>  (681) 
nan

>  <Standardized_SMILES>  (681) 
CCc1cc(O)c(F)cc1-c1cc(N[C@@H]2C[C@H]3CC[C@@H](C2)N3)c2nc(N)ncc2c1

>  <Name>  (681) 
nan

>  <Pocket>  (681) 
nan

>  <ATP_Site>  (681) 
nan

>  <Peripheral>  (681) 
nan

>  <Num_H_Atoms_ProtBoundConf>  (681) 
nan

>  <Num_Resolved_Atoms>  (681) 
nan

>  <Num_Not_Resolved_Atoms>  (681) 
nan

$$$$
CHEMBL5075798
     RDKit          3D

  0  0  0  0  0  0  0  0  0  0999 V3000
M  V30 BEGIN CTAB
M  V30 COUNTS 50 53 0 0 0
M  V30 BEGIN ATOM
M  V30 1 C 2.069451 -4.008361 5.458154 0
M  V30 2 O 3.255375 -3.490913 4.846063 0
M  V30 3 C 3.073316 -2.608734 3.786981 0
M  V30 4 C 1.793328 -2.256880 3.356058 0
M  V30 5 C 1.676823 -1.376841 2.300003 0
M  V30 6 C 2.751580 -0.819085 1.638785 0
M  V30 7 C 4.008072 -1.186301 2.087961 0
M  V30 8 S 5.410953 -0.509346 1.286165 0
M  V30 9 N 5.317070 1.203597 1.460082 0
M  V30 10 O 6.668050 -1.045255 1.893763 0
M  V30 11 O 5.406209 -0.927852 -0.148701 0
M  V30 12 C 4.191011 -2.067960 3.146430 0
M  V30 13 C 2.303884 0.087059 0.549098 0
M  V30 14 N 0.858924 0.005075 0.637101 0
M  V30 15 C -0.013239 0.729150 -0.237453 0
M  V30 16 C 0.449858 1.561592 -1.232502 0
M  V30 17 C -0.367784 2.270125 -2.088065 0
M  V30 18 C -1.726491 2.116903 -1.913977 0
M  V30 19 C -2.207894 1.279098 -0.912621 0
M  V30 20 C -3.656087 1.215350 -0.846477 0
M  V30 21 N -4.373761 2.255876 -0.450452 0
M  V30 22 N -5.638621 1.900287 -0.494301 0
M  V30 23 C -5.685106 0.629227 -0.922141 0
M  V30 24 N -4.419414 0.177242 -1.151959 0
M  V30 25 C -4.045606 -1.134160 -1.618946 0
M  V30 26 C -3.899010 -2.066037 -0.420794 0
M  V30 27 C -2.844706 -1.191505 -2.489617 0
M  V30 28 N -1.341320 0.606294 -0.099561 0
M  V30 29 C 0.455262 -0.870222 1.683855 0
M  V30 30 O -0.749062 -1.123996 1.979644 0
M  V30 31 H 2.323885 -4.726477 6.266486 0
M  V30 32 H 1.524936 -3.147541 5.934997 0
M  V30 33 H 1.409527 -4.502292 4.699708 0
M  V30 34 H 0.939728 -2.684286 3.862548 0
M  V30 35 H 4.963762 1.624422 0.585598 0
M  V30 36 H 6.269996 1.632097 1.629255 0
M  V30 37 H 5.199097 -2.348363 3.489754 0
M  V30 38 H 2.564352 1.148767 0.777540 0
M  V30 39 H 2.695686 -0.190467 -0.449045 0
M  V30 40 H 1.523353 1.675100 -1.360982 0
M  V30 41 H 0.043117 2.906564 -2.848423 0
M  V30 42 H -2.373444 2.675223 -2.588169 0
M  V30 43 H -6.611768 0.108083 -1.042567 0
M  V30 44 H -4.916650 -1.522441 -2.186471 0
M  V30 45 H -2.997736 -1.865541 0.168084 0
M  V30 46 H -3.893465 -3.127455 -0.739424 0
M  V30 47 H -4.836081 -1.899303 0.181052 0
M  V30 48 H -1.904110 -1.419312 -1.948756 0
M  V30 49 H -2.772628 -0.292650 -3.143311 0
M  V30 50 H -2.971098 -2.038992 -3.201186 0
M  V30 END ATOM
M  V30 BEGIN BOND
M  V30 1 1 1 2
M  V30 2 1 2 3
M  V30 3 2 3 4
M  V30 4 1 4 5
M  V30 5 2 5 6
M  V30 6 1 6 7
M  V30 7 1 7 8
M  V30 8 1 8 9
M  V30 9 2 8 10
M  V30 10 2 8 11
M  V30 11 2 7 12
M  V30 12 1 6 13
M  V30 13 1 13 14
M  V30 14 1 14 15
M  V30 15 2 15 16
M  V30 16 1 16 17
M  V30 17 2 17 18
M  V30 18 1 18 19
M  V30 19 1 19 20
M  V30 20 2 20 21
M  V30 21 1 21 22
M  V30 22 2 22 23
M  V30 23 1 23 24
M  V30 24 1 24 25
M  V30 25 1 25 26
M  V30 26 1 25 27
M  V30 27 2 19 28
M  V30 28 1 14 29
M  V30 29 2 29 30
M  V30 30 1 12 3
M  V30 31 1 28 15
M  V30 32 1 29 5
M  V30 33 1 24 20
M  V30 34 1 1 31
M  V30 35 1 1 32
M  V30 36 1 1 33
M  V30 37 1 4 34
M  V30 38 1 9 35
M  V30 39 1 9 36
M  V30 40 1 12 37
M  V30 41 1 13 38
M  V30 42 1 13 39
M  V30 43 1 16 40
M  V30 44 1 17 41
M  V30 45 1 18 42
M  V30 46 1 23 43
M  V30 47 1 25 44
M  V30 48 1 26 45
M  V30 49 1 26 46
M  V30 50 1 26 47
M  V30 51 1 27 48
M  V30 52 1 27 49
M  V30 53 1 27 50
M  V30 END BOND
M  V30 END CTAB
M  END
>  <Dataset>  (682) 
ChEMBL_Kinases

>  <Ligand_Instance>  (682) 
nan

>  <PDB_ID>  (682) 
nan

>  <Standardized_SMILES>  (682) 
COc1cc2c(c(S(N)(=O)=O)c1)CN(c1cccc(-c3nncn3C(C)C)n1)C2=O

>  <Name>  (682) 
nan

>  <Pocket>  (682) 
nan

>  <ATP_Site>  (682) 
nan

>  <Peripheral>  (682) 
nan

>  <Num_H_Atoms_ProtBoundConf>  (682) 
nan

>  <Num_Resolved_Atoms>  (682) 
nan

>  <Num_Not_Resolved_Atoms>  (682) 
nan

$$$$
CHEMBL3787081
     RDKit          3D

  0  0  0  0  0  0  0  0  0  0999 V3000
M  V30 BEGIN CTAB
M  V30 COUNTS 49 52 0 0 0
M  V30 BEGIN ATOM
M  V30 1 C 1.278614 -4.695491 2.266846 0
M  V30 2 O 2.460166 -5.430396 2.303303 0
M  V30 3 C 3.237500 -5.149183 1.204220 0
M  V30 4 C 3.610696 -3.712454 1.125058 0
M  V30 5 C 4.793311 -3.377565 1.766759 0
M  V30 6 C 5.272911 -2.065005 1.777976 0
M  V30 7 N 4.554102 -1.141302 1.149397 0
M  V30 8 C 3.393593 -1.408787 0.506755 0
M  V30 9 N 2.654261 -0.385948 -0.155147 0
M  V30 10 C 1.655695 0.370892 0.496876 0
M  V30 11 O 1.444202 0.092544 1.720605 0
M  V30 12 N 0.890713 1.398493 -0.111917 0
M  V30 13 C -0.065995 2.019357 0.770751 0
M  V30 14 C 0.333809 3.124181 1.506687 0
M  V30 15 C -0.600152 3.712845 2.354246 0
M  V30 16 C -1.893179 3.238763 2.483766 0
M  V30 17 C -2.214303 2.134557 1.717083 0
M  V30 18 C -1.340003 1.497945 0.854391 0
M  V30 19 C -2.007058 0.357278 0.195652 0
M  V30 20 C -2.055776 0.532827 -1.301582 0
M  V30 21 C -3.505133 0.715130 -1.741550 0
M  V30 22 C -4.298679 -0.528712 -1.362363 0
M  V30 23 C -4.086052 -0.745932 0.126963 0
M  V30 24 N -3.350312 0.361520 0.732070 0
M  V30 25 C -3.500842 1.437065 1.662942 0
M  V30 26 O -4.605513 1.597477 2.231435 0
M  V30 27 C 2.914257 -2.702695 0.491747 0
M  V30 28 H 0.631606 -4.906049 3.147187 0
M  V30 29 H 1.600145 -3.623326 2.363249 0
M  V30 30 H 0.738170 -4.848062 1.312158 0
M  V30 31 H 2.621902 -5.335234 0.276382 0
M  V30 32 H 4.099077 -5.817832 1.119063 0
M  V30 33 H 5.438083 -4.089569 2.305943 0
M  V30 34 H 6.202556 -1.796694 2.281342 0
M  V30 35 H 2.812296 -0.138576 -1.167020 0
M  V30 36 H 1.069318 1.620310 -1.112549 0
M  V30 37 H 1.346328 3.474049 1.387957 0
M  V30 38 H -0.275207 4.580820 2.928106 0
M  V30 39 H -2.618417 3.698418 3.143980 0
M  V30 40 H -1.468787 -0.598818 0.451352 0
M  V30 41 H -1.520884 1.468697 -1.631089 0
M  V30 42 H -1.580690 -0.312655 -1.856937 0
M  V30 43 H -3.903637 1.535065 -1.086430 0
M  V30 44 H -3.580573 0.967088 -2.802444 0
M  V30 45 H -5.385000 -0.266308 -1.517975 0
M  V30 46 H -4.027408 -1.408574 -1.968319 0
M  V30 47 H -3.527306 -1.699696 0.235161 0
M  V30 48 H -5.053873 -0.849692 0.655369 0
M  V30 49 H 2.004367 -3.008216 0.008144 0
M  V30 END ATOM
M  V30 BEGIN BOND
M  V30 1 1 1 2
M  V30 2 1 2 3
M  V30 3 1 3 4
M  V30 4 2 4 5
M  V30 5 1 5 6
M  V30 6 2 6 7
M  V30 7 1 7 8
M  V30 8 1 8 9
M  V30 9 1 9 10
M  V30 10 2 10 11
M  V30 11 1 10 12
M  V30 12 1 12 13
M  V30 13 2 13 14
M  V30 14 1 14 15
M  V30 15 2 15 16
M  V30 16 1 16 17
M  V30 17 2 17 18
M  V30 18 1 18 19
M  V30 19 1 19 20
M  V30 20 1 20 21
M  V30 21 1 21 22
M  V30 22 1 22 23
M  V30 23 1 23 24
M  V30 24 1 24 25
M  V30 25 2 25 26
M  V30 26 2 8 27
M  V30 27 1 27 4
M  V30 28 1 18 13
M  V30 29 1 24 19
M  V30 30 1 25 17
M  V30 31 1 1 28
M  V30 32 1 1 29
M  V30 33 1 1 30
M  V30 34 1 3 31
M  V30 35 1 3 32
M  V30 36 1 5 33
M  V30 37 1 6 34
M  V30 38 1 9 35
M  V30 39 1 12 36
M  V30 40 1 14 37
M  V30 41 1 15 38
M  V30 42 1 16 39
M  V30 43 1 19 40
M  V30 44 1 20 41
M  V30 45 1 20 42
M  V30 46 1 21 43
M  V30 47 1 21 44
M  V30 48 1 22 45
M  V30 49 1 22 46
M  V30 50 1 23 47
M  V30 51 1 23 48
M  V30 52 1 27 49
M  V30 END BOND
M  V30 END CTAB
M  END
>  <Dataset>  (683) 
ChEMBL_Kinases

>  <Ligand_Instance>  (683) 
nan

>  <PDB_ID>  (683) 
nan

>  <Standardized_SMILES>  (683) 
COCc1ccnc(NC(=O)Nc2cccc3c2C2CCCCN2C3=O)c1

>  <Name>  (683) 
nan

>  <Pocket>  (683) 
nan

>  <ATP_Site>  (683) 
nan

>  <Peripheral>  (683) 
nan

>  <Num_H_Atoms_ProtBoundConf>  (683) 
nan

>  <Num_Resolved_Atoms>  (683) 
nan

>  <Num_Not_Resolved_Atoms>  (683) 
nan

$$$$
CHEMBL5075824
     RDKit          3D

  0  0  0  0  0  0  0  0  0  0999 V3000
M  V30 BEGIN CTAB
M  V30 COUNTS 55 59 0 0 0
M  V30 BEGIN ATOM
M  V30 1 C 4.006313 3.527566 -1.953400 0
M  V30 2 C 3.910343 3.007108 -0.570966 0
M  V30 3 N 4.732932 3.349889 0.412127 0
M  V30 4 N 4.422324 2.735578 1.550417 0
M  V30 5 C 5.190731 2.964448 2.753181 0
M  V30 6 C 6.084461 1.829949 3.173076 0
M  V30 7 O 5.647746 1.924633 4.498403 0
M  V30 8 C 4.484817 2.525455 4.014129 0
M  V30 9 C 3.360551 1.976049 1.269282 0
M  V30 10 C 2.983290 2.097906 -0.050941 0
M  V30 11 N 1.926004 1.480788 -0.769580 0
M  V30 12 C 1.015210 0.562074 -0.183335 0
M  V30 13 N 1.051843 0.179342 1.102647 0
M  V30 14 C 0.201462 -0.686703 1.673356 0
M  V30 15 N 0.269389 -1.069606 3.040961 0
M  V30 16 C -0.785555 -1.223494 0.875539 0
M  V30 17 C -1.839014 -2.123553 1.046881 0
M  V30 18 C -2.062669 -2.723469 2.331406 0
M  V30 19 N -2.226327 -3.217900 3.364050 0
M  V30 20 C -2.496561 -2.264115 -0.158106 0
M  V30 21 N -3.626670 -3.096871 -0.357589 0
M  V30 22 C -4.325417 -3.301866 -1.608729 0
M  V30 23 C -5.660826 -3.895426 -1.315250 0
M  V30 24 C -5.777593 -3.922295 0.169167 0
M  V30 25 C -4.328277 -3.909020 0.613120 0 CFG=1
M  V30 26 C -3.777032 -5.291150 0.729570 0
M  V30 27 N -1.896332 -1.480503 -1.101291 0
M  V30 28 C -2.223274 -1.300759 -2.480570 0
M  V30 29 C -0.864972 -0.861896 -0.450973 0
M  V30 30 N 0.036672 0.012664 -0.920301 0
M  V30 31 H 4.927879 3.151515 -2.438809 0
M  V30 32 H 3.070991 3.236590 -2.472679 0
M  V30 33 H 4.101321 4.635237 -1.938642 0
M  V30 34 H 5.650976 3.971575 2.804516 0
M  V30 35 H 7.179601 2.015887 3.056692 0
M  V30 36 H 5.817702 0.877135 2.687462 0
M  V30 37 H 3.735126 1.736088 3.806575 0
M  V30 38 H 4.063511 3.327408 4.650106 0
M  V30 39 H 2.890344 1.365863 1.997555 0
M  V30 40 H 1.814226 1.714195 -1.776624 0
M  V30 41 H -0.240669 -0.425809 3.708578 0
M  V30 42 H 0.848955 -1.936415 2.945264 0
M  V30 43 H -4.538200 -2.333301 -2.133737 0
M  V30 44 H -3.760645 -3.981489 -2.288667 0
M  V30 45 H -6.528782 -3.270760 -1.682578 0
M  V30 46 H -5.814427 -4.889111 -1.788159 0
M  V30 47 H -6.283409 -4.831122 0.556293 0
M  V30 48 H -6.258693 -3.005350 0.531181 0
M  V30 49 H -4.340405 -3.426569 1.622813 0
M  V30 50 H -3.755745 -5.607132 1.804619 0
M  V30 51 H -4.525585 -5.992392 0.264820 0
M  V30 52 H -2.827473 -5.470054 0.206990 0
M  V30 53 H -2.341252 -2.239641 -3.063233 0
M  V30 54 H -3.041825 -0.557788 -2.669261 0
M  V30 55 H -1.332010 -0.810320 -2.980105 0
M  V30 END ATOM
M  V30 BEGIN BOND
M  V30 1 1 1 2
M  V30 2 2 2 3
M  V30 3 1 3 4
M  V30 4 1 4 5
M  V30 5 1 5 6
M  V30 6 1 6 7
M  V30 7 1 7 8
M  V30 8 1 4 9
M  V30 9 2 9 10
M  V30 10 1 10 11
M  V30 11 1 11 12
M  V30 12 2 12 13
M  V30 13 1 13 14
M  V30 14 1 14 15
M  V30 15 2 14 16
M  V30 16 1 16 17
M  V30 17 1 17 18
M  V30 18 3 18 19
M  V30 19 2 17 20
M  V30 20 1 20 21
M  V30 21 1 21 22
M  V30 22 1 22 23
M  V30 23 1 23 24
M  V30 24 1 24 25
M  V30 25 1 25 26
M  V30 26 1 20 27
M  V30 27 1 27 28
M  V30 28 1 27 29
M  V30 29 2 29 30
M  V30 30 1 10 2
M  V30 31 1 30 12
M  V30 32 1 8 5
M  V30 33 1 29 16
M  V30 34 1 25 21
M  V30 35 1 1 31
M  V30 36 1 1 32
M  V30 37 1 1 33
M  V30 38 1 5 34
M  V30 39 1 6 35
M  V30 40 1 6 36
M  V30 41 1 8 37
M  V30 42 1 8 38
M  V30 43 1 9 39
M  V30 44 1 11 40
M  V30 45 1 15 41
M  V30 46 1 15 42
M  V30 47 1 22 43
M  V30 48 1 22 44
M  V30 49 1 23 45
M  V30 50 1 23 46
M  V30 51 1 24 47
M  V30 52 1 24 48
M  V30 53 1 25 49 CFG=1
M  V30 54 1 26 50
M  V30 55 1 26 51
M  V30 56 1 26 52
M  V30 57 1 28 53
M  V30 58 1 28 54
M  V30 59 1 28 55
M  V30 END BOND
M  V30 END CTAB
M  END
>  <Dataset>  (684) 
ChEMBL_Kinases

>  <Ligand_Instance>  (684) 
nan

>  <PDB_ID>  (684) 
nan

>  <Standardized_SMILES>  (684) 
Cc1nn(C2COC2)cc1Nc1nc(N)c2c(C#N)c(N3CCC[C@H]3C)n(C)c2n1

>  <Name>  (684) 
nan

>  <Pocket>  (684) 
nan

>  <ATP_Site>  (684) 
nan

>  <Peripheral>  (684) 
nan

>  <Num_H_Atoms_ProtBoundConf>  (684) 
nan

>  <Num_Resolved_Atoms>  (684) 
nan

>  <Num_Not_Resolved_Atoms>  (684) 
nan

$$$$
CHEMBL5075876
     RDKit          3D

  0  0  0  0  0  0  0  0  0  0999 V3000
M  V30 BEGIN CTAB
M  V30 COUNTS 43 45 0 0 0
M  V30 BEGIN ATOM
M  V30 1 C -1.479956 -4.821650 1.034812 0
M  V30 2 C 0.012215 -4.884709 1.216707 0
M  V30 3 C 0.657147 -4.546990 -0.078335 0
M  V30 4 C 1.242430 -5.465504 -0.957781 0
M  V30 5 N 1.707801 -4.741388 -2.011441 0
M  V30 6 C 1.436939 -3.436312 -1.819069 0
M  V30 7 N 1.695905 -2.351162 -2.570682 0
M  V30 8 C 1.323742 -1.102479 -2.172389 0
M  V30 9 C 0.662028 -0.925717 -0.967915 0
M  V30 10 C 0.277832 0.427738 -0.559031 0
M  V30 11 C -0.333104 1.267064 -1.463754 0
M  V30 12 C -0.675910 2.534368 -1.040757 0
M  V30 13 C -0.445617 3.028158 0.247624 0
M  V30 14 N -0.825761 4.346715 0.617577 0
M  V30 15 C 0.168147 2.121483 1.082346 0
M  V30 16 C 0.415121 2.617125 2.427515 0
M  V30 17 O 0.095918 3.778970 2.779649 0
M  V30 18 N 0.963744 2.197441 3.651229 0
M  V30 19 C 0.880385 3.255213 4.619780 0
M  V30 20 C 1.546454 0.899697 3.959729 0
M  V30 21 C 0.539852 0.841333 0.732764 0
M  V30 22 C 0.367923 -2.014958 -0.149309 0
M  V30 23 Cl -0.458649 -1.840899 1.358766 0
M  V30 24 C 0.769675 -3.255189 -0.605531 0
M  V30 25 H -1.996018 -4.359570 1.887983 0
M  V30 26 H -1.726617 -4.257642 0.100573 0
M  V30 27 H -1.888941 -5.848451 0.849094 0
M  V30 28 H 0.266127 -5.929509 1.492654 0
M  V30 29 H 0.371571 -4.275070 2.065243 0
M  V30 30 H 1.309232 -6.538876 -0.821725 0
M  V30 31 H 2.195796 -5.176435 -2.825148 0
M  V30 32 H 1.574006 -0.276989 -2.844324 0
M  V30 33 H -0.547130 0.967313 -2.474789 0
M  V30 34 H -1.161328 3.194755 -1.766651 0
M  V30 35 H -0.082445 5.024391 0.270418 0
M  V30 36 H -1.651468 4.718259 1.133102 0
M  V30 37 H 1.418996 2.930347 5.529262 0
M  V30 38 H -0.166865 3.469110 4.958624 0
M  V30 39 H 1.359462 4.202314 4.288337 0
M  V30 40 H 1.879327 0.872196 5.033528 0
M  V30 41 H 0.814277 0.074940 3.858591 0
M  V30 42 H 2.444604 0.680651 3.344153 0
M  V30 43 H 1.018121 0.220536 1.477360 0
M  V30 END ATOM
M  V30 BEGIN BOND
M  V30 1 1 1 2
M  V30 2 1 2 3
M  V30 3 2 3 4
M  V30 4 1 4 5
M  V30 5 1 5 6
M  V30 6 2 6 7
M  V30 7 1 7 8
M  V30 8 2 8 9
M  V30 9 1 9 10
M  V30 10 2 10 11
M  V30 11 1 11 12
M  V30 12 2 12 13
M  V30 13 1 13 14
M  V30 14 1 13 15
M  V30 15 1 15 16
M  V30 16 2 16 17
M  V30 17 1 16 18
M  V30 18 1 18 19
M  V30 19 1 18 20
M  V30 20 2 15 21
M  V30 21 1 9 22
M  V30 22 1 22 23
M  V30 23 2 22 24
M  V30 24 1 24 3
M  V30 25 1 24 6
M  V30 26 1 21 10
M  V30 27 1 1 25
M  V30 28 1 1 26
M  V30 29 1 1 27
M  V30 30 1 2 28
M  V30 31 1 2 29
M  V30 32 1 4 30
M  V30 33 1 5 31
M  V30 34 1 8 32
M  V30 35 1 11 33
M  V30 36 1 12 34
M  V30 37 1 14 35
M  V30 38 1 14 36
M  V30 39 1 19 37
M  V30 40 1 19 38
M  V30 41 1 19 39
M  V30 42 1 20 40
M  V30 43 1 20 41
M  V30 44 1 20 42
M  V30 45 1 21 43
M  V30 END BOND
M  V30 END CTAB
M  END
>  <Dataset>  (685) 
ChEMBL_Kinases

>  <Ligand_Instance>  (685) 
nan

>  <PDB_ID>  (685) 
nan

>  <Standardized_SMILES>  (685) 
CCc1c[nH]c2ncc(-c3ccc(N)c(C(=O)N(C)C)c3)c(Cl)c12

>  <Name>  (685) 
nan

>  <Pocket>  (685) 
nan

>  <ATP_Site>  (685) 
nan

>  <Peripheral>  (685) 
nan

>  <Num_H_Atoms_ProtBoundConf>  (685) 
nan

>  <Num_Resolved_Atoms>  (685) 
nan

>  <Num_Not_Resolved_Atoms>  (685) 
nan

$$$$
CHEMBL5075884
     RDKit          3D

  0  0  0  0  0  0  0  0  0  0999 V3000
M  V30 BEGIN CTAB
M  V30 COUNTS 41 43 0 0 0
M  V30 BEGIN ATOM
M  V30 1 C -0.764798 -5.226995 1.609151 0
M  V30 2 C 0.246880 -5.453091 0.490585 0
M  V30 3 C 1.482237 -4.651023 0.807914 0
M  V30 4 C 2.659432 -5.171411 1.303906 0
M  V30 5 N 3.497269 -4.118320 1.447675 0
M  V30 6 C 2.878620 -2.986191 1.060653 0
M  V30 7 N 3.239089 -1.706868 1.000138 0
M  V30 8 C 2.381609 -0.746664 0.553017 0
M  V30 9 C 1.087460 -1.028124 0.133892 0
M  V30 10 C 0.285714 0.098088 -0.319371 0
M  V30 11 C -0.685047 -0.079760 -1.308080 0
M  V30 12 C -1.440673 0.992923 -1.730681 0
M  V30 13 C -1.285207 2.266002 -1.216330 0
M  V30 14 C -0.339251 2.447624 -0.250954 0
M  V30 15 C 0.027698 3.690577 0.461685 0
M  V30 16 O 0.735565 4.678401 0.085432 0
M  V30 17 N -0.470438 3.848084 1.791362 0
M  V30 18 C -0.143662 5.046152 2.549227 0
M  V30 19 C -1.312658 2.826911 2.417239 0
M  V30 20 C 0.441234 1.375603 0.196505 0
M  V30 21 C 0.679241 -2.343178 0.182371 0
M  V30 22 C 1.591508 -3.273397 0.644157 0
M  V30 23 H -1.803454 -5.302518 1.236767 0
M  V30 24 H -0.595506 -5.956131 2.428108 0
M  V30 25 H -0.597539 -4.205735 2.030417 0
M  V30 26 H 0.504597 -6.505560 0.355600 0
M  V30 27 H -0.150883 -5.086011 -0.470963 0
M  V30 28 H 2.903281 -6.205150 1.543258 0
M  V30 29 H 4.485067 -4.207886 1.815800 0
M  V30 30 H 2.854116 0.235940 0.575526 0
M  V30 31 H -0.836826 -1.060569 -1.734812 0
M  V30 32 H -2.210090 0.889179 -2.501476 0
M  V30 33 H -1.822130 3.159296 -1.476455 0
M  V30 34 H 0.547203 4.807799 3.394977 0
M  V30 35 H 0.228441 5.861688 1.914548 0
M  V30 36 H -1.102282 5.419877 3.011659 0
M  V30 37 H -0.740532 1.862399 2.463490 0
M  V30 38 H -2.232118 2.709559 1.803639 0
M  V30 39 H -1.568438 3.135463 3.442264 0
M  V30 40 H 1.208798 1.429864 0.951686 0
M  V30 41 H -0.310690 -2.562900 -0.138444 0
M  V30 END ATOM
M  V30 BEGIN BOND
M  V30 1 1 1 2
M  V30 2 1 2 3
M  V30 3 2 3 4
M  V30 4 1 4 5
M  V30 5 1 5 6
M  V30 6 2 6 7
M  V30 7 1 7 8
M  V30 8 2 8 9
M  V30 9 1 9 10
M  V30 10 2 10 11
M  V30 11 1 11 12
M  V30 12 2 12 13
M  V30 13 1 13 14
M  V30 14 1 14 15
M  V30 15 2 15 16
M  V30 16 1 15 17
M  V30 17 1 17 18
M  V30 18 1 17 19
M  V30 19 2 14 20
M  V30 20 1 9 21
M  V30 21 2 21 22
M  V30 22 1 22 3
M  V30 23 1 22 6
M  V30 24 1 20 10
M  V30 25 1 1 23
M  V30 26 1 1 24
M  V30 27 1 1 25
M  V30 28 1 2 26
M  V30 29 1 2 27
M  V30 30 1 4 28
M  V30 31 1 5 29
M  V30 32 1 8 30
M  V30 33 1 11 31
M  V30 34 1 12 32
M  V30 35 1 13 33
M  V30 36 1 18 34
M  V30 37 1 18 35
M  V30 38 1 18 36
M  V30 39 1 19 37
M  V30 40 1 19 38
M  V30 41 1 19 39
M  V30 42 1 20 40
M  V30 43 1 21 41
M  V30 END BOND
M  V30 END CTAB
M  END
>  <Dataset>  (686) 
ChEMBL_Kinases

>  <Ligand_Instance>  (686) 
nan

>  <PDB_ID>  (686) 
nan

>  <Standardized_SMILES>  (686) 
CCc1c[nH]c2ncc(-c3cccc(C(=O)N(C)C)c3)cc12

>  <Name>  (686) 
nan

>  <Pocket>  (686) 
nan

>  <ATP_Site>  (686) 
nan

>  <Peripheral>  (686) 
nan

>  <Num_H_Atoms_ProtBoundConf>  (686) 
nan

>  <Num_Resolved_Atoms>  (686) 
nan

>  <Num_Not_Resolved_Atoms>  (686) 
nan

$$$$
CHEMBL5075978
     RDKit          3D

  0  0  0  0  0  0  0  0  0  0999 V3000
M  V30 BEGIN CTAB
M  V30 COUNTS 47 50 0 0 0
M  V30 BEGIN ATOM
M  V30 1 C 2.568004 -3.242209 -0.714633 0
M  V30 2 C 1.187491 -3.097837 -1.298943 0 CFG=2
M  V30 3 C 1.026963 -3.956645 -2.538497 0
M  V30 4 C 1.435231 -3.027628 -3.646399 0
M  V30 5 C 0.890625 -1.651287 -3.269304 0
M  V30 6 N 0.912140 -1.771212 -1.811194 0
M  V30 7 C 0.663938 -0.652180 -0.962398 0
M  V30 8 C 1.327494 0.544442 -0.837259 0
M  V30 9 C 2.460784 0.931622 -1.585920 0
M  V30 10 N 3.376366 1.261985 -2.207505 0
M  V30 11 C 0.680773 1.274076 0.139311 0
M  V30 12 C 0.852791 2.514899 0.708204 0
M  V30 13 N 1.915027 3.314211 0.253415 0
M  V30 14 N 0.018729 2.971883 1.684009 0
M  V30 15 C -0.995993 2.193333 2.101045 0
M  V30 16 N -2.037993 2.296927 3.063424 0
M  V30 17 C -1.738129 1.554602 4.239336 0
M  V30 18 C -0.552950 0.965260 4.614306 0
M  V30 19 N -0.692470 0.303911 5.807242 0
M  V30 20 N -1.961308 0.463283 6.203604 0
M  V30 21 C -2.467628 -0.131007 7.439965 0
M  V30 22 C -2.596450 1.202712 5.287698 0
M  V30 23 N -1.165909 0.982084 1.546098 0
M  V30 24 C -0.365439 0.472494 0.570303 0
M  V30 25 N -0.363221 -0.714018 -0.118818 0
M  V30 26 C -1.372722 -1.699155 0.178426 0
M  V30 27 H 3.198719 -3.930328 -1.314751 0
M  V30 28 H 3.116719 -2.304519 -0.615253 0
M  V30 29 H 2.551085 -3.695236 0.315020 0
M  V30 30 H 0.472049 -3.395479 -0.502342 0
M  V30 31 H -0.010616 -4.316778 -2.636293 0
M  V30 32 H 1.678499 -4.832487 -2.421226 0
M  V30 33 H 2.522041 -3.030898 -3.807511 0
M  V30 34 H 0.887331 -3.350736 -4.567208 0
M  V30 35 H -0.141484 -1.489772 -3.642974 0
M  V30 36 H 1.598888 -0.869940 -3.600121 0
M  V30 37 H 2.909290 3.570765 0.424416 0
M  V30 38 H 1.951332 3.985404 -0.572953 0
M  V30 39 H -2.937756 2.816110 3.018019 0
M  V30 40 H 0.385227 1.001683 4.072987 0
M  V30 41 H -1.694936 -0.302732 8.188253 0
M  V30 42 H -3.340354 0.451808 7.754961 0
M  V30 43 H -2.832976 -1.168449 7.162205 0
M  V30 44 H -3.629578 1.502298 5.311999 0
M  V30 45 H -1.127064 -2.421410 0.954431 0
M  V30 46 H -1.640409 -2.248253 -0.752213 0
M  V30 47 H -2.332067 -1.219871 0.506637 0
M  V30 END ATOM
M  V30 BEGIN BOND
M  V30 1 1 1 2
M  V30 2 1 2 3
M  V30 3 1 3 4
M  V30 4 1 4 5
M  V30 5 1 5 6
M  V30 6 1 6 7
M  V30 7 2 7 8
M  V30 8 1 8 9
M  V30 9 3 9 10
M  V30 10 1 8 11
M  V30 11 2 11 12
M  V30 12 1 12 13
M  V30 13 1 12 14
M  V30 14 2 14 15
M  V30 15 1 15 16
M  V30 16 1 16 17
M  V30 17 1 17 18
M  V30 18 2 18 19
M  V30 19 1 19 20
M  V30 20 1 20 21
M  V30 21 1 20 22
M  V30 22 1 15 23
M  V30 23 2 23 24
M  V30 24 1 24 25
M  V30 25 1 25 26
M  V30 26 1 6 2
M  V30 27 1 25 7
M  V30 28 1 24 11
M  V30 29 2 22 17
M  V30 30 1 1 27
M  V30 31 1 1 28
M  V30 32 1 1 29
M  V30 33 1 2 30 CFG=1
M  V30 34 1 3 31
M  V30 35 1 3 32
M  V30 36 1 4 33
M  V30 37 1 4 34
M  V30 38 1 5 35
M  V30 39 1 5 36
M  V30 40 1 13 37
M  V30 41 1 13 38
M  V30 42 1 16 39
M  V30 43 1 18 40
M  V30 44 1 21 41
M  V30 45 1 21 42
M  V30 46 1 21 43
M  V30 47 1 22 44
M  V30 48 1 26 45
M  V30 49 1 26 46
M  V30 50 1 26 47
M  V30 END BOND
M  V30 END CTAB
M  END
>  <Dataset>  (687) 
ChEMBL_Kinases

>  <Ligand_Instance>  (687) 
nan

>  <PDB_ID>  (687) 
nan

>  <Standardized_SMILES>  (687) 
C[C@@H]1CCCN1c1c(C#N)c2c(N)nc(Nc3cnn(C)c3)nc2n1C

>  <Name>  (687) 
nan

>  <Pocket>  (687) 
nan

>  <ATP_Site>  (687) 
nan

>  <Peripheral>  (687) 
nan

>  <Num_H_Atoms_ProtBoundConf>  (687) 
nan

>  <Num_Resolved_Atoms>  (687) 
nan

>  <Num_Not_Resolved_Atoms>  (687) 
nan

$$$$
CHEMBL3787093
     RDKit          3D

  0  0  0  0  0  0  0  0  0  0999 V3000
M  V30 BEGIN CTAB
M  V30 COUNTS 48 51 0 0 0
M  V30 BEGIN ATOM
M  V30 1 C 2.994219 -4.335163 3.059881 0
M  V30 2 O 3.181131 -3.374658 2.064008 0
M  V30 3 C 4.168612 -3.383385 1.095939 0
M  V30 4 O 5.030726 -4.294775 1.014084 0
M  V30 5 C 4.215875 -2.289861 0.125679 0
M  V30 6 C 5.179917 -2.249002 -0.861117 0
M  V30 7 C 5.191801 -1.191652 -1.765890 0
M  V30 8 C 4.252822 -0.167133 -1.703663 0
M  V30 9 C 3.311098 -0.253130 -0.700787 0
M  V30 10 N 2.287847 0.735147 -0.524730 0
M  V30 11 C 1.317762 0.640841 0.513271 0
M  V30 12 O 1.359787 -0.339970 1.300262 0
M  V30 13 N 0.289938 1.625037 0.697290 0
M  V30 14 C -0.548952 1.296819 1.803282 0
M  V30 15 C -0.219005 1.766492 3.079584 0
M  V30 16 C -1.035441 1.450119 4.171266 0
M  V30 17 C -2.162503 0.681500 4.010762 0
M  V30 18 C -2.503707 0.209531 2.759902 0
M  V30 19 C -1.691034 0.529160 1.696929 0
M  V30 20 C -2.210570 -0.062250 0.431696 0
M  V30 21 C -2.542687 0.979212 -0.610356 0
M  V30 22 C -4.018139 0.982530 -0.941592 0
M  V30 23 C -4.574278 -0.372345 -1.246848 0
M  V30 24 C -4.115612 -1.449295 -0.281044 0
M  V30 25 N -3.417440 -0.777958 0.799188 0
M  V30 26 C -3.583125 -0.605998 2.207285 0
M  V30 27 O -4.536115 -1.098150 2.864244 0
M  V30 28 N 3.326155 -1.290618 0.160595 0
M  V30 29 H 2.684036 -3.766057 3.983951 0
M  V30 30 H 2.189688 -5.066783 2.830054 0
M  V30 31 H 3.951979 -4.858817 3.284077 0
M  V30 32 H 5.933262 -3.043737 -0.934049 0
M  V30 33 H 5.957974 -1.178267 -2.534029 0
M  V30 34 H 4.241806 0.662688 -2.393650 0
M  V30 35 H 2.258007 1.558774 -1.190987 0
M  V30 36 H 0.303616 2.413405 0.017860 0
M  V30 37 H 0.667747 2.365346 3.176312 0
M  V30 38 H -0.723760 1.840950 5.111422 0
M  V30 39 H -2.797807 0.433492 4.851065 0
M  V30 40 H -1.498359 -0.766768 -0.007855 0
M  V30 41 H -2.308056 1.963441 -0.166558 0
M  V30 42 H -1.945785 0.859037 -1.516103 0
M  V30 43 H -4.562434 1.511193 -0.137404 0
M  V30 44 H -4.142698 1.600331 -1.866253 0
M  V30 45 H -5.691935 -0.293489 -1.112924 0
M  V30 46 H -4.450040 -0.662264 -2.310444 0
M  V30 47 H -4.943381 -2.078138 0.044597 0
M  V30 48 H -3.328914 -2.022594 -0.853481 0
M  V30 END ATOM
M  V30 BEGIN BOND
M  V30 1 1 1 2
M  V30 2 1 2 3
M  V30 3 2 3 4
M  V30 4 1 3 5
M  V30 5 2 5 6
M  V30 6 1 6 7
M  V30 7 2 7 8
M  V30 8 1 8 9
M  V30 9 1 9 10
M  V30 10 1 10 11
M  V30 11 2 11 12
M  V30 12 1 11 13
M  V30 13 1 13 14
M  V30 14 2 14 15
M  V30 15 1 15 16
M  V30 16 2 16 17
M  V30 17 1 17 18
M  V30 18 2 18 19
M  V30 19 1 19 20
M  V30 20 1 20 21
M  V30 21 1 21 22
M  V30 22 1 22 23
M  V30 23 1 23 24
M  V30 24 1 24 25
M  V30 25 1 25 26
M  V30 26 2 26 27
M  V30 27 2 9 28
M  V30 28 1 28 5
M  V30 29 1 19 14
M  V30 30 1 25 20
M  V30 31 1 26 18
M  V30 32 1 1 29
M  V30 33 1 1 30
M  V30 34 1 1 31
M  V30 35 1 6 32
M  V30 36 1 7 33
M  V30 37 1 8 34
M  V30 38 1 10 35
M  V30 39 1 13 36
M  V30 40 1 15 37
M  V30 41 1 16 38
M  V30 42 1 17 39
M  V30 43 1 20 40
M  V30 44 1 21 41
M  V30 45 1 21 42
M  V30 46 1 22 43
M  V30 47 1 22 44
M  V30 48 1 23 45
M  V30 49 1 23 46
M  V30 50 1 24 47
M  V30 51 1 24 48
M  V30 END BOND
M  V30 END CTAB
M  END
>  <Dataset>  (688) 
ChEMBL_Kinases

>  <Ligand_Instance>  (688) 
nan

>  <PDB_ID>  (688) 
nan

>  <Standardized_SMILES>  (688) 
COC(=O)c1cccc(NC(=O)Nc2cccc3c2C2CCCCN2C3=O)n1

>  <Name>  (688) 
nan

>  <Pocket>  (688) 
nan

>  <ATP_Site>  (688) 
nan

>  <Peripheral>  (688) 
nan

>  <Num_H_Atoms_ProtBoundConf>  (688) 
nan

>  <Num_Resolved_Atoms>  (688) 
nan

>  <Num_Not_Resolved_Atoms>  (688) 
nan

$$$$
CHEMBL5075992
     RDKit          3D

  0  0  0  0  0  0  0  0  0  0999 V3000
M  V30 BEGIN CTAB
M  V30 COUNTS 43 46 0 0 0
M  V30 BEGIN ATOM
M  V30 1 N -0.452550 -6.134799 4.279773 0
M  V30 2 C -0.027514 -4.828381 3.916474 0
M  V30 3 O 0.080817 -4.119263 4.944036 0
M  V30 4 C 0.241493 -4.376210 2.570852 0
M  V30 5 C 0.645496 -3.083496 2.377514 0
M  V30 6 C 0.913109 -2.609262 1.111202 0
M  V30 7 C 1.345584 -1.241613 0.855897 0
M  V30 8 C 1.538435 -0.271409 1.815617 0
M  V30 9 C 1.950612 1.004830 1.490806 0
M  V30 10 C 2.191665 1.376458 0.184118 0
M  V30 11 N 2.616945 2.649733 -0.279076 0
M  V30 12 S 1.852163 4.063296 0.352003 0
M  V30 13 O 2.411024 5.312127 -0.253060 0
M  V30 14 O 2.053987 4.069607 1.832078 0
M  V30 15 C 0.125479 4.073380 -0.028880 0
M  V30 16 C -0.813192 4.099060 1.010252 0
M  V30 17 C -2.144417 4.106026 0.666769 0
M  V30 18 C -2.554353 4.088505 -0.652559 0
M  V30 19 C -1.603302 4.063155 -1.664050 0
M  V30 20 Cl -2.087840 4.040502 -3.342526 0
M  V30 21 C -0.237650 4.055208 -1.361051 0
M  V30 22 Cl 0.955632 4.023283 -2.637803 0
M  V30 23 C 2.007339 0.426217 -0.801405 0
M  V30 24 C 1.594281 -0.840876 -0.440512 0
M  V30 25 N 0.758248 -3.474778 0.083119 0
M  V30 26 C 0.361128 -4.744140 0.277196 0
M  V30 27 N 0.158800 -5.726756 -0.624474 0
M  V30 28 N -0.229655 -6.813631 0.026480 0
M  V30 29 C -0.285119 -6.554904 1.352402 0
M  V30 30 C 0.088473 -5.240487 1.528030 0
M  V30 31 H -1.275019 -6.754785 4.425558 0
M  V30 32 H -0.148933 -7.073896 4.567062 0
M  V30 33 H 0.751118 -2.440795 3.234663 0
M  V30 34 H 1.355724 -0.539723 2.845837 0
M  V30 35 H 2.104301 1.770117 2.233972 0
M  V30 36 H 3.385742 2.748489 -0.996305 0
M  V30 37 H -0.480893 4.112611 2.039448 0
M  V30 38 H -2.913943 4.125594 1.427784 0
M  V30 39 H -3.609057 4.094695 -0.883666 0
M  V30 40 H 2.174018 0.627873 -1.869643 0
M  V30 41 H 1.454303 -1.574671 -1.225209 0
M  V30 42 H 0.283922 -5.654932 -1.663050 0
M  V30 43 H -0.561433 -7.211343 2.163118 0
M  V30 END ATOM
M  V30 BEGIN BOND
M  V30 1 1 1 2
M  V30 2 2 2 3
M  V30 3 1 2 4
M  V30 4 2 4 5
M  V30 5 1 5 6
M  V30 6 1 6 7
M  V30 7 2 7 8
M  V30 8 1 8 9
M  V30 9 2 9 10
M  V30 10 1 10 11
M  V30 11 1 11 12
M  V30 12 2 12 13
M  V30 13 2 12 14
M  V30 14 1 12 15
M  V30 15 2 15 16
M  V30 16 1 16 17
M  V30 17 2 17 18
M  V30 18 1 18 19
M  V30 19 1 19 20
M  V30 20 2 19 21
M  V30 21 1 21 22
M  V30 22 1 10 23
M  V30 23 2 23 24
M  V30 24 2 6 25
M  V30 25 1 25 26
M  V30 26 1 26 27
M  V30 27 1 27 28
M  V30 28 2 28 29
M  V30 29 1 29 30
M  V30 30 1 30 4
M  V30 31 1 24 7
M  V30 32 2 30 26
M  V30 33 1 21 15
M  V30 34 1 1 31
M  V30 35 1 1 32
M  V30 36 1 5 33
M  V30 37 1 8 34
M  V30 38 1 9 35
M  V30 39 1 11 36
M  V30 40 1 16 37
M  V30 41 1 17 38
M  V30 42 1 18 39
M  V30 43 1 23 40
M  V30 44 1 24 41
M  V30 45 1 27 42
M  V30 46 1 29 43
M  V30 END BOND
M  V30 END CTAB
M  END
>  <Dataset>  (689) 
ChEMBL_Kinases

>  <Ligand_Instance>  (689) 
nan

>  <PDB_ID>  (689) 
nan

>  <Standardized_SMILES>  (689) 
NC(=O)c1cc(-c2ccc(NS(=O)(=O)c3cccc(Cl)c3Cl)cc2)nc2[nH]ncc12

>  <Name>  (689) 
nan

>  <Pocket>  (689) 
nan

>  <ATP_Site>  (689) 
nan

>  <Peripheral>  (689) 
nan

>  <Num_H_Atoms_ProtBoundConf>  (689) 
nan

>  <Num_Resolved_Atoms>  (689) 
nan

>  <Num_Not_Resolved_Atoms>  (689) 
nan

$$$$
CHEMBL5076006
     RDKit          3D

  0  0  0  0  0  0  0  0  0  0999 V3000
M  V30 BEGIN CTAB
M  V30 COUNTS 51 55 0 0 0
M  V30 BEGIN ATOM
M  V30 1 C 1.635384 -1.196056 3.999147 0
M  V30 2 C 2.283092 -0.113640 3.241811 0
M  V30 3 C 3.570806 0.225067 3.600190 0
M  V30 4 N 4.203105 1.212137 2.932058 0
M  V30 5 C 3.526797 1.823038 1.932892 0
M  V30 6 N 4.231067 2.853035 1.255652 0
M  V30 7 C 5.012255 2.917258 0.074035 0
M  V30 8 C 5.636788 4.045457 -0.407669 0
M  V30 9 C 6.250547 3.588356 -1.568085 0
M  V30 10 N 5.974065 2.264016 -1.716761 0
M  V30 11 N 5.219803 1.858890 -0.714901 0
M  V30 12 C 4.791678 0.480142 -0.657784 0
M  V30 13 N 2.258245 1.505291 1.563444 0
M  V30 14 C 1.588635 0.511515 2.217602 0
M  V30 15 C 0.230288 0.103348 1.879699 0
M  V30 16 C -0.939794 -0.176840 2.555833 0
M  V30 17 C -1.885662 -0.522539 1.603520 0
M  V30 18 N -1.314712 -0.458088 0.364425 0
M  V30 19 C -0.026277 -0.078320 0.515557 0
M  V30 20 C -2.342991 -0.828171 -0.576956 0
M  V30 21 O -2.180132 -0.882892 -1.844475 0
M  V30 22 N -3.559379 -1.120603 0.127565 0
M  V30 23 C -4.757763 -1.523065 -0.555661 0
M  V30 24 C -4.852405 -3.004542 -0.702330 0
M  V30 25 C -5.482464 -3.711663 0.301779 0
M  V30 26 C -5.608351 -5.104398 0.232535 0
M  V30 27 C -5.074184 -5.719427 -0.880188 0
M  V30 28 F -5.165598 -7.078500 -1.006197 0
M  V30 29 C -4.445358 -5.017902 -1.883123 0
M  V30 30 F -3.943711 -5.706843 -2.953368 0
M  V30 31 C -4.328811 -3.646251 -1.801709 0
M  V30 32 C -3.313086 -0.933367 1.545341 0
M  V30 33 H 1.288070 -0.811913 4.985570 0
M  V30 34 H 2.371046 -2.019730 4.243083 0
M  V30 35 H 0.835666 -1.708883 3.429744 0
M  V30 36 H 4.070498 -0.309480 4.423299 0
M  V30 37 H 4.073782 3.715892 1.843566 0
M  V30 38 H 5.608079 5.025690 0.068896 0
M  V30 39 H 6.843981 4.235398 -2.212190 0
M  V30 40 H 5.593646 -0.217938 -0.984895 0
M  V30 41 H 3.935063 0.334786 -1.373039 0
M  V30 42 H 4.490154 0.180737 0.353472 0
M  V30 43 H -0.927106 -0.089043 3.619651 0
M  V30 44 H 0.603406 0.029839 -0.382454 0
M  V30 45 H -4.800483 -1.083666 -1.587938 0
M  V30 46 H -5.664329 -1.186590 -0.030859 0
M  V30 47 H -5.875922 -3.187786 1.137461 0
M  V30 48 H -6.104635 -5.627191 1.031178 0
M  V30 49 H -3.838435 -3.081933 -2.580588 0
M  V30 50 H -3.541970 -1.836583 2.145837 0
M  V30 51 H -3.904687 -0.052758 1.920988 0
M  V30 END ATOM
M  V30 BEGIN BOND
M  V30 1 1 1 2
M  V30 2 2 2 3
M  V30 3 1 3 4
M  V30 4 2 4 5
M  V30 5 1 5 6
M  V30 6 1 6 7
M  V30 7 2 7 8
M  V30 8 1 8 9
M  V30 9 2 9 10
M  V30 10 1 10 11
M  V30 11 1 11 12
M  V30 12 1 5 13
M  V30 13 2 13 14
M  V30 14 1 14 15
M  V30 15 1 15 16
M  V30 16 2 16 17
M  V30 17 1 17 18
M  V30 18 1 18 19
M  V30 19 1 18 20
M  V30 20 2 20 21
M  V30 21 1 20 22
M  V30 22 1 22 23
M  V30 23 1 23 24
M  V30 24 2 24 25
M  V30 25 1 25 26
M  V30 26 2 26 27
M  V30 27 1 27 28
M  V30 28 1 27 29
M  V30 29 1 29 30
M  V30 30 2 29 31
M  V30 31 1 22 32
M  V30 32 1 14 2
M  V30 33 2 19 15
M  V30 34 1 31 24
M  V30 35 1 11 7
M  V30 36 1 32 17
M  V30 37 1 1 33
M  V30 38 1 1 34
M  V30 39 1 1 35
M  V30 40 1 3 36
M  V30 41 1 6 37
M  V30 42 1 8 38
M  V30 43 1 9 39
M  V30 44 1 12 40
M  V30 45 1 12 41
M  V30 46 1 12 42
M  V30 47 1 16 43
M  V30 48 1 19 44
M  V30 49 1 23 45
M  V30 50 1 23 46
M  V30 51 1 25 47
M  V30 52 1 26 48
M  V30 53 1 31 49
M  V30 54 1 32 50
M  V30 55 1 32 51
M  V30 END BOND
M  V30 END CTAB
M  END
>  <Dataset>  (690) 
ChEMBL_Kinases

>  <Ligand_Instance>  (690) 
nan

>  <PDB_ID>  (690) 
nan

>  <Standardized_SMILES>  (690) 
Cc1cnc(Nc2ccnn2C)nc1-c1cc2n(c1)C(=O)N(Cc1ccc(F)c(F)c1)C2

>  <Name>  (690) 
nan

>  <Pocket>  (690) 
nan

>  <ATP_Site>  (690) 
nan

>  <Peripheral>  (690) 
nan

>  <Num_H_Atoms_ProtBoundConf>  (690) 
nan

>  <Num_Resolved_Atoms>  (690) 
nan

>  <Num_Not_Resolved_Atoms>  (690) 
nan

$$$$
CHEMBL5076101
     RDKit          3D

  0  0  0  0  0  0  0  0  0  0999 V3000
M  V30 BEGIN CTAB
M  V30 COUNTS 64 66 0 0 0
M  V30 BEGIN ATOM
M  V30 1 C 4.157064 -1.547566 1.747453 0
M  V30 2 C 4.796463 -0.308003 1.157220 0
M  V30 3 C 4.342553 0.922712 1.822644 0
M  V30 4 C 5.120613 1.605672 2.738005 0
M  V30 5 C 4.724339 2.752146 3.402644 0
M  V30 6 O 5.575043 3.370973 4.306317 0
M  V30 7 C 3.455867 3.181642 3.078161 0
M  V30 8 F 3.040191 4.310143 3.720440 0
M  V30 9 C 2.628121 2.547534 2.174111 0
M  V30 10 C 3.083409 1.388186 1.529309 0
M  V30 11 C 2.094378 0.874601 0.595084 0
M  V30 12 C 0.818522 0.562159 1.079433 0
M  V30 13 C -0.281308 0.082282 0.359777 0
M  V30 14 N -1.543315 -0.216222 0.942050 0
M  V30 15 C -1.972525 -0.092052 2.306421 0 CFG=1
M  V30 16 C -1.050079 -0.859730 3.220047 0
M  V30 17 C -2.103995 1.311272 2.810894 0
M  V30 18 O -2.528427 1.326626 4.158271 0
M  V30 19 C -0.015733 -0.086370 -1.002035 0
M  V30 20 N -1.006578 -0.548539 -1.802513 0
M  V30 21 C -0.842343 -0.742274 -3.119845 0
M  V30 22 N -1.880724 -1.226264 -3.957558 0
M  V30 23 C -3.187717 -1.560076 -3.489286 0
M  V30 24 C -3.143520 -2.672780 -2.461724 0
M  V30 25 C -4.538921 -2.989098 -2.001348 0
M  V30 26 N -4.545881 -4.033507 -1.031947 0
M  V30 27 C -4.179617 -5.328997 -1.482355 0
M  V30 28 C -4.083790 -3.646083 0.259198 0
M  V30 29 N 0.369137 -0.454244 -3.627726 0
M  V30 30 C 1.396282 0.006932 -2.893748 0
M  V30 31 C 1.212578 0.200733 -1.542688 0
M  V30 32 C 2.240125 0.670236 -0.758646 0
M  V30 33 H 3.546089 -1.254715 2.632365 0
M  V30 34 H 3.423853 -1.924057 1.010232 0
M  V30 35 H 4.902735 -2.324783 2.009841 0
M  V30 36 H 5.898179 -0.435845 1.336512 0
M  V30 37 H 4.639073 -0.301011 0.085867 0
M  V30 38 H 6.089196 1.188042 2.918484 0
M  V30 39 H 6.569379 3.471101 4.169065 0
M  V30 40 H 1.656462 3.007842 2.025112 0
M  V30 41 H 0.682518 0.708873 2.141596 0
M  V30 42 H -2.231683 -0.580522 0.209273 0
M  V30 43 H -3.004659 -0.579943 2.331621 0
M  V30 44 H -0.566967 -0.182199 3.973271 0
M  V30 45 H -1.653626 -1.604514 3.764749 0
M  V30 46 H -0.254359 -1.415199 2.714561 0
M  V30 47 H -1.221837 1.939312 2.745046 0
M  V30 48 H -2.959628 1.791159 2.255815 0
M  V30 49 H -3.470844 1.529809 4.268076 0
M  V30 50 H -1.669829 -1.345269 -4.989398 0
M  V30 51 H -3.690210 -0.657107 -3.044711 0
M  V30 52 H -3.836168 -1.897060 -4.320342 0
M  V30 53 H -2.687762 -3.548264 -2.983152 0
M  V30 54 H -2.512244 -2.373900 -1.600926 0
M  V30 55 H -4.959690 -2.062077 -1.532976 0
M  V30 56 H -5.184208 -3.190098 -2.877108 0
M  V30 57 H -3.164393 -5.249791 -1.959088 0
M  V30 58 H -4.000238 -5.960707 -0.570829 0
M  V30 59 H -4.922648 -5.834409 -2.116852 0
M  V30 60 H -3.097438 -3.131013 0.198224 0
M  V30 61 H -4.006034 -4.464298 0.974102 0
M  V30 62 H -4.783742 -2.840421 0.631081 0
M  V30 63 H 2.365673 0.240292 -3.282861 0
M  V30 64 H 3.165308 0.893347 -1.218999 0
M  V30 END ATOM
M  V30 BEGIN BOND
M  V30 1 1 1 2
M  V30 2 1 2 3
M  V30 3 2 3 4
M  V30 4 1 4 5
M  V30 5 1 5 6
M  V30 6 2 5 7
M  V30 7 1 7 8
M  V30 8 1 7 9
M  V30 9 2 9 10
M  V30 10 1 10 11
M  V30 11 2 11 12
M  V30 12 1 12 13
M  V30 13 1 13 14
M  V30 14 1 14 15
M  V30 15 1 15 16
M  V30 16 1 15 17
M  V30 17 1 17 18
M  V30 18 2 13 19
M  V30 19 1 19 20
M  V30 20 2 20 21
M  V30 21 1 21 22
M  V30 22 1 22 23
M  V30 23 1 23 24
M  V30 24 1 24 25
M  V30 25 1 25 26
M  V30 26 1 26 27
M  V30 27 1 26 28
M  V30 28 1 21 29
M  V30 29 2 29 30
M  V30 30 1 30 31
M  V30 31 2 31 32
M  V30 32 1 10 3
M  V30 33 1 32 11
M  V30 34 1 31 19
M  V30 35 1 1 33
M  V30 36 1 1 34
M  V30 37 1 1 35
M  V30 38 1 2 36
M  V30 39 1 2 37
M  V30 40 1 4 38
M  V30 41 1 6 39
M  V30 42 1 9 40
M  V30 43 1 12 41
M  V30 44 1 14 42
M  V30 45 1 15 43 CFG=3
M  V30 46 1 16 44
M  V30 47 1 16 45
M  V30 48 1 16 46
M  V30 49 1 17 47
M  V30 50 1 17 48
M  V30 51 1 18 49
M  V30 52 1 22 50
M  V30 53 1 23 51
M  V30 54 1 23 52
M  V30 55 1 24 53
M  V30 56 1 24 54
M  V30 57 1 25 55
M  V30 58 1 25 56
M  V30 59 1 27 57
M  V30 60 1 27 58
M  V30 61 1 27 59
M  V30 62 1 28 60
M  V30 63 1 28 61
M  V30 64 1 28 62
M  V30 65 1 30 63
M  V30 66 1 32 64
M  V30 END BOND
M  V30 END CTAB
M  END
>  <Dataset>  (691) 
ChEMBL_Kinases

>  <Ligand_Instance>  (691) 
nan

>  <PDB_ID>  (691) 
nan

>  <Standardized_SMILES>  (691) 
CCc1cc(O)c(F)cc1-c1cc(N[C@@H](C)CO)c2nc(NCCCN(C)C)ncc2c1

>  <Name>  (691) 
nan

>  <Pocket>  (691) 
nan

>  <ATP_Site>  (691) 
nan

>  <Peripheral>  (691) 
nan

>  <Num_H_Atoms_ProtBoundConf>  (691) 
nan

>  <Num_Resolved_Atoms>  (691) 
nan

>  <Num_Not_Resolved_Atoms>  (691) 
nan

$$$$
CHEMBL507613
     RDKit          3D

  0  0  0  0  0  0  0  0  0  0999 V3000
M  V30 BEGIN CTAB
M  V30 COUNTS 30 33 0 0 0
M  V30 BEGIN ATOM
M  V30 1 C 0.668861 -0.163127 4.042434 0
M  V30 2 N 0.506770 -0.496187 2.634642 0
M  V30 3 C 0.554808 -1.731761 2.055353 0
M  V30 4 C 0.771869 -2.958072 2.691504 0
M  V30 5 C 0.792185 -4.134002 1.958498 0
M  V30 6 C 0.587985 -4.025559 0.579405 0
M  V30 7 O 0.612226 -5.223317 -0.141888 0
M  V30 8 C 0.380031 -2.788392 0.016478 0
M  V30 9 C 0.353806 -1.625198 0.697720 0
M  V30 10 C 0.183656 -0.291218 0.477377 0
M  V30 11 C -0.049291 0.389503 -0.679900 0
M  V30 12 C -0.188283 1.743721 -0.662422 0
M  V30 13 C -0.096971 2.462105 0.526977 0
M  V30 14 C 0.138842 1.767929 1.694722 0
M  V30 15 C 0.276853 0.402270 1.661677 0
M  V30 16 C -0.433068 2.314793 -1.986247 0
M  V30 17 O -0.602580 3.521799 -2.296919 0
M  V30 18 N -0.434939 1.180671 -2.846612 0
M  V30 19 C -0.204553 0.022780 -2.063981 0
M  V30 20 O -0.176441 -1.056927 -2.669320 0
M  V30 21 H 1.185031 0.817277 4.158939 0
M  V30 22 H -0.329542 -0.040488 4.527215 0
M  V30 23 H 1.217319 -0.964828 4.573328 0
M  V30 24 H 0.923389 -2.979880 3.758488 0
M  V30 25 H 0.959319 -5.070273 2.454283 0
M  V30 26 H -0.055158 -5.386419 -0.887642 0
M  V30 27 H 0.239615 -2.832405 -1.020374 0
M  V30 28 H -0.199152 3.524068 0.589433 0
M  V30 29 H 0.214093 2.289961 2.622672 0
M  V30 30 H -0.593806 1.314034 -3.882934 0
M  V30 END ATOM
M  V30 BEGIN BOND
M  V30 1 1 1 2
M  V30 2 1 2 3
M  V30 3 2 3 4
M  V30 4 1 4 5
M  V30 5 2 5 6
M  V30 6 1 6 7
M  V30 7 1 6 8
M  V30 8 2 8 9
M  V30 9 1 9 10
M  V30 10 2 10 11
M  V30 11 1 11 12
M  V30 12 2 12 13
M  V30 13 1 13 14
M  V30 14 2 14 15
M  V30 15 1 12 16
M  V30 16 2 16 17
M  V30 17 1 16 18
M  V30 18 1 18 19
M  V30 19 2 19 20
M  V30 20 1 15 2
M  V30 21 1 9 3
M  V30 22 1 15 10
M  V30 23 1 19 11
M  V30 24 1 1 21
M  V30 25 1 1 22
M  V30 26 1 1 23
M  V30 27 1 4 24
M  V30 28 1 5 25
M  V30 29 1 7 26
M  V30 30 1 8 27
M  V30 31 1 13 28
M  V30 32 1 14 29
M  V30 33 1 18 30
M  V30 END BOND
M  V30 END CTAB
M  END
>  <Dataset>  (692) 
ChEMBL_Kinases

>  <Ligand_Instance>  (692) 
nan

>  <PDB_ID>  (692) 
nan

>  <Standardized_SMILES>  (692) 
Cn1c2ccc(O)cc2c2c3c(ccc21)C(=O)NC3=O

>  <Name>  (692) 
nan

>  <Pocket>  (692) 
nan

>  <ATP_Site>  (692) 
nan

>  <Peripheral>  (692) 
nan

>  <Num_H_Atoms_ProtBoundConf>  (692) 
nan

>  <Num_Resolved_Atoms>  (692) 
nan

>  <Num_Not_Resolved_Atoms>  (692) 
nan

$$$$
CHEMBL5076145
     RDKit          3D

  0  0  0  0  0  0  0  0  0  0999 V3000
M  V30 BEGIN CTAB
M  V30 COUNTS 39 42 0 0 0
M  V30 BEGIN ATOM
M  V30 1 C -0.067127 -4.630915 3.857290 0
M  V30 2 C -0.283723 -3.233291 3.362981 0
M  V30 3 N 0.316148 -2.868621 2.216816 0
M  V30 4 C 0.173672 -1.630233 1.702186 0
M  V30 5 N 0.864579 -1.282858 0.514754 0
M  V30 6 C 1.651684 -2.320450 -0.124822 0
M  V30 7 C 2.338643 -1.868337 -1.361076 0
M  V30 8 C 1.599087 -2.041766 -2.700849 0
M  V30 9 S 2.873909 -1.340513 -3.780915 0
M  V30 10 C 4.106969 -0.951499 -2.388462 0
M  V30 11 N 3.550456 -1.342209 -1.204317 0
M  V30 12 C -0.623866 -0.784711 2.432714 0
M  V30 13 C -0.907194 0.516834 2.094573 0
M  V30 14 C -0.656331 1.465832 1.025330 0
M  V30 15 C -0.003949 2.622377 1.451151 0
M  V30 16 C 0.314659 3.698899 0.630274 0
M  V30 17 N -0.041933 3.592660 -0.659660 0
M  V30 18 C -0.672941 2.518587 -1.160757 0
M  V30 19 N -1.073939 2.351286 -2.514882 0
M  V30 20 C -0.981623 1.462786 -0.339788 0
M  V30 21 C -1.740427 0.953559 3.132988 0
M  V30 22 N -1.934339 -0.044305 4.029027 0
M  V30 23 C -1.252291 -1.126508 3.611228 0
M  V30 24 N -1.066446 -2.385508 4.072488 0
M  V30 25 H -0.129544 -4.650928 4.953207 0
M  V30 26 H -0.885508 -5.253566 3.415401 0
M  V30 27 H 0.878813 -5.017595 3.445291 0
M  V30 28 H 0.954541 -0.413484 -0.025103 0
M  V30 29 H 0.985966 -3.214704 -0.356452 0
M  V30 30 H 2.341261 -2.724153 0.644011 0
M  V30 31 H 0.655173 -2.464235 -2.716354 0
M  V30 32 H 5.068937 -0.504235 -2.513505 0
M  V30 33 H 0.314381 2.775872 2.484776 0
M  V30 34 H 0.821322 4.579753 0.995687 0
M  V30 35 H -0.587052 2.281539 -3.442098 0
M  V30 36 H -2.100782 2.271986 -2.692776 0
M  V30 37 H -1.490245 0.517844 -0.584268 0
M  V30 38 H -2.230915 1.904255 3.331462 0
M  V30 39 H -2.493059 -0.060251 4.908565 0
M  V30 END ATOM
M  V30 BEGIN BOND
M  V30 1 1 1 2
M  V30 2 2 2 3
M  V30 3 1 3 4
M  V30 4 1 4 5
M  V30 5 1 5 6
M  V30 6 1 6 7
M  V30 7 2 7 8
M  V30 8 1 8 9
M  V30 9 1 9 10
M  V30 10 2 10 11
M  V30 11 2 4 12
M  V30 12 1 12 13
M  V30 13 1 13 14
M  V30 14 2 14 15
M  V30 15 1 15 16
M  V30 16 2 16 17
M  V30 17 1 17 18
M  V30 18 1 18 19
M  V30 19 2 18 20
M  V30 20 2 13 21
M  V30 21 1 21 22
M  V30 22 1 22 23
M  V30 23 2 23 24
M  V30 24 1 24 2
M  V30 25 1 11 7
M  V30 26 1 23 12
M  V30 27 1 20 14
M  V30 28 1 1 25
M  V30 29 1 1 26
M  V30 30 1 1 27
M  V30 31 1 5 28
M  V30 32 1 6 29
M  V30 33 1 6 30
M  V30 34 1 8 31
M  V30 35 1 10 32
M  V30 36 1 15 33
M  V30 37 1 16 34
M  V30 38 1 19 35
M  V30 39 1 19 36
M  V30 40 1 20 37
M  V30 41 1 21 38
M  V30 42 1 22 39
M  V30 END BOND
M  V30 END CTAB
M  END
>  <Dataset>  (693) 
ChEMBL_Kinases

>  <Ligand_Instance>  (693) 
nan

>  <PDB_ID>  (693) 
nan

>  <Standardized_SMILES>  (693) 
Cc1nc(NCc2cscn2)c2c(-c3ccnc(N)c3)c[nH]c2n1

>  <Name>  (693) 
nan

>  <Pocket>  (693) 
nan

>  <ATP_Site>  (693) 
nan

>  <Peripheral>  (693) 
nan

>  <Num_H_Atoms_ProtBoundConf>  (693) 
nan

>  <Num_Resolved_Atoms>  (693) 
nan

>  <Num_Not_Resolved_Atoms>  (693) 
nan

$$$$
CHEMBL5076165
     RDKit          3D

  0  0  0  0  0  0  0  0  0  0999 V3000
M  V30 BEGIN CTAB
M  V30 COUNTS 43 45 0 0 0
M  V30 BEGIN ATOM
M  V30 1 C -0.915615 -1.600401 -3.706994 0
M  V30 2 C 0.327672 -0.796809 -3.452547 0
M  V30 3 N 1.248754 -0.432714 -4.354237 0
M  V30 4 N 2.211654 0.268584 -3.784927 0
M  V30 5 C 3.377169 0.832439 -4.439706 0
M  V30 6 C 4.458652 -0.249877 -4.362714 0
M  V30 7 F 3.959577 -1.354113 -5.025618 0
M  V30 8 F 5.634022 0.151199 -4.946047 0
M  V30 9 F 4.587951 -0.576150 -3.043944 0
M  V30 10 C 1.879964 0.344444 -2.484369 0
M  V30 11 C 0.698100 -0.307095 -2.196600 0
M  V30 12 N 0.020306 -0.457322 -0.978046 0
M  V30 13 C 0.460218 0.070981 0.261800 0
M  V30 14 N 1.590006 0.779880 0.391803 0
M  V30 15 C 2.013367 1.283875 1.563944 0
M  V30 16 C 1.282872 1.087827 2.716308 0
M  V30 17 Br 1.827992 1.775318 4.407269 0
M  V30 18 C 0.120497 0.357653 2.578725 0
M  V30 19 N -0.718021 0.094498 3.721919 0
M  V30 20 C -1.939931 -0.672503 3.580043 0
M  V30 21 C -2.657906 -0.824569 4.903996 0
M  V30 22 C -1.830595 -1.515099 5.909363 0
M  V30 23 C -0.934507 -1.047316 6.848173 0
M  V30 24 N -0.411168 -2.041560 7.553178 0
M  V30 25 C -0.956684 -3.190455 7.088521 0
M  V30 26 N -1.816128 -2.866414 6.092553 0
M  V30 27 N -0.255311 -0.122807 1.382298 0
M  V30 28 H -1.244301 -2.119457 -2.784730 0
M  V30 29 H -1.693915 -0.991239 -4.192427 0
M  V30 30 H -0.675557 -2.405053 -4.441128 0
M  V30 31 H 3.708329 1.762899 -3.970652 0
M  V30 32 H 3.130978 0.930208 -5.519719 0
M  V30 33 H 2.509585 0.871332 -1.790078 0
M  V30 34 H -0.882133 -1.004725 -0.993051 0
M  V30 35 H 2.927594 1.855571 1.659906 0
M  V30 36 H -0.421029 0.470257 4.648808 0
M  V30 37 H -1.747016 -1.674322 3.140342 0
M  V30 38 H -2.577314 -0.090634 2.883538 0
M  V30 39 H -2.900148 0.203862 5.267610 0
M  V30 40 H -3.598759 -1.387857 4.771963 0
M  V30 41 H -0.699736 -0.016654 6.981920 0
M  V30 42 H -0.746911 -4.190800 7.445526 0
M  V30 43 H -2.377603 -3.584266 5.556814 0
M  V30 END ATOM
M  V30 BEGIN BOND
M  V30 1 1 1 2
M  V30 2 2 2 3
M  V30 3 1 3 4
M  V30 4 1 4 5
M  V30 5 1 5 6
M  V30 6 1 6 7
M  V30 7 1 6 8
M  V30 8 1 6 9
M  V30 9 1 4 10
M  V30 10 2 10 11
M  V30 11 1 11 12
M  V30 12 1 12 13
M  V30 13 2 13 14
M  V30 14 1 14 15
M  V30 15 2 15 16
M  V30 16 1 16 17
M  V30 17 1 16 18
M  V30 18 1 18 19
M  V30 19 1 19 20
M  V30 20 1 20 21
M  V30 21 1 21 22
M  V30 22 2 22 23
M  V30 23 1 23 24
M  V30 24 2 24 25
M  V30 25 1 25 26
M  V30 26 2 18 27
M  V30 27 1 11 2
M  V30 28 1 27 13
M  V30 29 1 26 22
M  V30 30 1 1 28
M  V30 31 1 1 29
M  V30 32 1 1 30
M  V30 33 1 5 31
M  V30 34 1 5 32
M  V30 35 1 10 33
M  V30 36 1 12 34
M  V30 37 1 15 35
M  V30 38 1 19 36
M  V30 39 1 20 37
M  V30 40 1 20 38
M  V30 41 1 21 39
M  V30 42 1 21 40
M  V30 43 1 23 41
M  V30 44 1 25 42
M  V30 45 1 26 43
M  V30 END BOND
M  V30 END CTAB
M  END
>  <Dataset>  (694) 
ChEMBL_Kinases

>  <Ligand_Instance>  (694) 
nan

>  <PDB_ID>  (694) 
nan

>  <Standardized_SMILES>  (694) 
Cc1nn(CC(F)(F)F)cc1Nc1ncc(Br)c(NCCc2cnc[nH]2)n1

>  <Name>  (694) 
nan

>  <Pocket>  (694) 
nan

>  <ATP_Site>  (694) 
nan

>  <Peripheral>  (694) 
nan

>  <Num_H_Atoms_ProtBoundConf>  (694) 
nan

>  <Num_Resolved_Atoms>  (694) 
nan

>  <Num_Not_Resolved_Atoms>  (694) 
nan

$$$$
CHEMBL5075811
     RDKit          3D

  0  0  0  0  0  0  0  0  0  0999 V3000
M  V30 BEGIN CTAB
M  V30 COUNTS 53 57 0 0 0
M  V30 BEGIN ATOM
M  V30 1 C 2.737568 -3.257938 0.139686 0
M  V30 2 O 2.597055 -3.274478 1.549628 0
M  V30 3 C 2.452418 -2.049682 2.186784 0
M  V30 4 C 2.314010 -2.067355 3.575373 0
M  V30 5 C 2.164054 -0.901106 4.304224 0
M  V30 6 C 2.159113 0.283233 3.578239 0
M  V30 7 C 2.294912 0.344485 2.186838 0
M  V30 8 C 2.267843 1.648923 1.592818 0
M  V30 9 N 3.225580 2.509855 1.970632 0
M  V30 10 C 3.006875 3.667830 1.290728 0
M  V30 11 S 3.570176 5.430057 0.962675 0
M  V30 12 C 2.264237 5.770614 -0.216188 0
M  V30 13 C 1.547764 4.594961 -0.265943 0
M  V30 14 N 1.932633 3.564861 0.488881 0
M  V30 15 C 1.483511 2.314521 0.682642 0
M  V30 16 C 0.353226 1.595876 0.105305 0
M  V30 17 C 0.327067 1.408159 -1.249688 0
M  V30 18 C -0.732189 0.736638 -1.773278 0
M  V30 19 N -1.686675 0.296594 -0.950767 0
M  V30 20 C -1.700189 0.459892 0.390435 0
M  V30 21 N -2.784980 -0.061997 1.145391 0
M  V30 22 C -3.815107 -0.729975 0.473973 0
M  V30 23 C -3.613841 -2.008609 -0.214643 0
M  V30 24 N -3.208755 -3.135760 0.563506 0
M  V30 25 C -3.691335 -4.359015 -0.115779 0
M  V30 26 C -2.758435 -4.585817 -1.267224 0
M  V30 27 N -1.399282 -4.343539 -0.852937 0
M  V30 28 S -1.574403 -3.522471 0.658763 0
M  V30 29 O -1.434008 -4.598911 1.737374 0
M  V30 30 O -0.604343 -2.468542 0.913708 0
M  V30 31 N -0.639621 1.128619 0.886302 0
M  V30 32 C 2.440552 -0.851846 1.520712 0
M  V30 33 H 3.633602 -2.616229 -0.089191 0
M  V30 34 H 2.826331 -4.275546 -0.287195 0
M  V30 35 H 1.877333 -2.691221 -0.258093 0
M  V30 36 H 2.312905 -2.971506 4.177814 0
M  V30 37 H 2.056052 -0.873128 5.360897 0
M  V30 38 H 2.040995 1.202164 4.153274 0
M  V30 39 H 2.238067 6.717365 -0.651636 0
M  V30 40 H 0.719919 4.669460 -0.951529 0
M  V30 41 H 1.078696 1.748459 -1.946454 0
M  V30 42 H -0.849985 0.532413 -2.846680 0
M  V30 43 H -2.698955 0.115751 2.184366 0
M  V30 44 H -4.306592 0.029637 -0.210615 0
M  V30 45 H -4.647689 -0.913364 1.227607 0
M  V30 46 H -4.641418 -2.308751 -0.600771 0
M  V30 47 H -3.035577 -1.953160 -1.163812 0
M  V30 48 H -4.690846 -4.105668 -0.536623 0
M  V30 49 H -3.717457 -5.199826 0.587661 0
M  V30 50 H -2.812286 -5.662772 -1.539186 0
M  V30 51 H -3.055237 -4.020465 -2.174216 0
M  V30 52 H -0.781858 -5.157428 -0.828616 0
M  V30 53 H 2.544637 -0.818246 0.462427 0
M  V30 END ATOM
M  V30 BEGIN BOND
M  V30 1 1 1 2
M  V30 2 1 2 3
M  V30 3 2 3 4
M  V30 4 1 4 5
M  V30 5 2 5 6
M  V30 6 1 6 7
M  V30 7 1 7 8
M  V30 8 1 8 9
M  V30 9 2 9 10
M  V30 10 1 10 11
M  V30 11 1 11 12
M  V30 12 2 12 13
M  V30 13 1 13 14
M  V30 14 1 14 15
M  V30 15 1 15 16
M  V30 16 2 16 17
M  V30 17 1 17 18
M  V30 18 2 18 19
M  V30 19 1 19 20
M  V30 20 1 20 21
M  V30 21 1 21 22
M  V30 22 1 22 23
M  V30 23 1 23 24
M  V30 24 1 24 25
M  V30 25 1 25 26
M  V30 26 1 26 27
M  V30 27 1 27 28
M  V30 28 2 28 29
M  V30 29 2 28 30
M  V30 30 2 20 31
M  V30 31 2 7 32
M  V30 32 1 32 3
M  V30 33 2 15 8
M  V30 34 1 31 16
M  V30 35 1 14 10
M  V30 36 1 28 24
M  V30 37 1 1 33
M  V30 38 1 1 34
M  V30 39 1 1 35
M  V30 40 1 4 36
M  V30 41 1 5 37
M  V30 42 1 6 38
M  V30 43 1 12 39
M  V30 44 1 13 40
M  V30 45 1 17 41
M  V30 46 1 18 42
M  V30 47 1 21 43
M  V30 48 1 22 44
M  V30 49 1 22 45
M  V30 50 1 23 46
M  V30 51 1 23 47
M  V30 52 1 25 48
M  V30 53 1 25 49
M  V30 54 1 26 50
M  V30 55 1 26 51
M  V30 56 1 27 52
M  V30 57 1 32 53
M  V30 END BOND
M  V30 END CTAB
M  END
>  <Dataset>  (695) 
ChEMBL_Kinases

>  <Ligand_Instance>  (695) 
nan

>  <PDB_ID>  (695) 
nan

>  <Standardized_SMILES>  (695) 
COc1cccc(-c2nc3sccn3c2-c2ccnc(NCCN3CCNS3(=O)=O)n2)c1

>  <Name>  (695) 
nan

>  <Pocket>  (695) 
nan

>  <ATP_Site>  (695) 
nan

>  <Peripheral>  (695) 
nan

>  <Num_H_Atoms_ProtBoundConf>  (695) 
nan

>  <Num_Resolved_Atoms>  (695) 
nan

>  <Num_Not_Resolved_Atoms>  (695) 
nan

$$$$
CHEMBL5078176
     RDKit          3D

  0  0  0  0  0  0  0  0  0  0999 V3000
M  V30 BEGIN CTAB
M  V30 COUNTS 60 64 0 0 0
M  V30 BEGIN ATOM
M  V30 1 C 0.240447 -3.606399 4.745066 0
M  V30 2 C 0.686288 -2.290646 4.224014 0
M  V30 3 C 1.537822 -1.462177 4.918246 0
M  V30 4 C 1.946477 -0.240346 4.423898 0
M  V30 5 C 1.482507 0.165678 3.184806 0
M  V30 6 N 1.835782 1.401195 2.577505 0
M  V30 7 C 1.293597 2.700604 2.595096 0
M  V30 8 O 0.254160 2.940164 3.273141 0
M  V30 9 C 1.993958 3.707487 1.803910 0
M  V30 10 C 1.469016 4.975850 1.817938 0
M  V30 11 C 2.117493 5.943929 1.075091 0
M  V30 12 C 1.651263 7.360327 1.004563 0
M  V30 13 F 0.830906 7.588365 2.094171 0
M  V30 14 F 2.673168 8.259089 1.023033 0
M  V30 15 F 0.841215 7.504475 -0.120936 0
M  V30 16 C 3.263573 5.679690 0.327540 0
M  V30 17 N 3.711484 4.398707 0.372456 0
M  V30 18 N 3.101703 3.461243 1.078745 0
M  V30 19 C 0.620784 -0.697483 2.507159 0
M  V30 20 C 0.193643 -1.939849 2.989015 0
M  V30 21 C -0.710382 -2.708452 2.141620 0
M  V30 22 C -1.863206 -3.381233 2.490988 0
M  V30 23 C -2.582468 -4.055630 1.526111 0
M  V30 24 C -2.209951 -4.099497 0.199521 0
M  V30 25 C -1.058273 -3.429410 -0.158967 0
M  V30 26 C -0.328868 -2.750772 0.795077 0
M  V30 27 O -0.548923 -3.373430 -1.434166 0
M  V30 28 C -1.202818 -3.429033 -2.690365 0
M  V30 29 C -2.235356 -2.352727 -2.808422 0
M  V30 30 C -1.985198 -1.443954 -3.991155 0
M  V30 31 O -0.729277 -0.857731 -3.924405 0
M  V30 32 C 0.298167 -1.772012 -3.772474 0
M  V30 33 C -0.196025 -3.201265 -3.797648 0
M  V30 34 C -1.847382 -4.788711 -2.879287 0
M  V30 35 C -3.055769 -4.945337 -2.035803 0
M  V30 36 O -4.194271 -5.184530 -2.565450 0
M  V30 37 N -3.108984 -4.855718 -0.603620 0
M  V30 38 H 0.031182 -4.335310 3.929509 0
M  V30 39 H 1.070638 -4.093105 5.330170 0
M  V30 40 H -0.632382 -3.546411 5.416773 0
M  V30 41 H 1.877650 -1.825392 5.891887 0
M  V30 42 H 2.611950 0.402896 4.970681 0
M  V30 43 H 2.697568 1.085356 2.048905 0
M  V30 44 H 0.592916 5.231405 2.374061 0
M  V30 45 H 3.783187 6.421715 -0.258055 0
M  V30 46 H 0.259382 -0.362225 1.522910 0
M  V30 47 H -2.102546 -3.311450 3.535369 0
M  V30 48 H -3.484751 -4.570915 1.852042 0
M  V30 49 H 0.573263 -2.244837 0.426267 0
M  V30 50 H -2.193728 -1.718673 -1.875166 0
M  V30 51 H -3.274398 -2.726239 -2.867674 0
M  V30 52 H -2.169799 -1.986724 -4.919654 0
M  V30 53 H -2.726809 -0.622668 -3.896393 0
M  V30 54 H 0.874795 -1.621126 -2.840888 0
M  V30 55 H 1.006165 -1.635662 -4.617116 0
M  V30 56 H -0.651580 -3.421035 -4.780465 0
M  V30 57 H 0.701386 -3.851843 -3.706389 0
M  V30 58 H -2.135504 -4.907795 -3.953971 0
M  V30 59 H -1.082806 -5.547358 -2.615648 0
M  V30 60 H -3.855407 -5.378031 -0.108299 0
M  V30 END ATOM
M  V30 BEGIN BOND
M  V30 1 1 1 2
M  V30 2 2 2 3
M  V30 3 1 3 4
M  V30 4 2 4 5
M  V30 5 1 5 6
M  V30 6 1 6 7
M  V30 7 2 7 8
M  V30 8 1 7 9
M  V30 9 2 9 10
M  V30 10 1 10 11
M  V30 11 1 11 12
M  V30 12 1 12 13
M  V30 13 1 12 14
M  V30 14 1 12 15
M  V30 15 2 11 16
M  V30 16 1 16 17
M  V30 17 2 17 18
M  V30 18 1 5 19
M  V30 19 2 19 20
M  V30 20 1 20 21
M  V30 21 2 21 22
M  V30 22 1 22 23
M  V30 23 2 23 24
M  V30 24 1 24 25
M  V30 25 2 25 26
M  V30 26 1 25 27
M  V30 27 1 27 28
M  V30 28 1 28 29
M  V30 29 1 29 30
M  V30 30 1 30 31
M  V30 31 1 31 32
M  V30 32 1 32 33
M  V30 33 1 28 34
M  V30 34 1 34 35
M  V30 35 2 35 36
M  V30 36 1 35 37
M  V30 37 1 20 2
M  V30 38 1 26 21
M  V30 39 1 33 28
M  V30 40 1 18 9
M  V30 41 1 37 24
M  V30 42 1 1 38
M  V30 43 1 1 39
M  V30 44 1 1 40
M  V30 45 1 3 41
M  V30 46 1 4 42
M  V30 47 1 6 43
M  V30 48 1 10 44
M  V30 49 1 16 45
M  V30 50 1 19 46
M  V30 51 1 22 47
M  V30 52 1 23 48
M  V30 53 1 26 49
M  V30 54 1 29 50
M  V30 55 1 29 51
M  V30 56 1 30 52
M  V30 57 1 30 53
M  V30 58 1 32 54
M  V30 59 1 32 55
M  V30 60 1 33 56
M  V30 61 1 33 57
M  V30 62 1 34 58
M  V30 63 1 34 59
M  V30 64 1 37 60
M  V30 END BOND
M  V30 END CTAB
M  END
>  <Dataset>  (696) 
ChEMBL_Kinases

>  <Ligand_Instance>  (696) 
nan

>  <PDB_ID>  (696) 
nan

>  <Standardized_SMILES>  (696) 
Cc1ccc(NC(=O)c2cc(C(F)(F)F)cnn2)cc1-c1ccc2c(c1)OC1(CCOCC1)CC(=O)N2

>  <Name>  (696) 
nan

>  <Pocket>  (696) 
nan

>  <ATP_Site>  (696) 
nan

>  <Peripheral>  (696) 
nan

>  <Num_H_Atoms_ProtBoundConf>  (696) 
nan

>  <Num_Resolved_Atoms>  (696) 
nan

>  <Num_Not_Resolved_Atoms>  (696) 
nan

$$$$
CHEMBL378697
     RDKit          3D

  0  0  0  0  0  0  0  0  0  0999 V3000
M  V30 BEGIN CTAB
M  V30 COUNTS 39 42 0 0 0
M  V30 BEGIN ATOM
M  V30 1 C 1.114213 -4.465758 1.889814 0
M  V30 2 C 0.267757 -3.296415 1.502711 0
M  V30 3 C -1.196803 -3.738285 1.591736 0
M  V30 4 C 0.593138 -2.937488 0.081519 0
M  V30 5 N 0.475130 -3.785602 -0.980854 0
M  V30 6 N 0.844853 -3.130031 -2.056262 0
M  V30 7 C 1.197019 -1.876183 -1.695693 0
M  V30 8 C 1.657695 -0.782730 -2.428974 0
M  V30 9 C 1.937505 0.389265 -1.756856 0
M  V30 10 C 1.775339 0.507069 -0.392554 0
M  V30 11 C 2.040151 1.694252 0.410942 0
M  V30 12 O 3.135171 2.413582 0.628857 0
M  V30 13 C 2.846206 3.400784 1.444040 0
M  V30 14 N 1.528147 3.350661 1.786478 0
M  V30 15 C 0.998121 2.274847 1.141620 0
M  V30 16 C -0.417745 1.984023 1.334725 0
M  V30 17 C -0.769345 1.701680 2.659596 0
M  V30 18 C -2.078059 1.405219 3.004619 0
M  V30 19 C -3.046089 1.385620 2.046885 0
M  V30 20 C -2.714845 1.660206 0.746904 0
M  V30 21 Cl -3.865876 1.665823 -0.571480 0
M  V30 22 C -1.418106 1.954565 0.400796 0
M  V30 23 Cl -0.935574 2.311755 -1.227129 0
M  V30 24 C 1.311631 -0.618320 0.290147 0
M  V30 25 N 1.039735 -1.762093 -0.373640 0
M  V30 26 H 0.558601 -5.432467 1.825284 0
M  V30 27 H 2.025016 -4.585088 1.236156 0
M  V30 28 H 1.496662 -4.396123 2.938112 0
M  V30 29 H 0.451758 -2.433356 2.149585 0
M  V30 30 H -1.314279 -4.739962 1.140718 0
M  V30 31 H -1.822838 -2.984704 1.053643 0
M  V30 32 H -1.450842 -3.824518 2.665822 0
M  V30 33 H 1.797182 -0.828908 -3.481253 0
M  V30 34 H 2.294710 1.267823 -2.256545 0
M  V30 35 H 3.531749 4.164895 1.813034 0
M  V30 36 H -0.047884 1.698244 3.485013 0
M  V30 37 H -2.331878 1.187276 4.045745 0
M  V30 38 H -4.080702 1.156629 2.286532 0
M  V30 39 H 1.160340 -0.596992 1.366322 0
M  V30 END ATOM
M  V30 BEGIN BOND
M  V30 1 1 1 2
M  V30 2 1 2 3
M  V30 3 1 2 4
M  V30 4 2 4 5
M  V30 5 1 5 6
M  V30 6 2 6 7
M  V30 7 1 7 8
M  V30 8 2 8 9
M  V30 9 1 9 10
M  V30 10 1 10 11
M  V30 11 1 11 12
M  V30 12 1 12 13
M  V30 13 2 13 14
M  V30 14 1 14 15
M  V30 15 1 15 16
M  V30 16 2 16 17
M  V30 17 1 17 18
M  V30 18 2 18 19
M  V30 19 1 19 20
M  V30 20 1 20 21
M  V30 21 2 20 22
M  V30 22 1 22 23
M  V30 23 2 10 24
M  V30 24 1 24 25
M  V30 25 1 25 4
M  V30 26 1 25 7
M  V30 27 2 15 11
M  V30 28 1 22 16
M  V30 29 1 1 26
M  V30 30 1 1 27
M  V30 31 1 1 28
M  V30 32 1 2 29
M  V30 33 1 3 30
M  V30 34 1 3 31
M  V30 35 1 3 32
M  V30 36 1 8 33
M  V30 37 1 9 34
M  V30 38 1 13 35
M  V30 39 1 17 36
M  V30 40 1 18 37
M  V30 41 1 19 38
M  V30 42 1 24 39
M  V30 END BOND
M  V30 END CTAB
M  END
>  <Dataset>  (697) 
ChEMBL_Kinases

>  <Ligand_Instance>  (697) 
nan

>  <PDB_ID>  (697) 
nan

>  <Standardized_SMILES>  (697) 
CC(C)c1nnc2ccc(-c3ocnc3-c3cccc(Cl)c3Cl)cn12

>  <Name>  (697) 
nan

>  <Pocket>  (697) 
nan

>  <ATP_Site>  (697) 
nan

>  <Peripheral>  (697) 
nan

>  <Num_H_Atoms_ProtBoundConf>  (697) 
nan

>  <Num_Resolved_Atoms>  (697) 
nan

>  <Num_Not_Resolved_Atoms>  (697) 
nan

$$$$
CHEMBL5078234
     RDKit          3D

  0  0  0  0  0  0  0  0  0  0999 V3000
M  V30 BEGIN CTAB
M  V30 COUNTS 46 49 0 0 0
M  V30 BEGIN ATOM
M  V30 1 C -0.595405 -4.902259 -0.237515 0
M  V30 2 N 0.174327 -4.685646 -1.419097 0
M  V30 3 C 0.012346 -5.865505 -2.290428 0
M  V30 4 C 0.993182 -3.658180 -1.882401 0
M  V30 5 O 1.468367 -3.926224 -3.023904 0
M  V30 6 C 1.461017 -2.363335 -1.432822 0
M  V30 7 C 2.280670 -1.641424 -2.269905 0
M  V30 8 N 2.691751 -2.091170 -3.553637 0
M  V30 9 C 2.783955 -0.382246 -1.918680 0
M  V30 10 C 2.447498 0.149026 -0.697499 0
M  V30 11 C 1.632135 -0.520908 0.186396 0
M  V30 12 C 1.283811 0.058238 1.481500 0
M  V30 13 C 2.046569 -0.158354 2.615438 0
M  V30 14 N 1.706950 0.388854 3.812180 0
M  V30 15 C 0.597645 1.164197 3.900842 0
M  V30 16 C -0.233275 1.443218 2.828200 0
M  V30 17 C 0.149238 0.863531 1.618585 0
M  V30 18 Cl -0.805552 1.131161 0.185891 0
M  V30 19 C -1.341139 2.303265 3.240562 0
M  V30 20 C -2.597221 2.336483 2.515877 0
M  V30 21 C -2.399240 3.794443 2.157180 0
M  V30 22 C -1.061435 3.742471 2.838061 0
M  V30 23 C -1.351757 2.158398 4.731379 0
M  V30 24 N 0.036830 1.841336 5.021828 0
M  V30 25 C 1.181614 -1.749993 -0.235930 0
M  V30 26 F 0.396301 -2.363412 0.657486 0
M  V30 27 H -1.219388 -5.846595 -0.260364 0
M  V30 28 H -0.032697 -4.951903 0.706260 0
M  V30 29 H -1.392564 -4.111419 -0.103729 0
M  V30 30 H -1.064402 -6.051119 -2.472512 0
M  V30 31 H 0.486317 -5.712653 -3.279600 0
M  V30 32 H 0.470801 -6.708309 -1.770021 0
M  V30 33 H 2.021418 -1.651637 -4.251872 0
M  V30 34 H 3.533159 -2.731858 -3.522564 0
M  V30 35 H 3.419080 0.169944 -2.574952 0
M  V30 36 H 2.844799 1.116110 -0.448914 0
M  V30 37 H 2.944324 -0.785023 2.546789 0
M  V30 38 H -2.814805 1.674878 1.669974 0
M  V30 39 H -3.471965 2.264662 3.226386 0
M  V30 40 H -2.351462 4.006998 1.071979 0
M  V30 41 H -3.143728 4.503266 2.597952 0
M  V30 42 H -0.919033 4.421504 3.685310 0
M  V30 43 H -0.237897 3.843148 2.079034 0
M  V30 44 H -1.988447 1.287021 4.985328 0
M  V30 45 H -1.688045 3.072392 5.258184 0
M  V30 46 H 0.533652 2.078157 5.915648 0
M  V30 END ATOM
M  V30 BEGIN BOND
M  V30 1 1 1 2
M  V30 2 1 2 3
M  V30 3 1 2 4
M  V30 4 2 4 5
M  V30 5 1 4 6
M  V30 6 2 6 7
M  V30 7 1 7 8
M  V30 8 1 7 9
M  V30 9 2 9 10
M  V30 10 1 10 11
M  V30 11 1 11 12
M  V30 12 2 12 13
M  V30 13 1 13 14
M  V30 14 2 14 15
M  V30 15 1 15 16
M  V30 16 2 16 17
M  V30 17 1 17 18
M  V30 18 1 16 19
M  V30 19 1 19 20
M  V30 20 1 20 21
M  V30 21 1 21 22
M  V30 22 1 19 23
M  V30 23 1 23 24
M  V30 24 2 11 25
M  V30 25 1 25 26
M  V30 26 1 25 6
M  V30 27 1 17 12
M  V30 28 1 22 19
M  V30 29 1 24 15
M  V30 30 1 1 27
M  V30 31 1 1 28
M  V30 32 1 1 29
M  V30 33 1 3 30
M  V30 34 1 3 31
M  V30 35 1 3 32
M  V30 36 1 8 33
M  V30 37 1 8 34
M  V30 38 1 9 35
M  V30 39 1 10 36
M  V30 40 1 13 37
M  V30 41 1 20 38
M  V30 42 1 20 39
M  V30 43 1 21 40
M  V30 44 1 21 41
M  V30 45 1 22 42
M  V30 46 1 22 43
M  V30 47 1 23 44
M  V30 48 1 23 45
M  V30 49 1 24 46
M  V30 END BOND
M  V30 END CTAB
M  END
>  <Dataset>  (698) 
ChEMBL_Kinases

>  <Ligand_Instance>  (698) 
nan

>  <PDB_ID>  (698) 
nan

>  <Standardized_SMILES>  (698) 
CN(C)C(=O)c1c(N)ccc(-c2cnc3c(c2Cl)C2(CCC2)CN3)c1F

>  <Name>  (698) 
nan

>  <Pocket>  (698) 
nan

>  <ATP_Site>  (698) 
nan

>  <Peripheral>  (698) 
nan

>  <Num_H_Atoms_ProtBoundConf>  (698) 
nan

>  <Num_Resolved_Atoms>  (698) 
nan

>  <Num_Not_Resolved_Atoms>  (698) 
nan

$$$$
CHEMBL5078303
     RDKit          3D

  0  0  0  0  0  0  0  0  0  0999 V3000
M  V30 BEGIN CTAB
M  V30 COUNTS 73 77 0 0 0
M  V30 BEGIN ATOM
M  V30 1 C 3.377565 -1.843103 2.997080 0
M  V30 2 N 3.325701 -1.909785 1.529510 0
M  V30 3 C 2.354018 -2.606887 0.920285 0
M  V30 4 N 1.403403 -3.270530 1.721678 0
M  V30 5 C 0.199751 -3.249840 2.504585 0
M  V30 6 C -0.965046 -2.725726 1.705632 0
M  V30 7 C -1.170380 -3.575135 0.504040 0
M  V30 8 C -2.326893 -3.177119 -0.375603 0
M  V30 9 C -2.136535 -1.770768 -0.831349 0
M  V30 10 C -3.233180 -1.287775 -1.753329 0
M  V30 11 C -2.936532 0.140147 -2.088442 0
M  V30 12 N -2.940985 1.057989 -1.012818 0
M  V30 13 C -2.494397 1.394227 0.265064 0
M  V30 14 C -1.344463 2.094399 0.536409 0
M  V30 15 C -0.955363 2.402796 1.821021 0
M  V30 16 N -1.708888 2.014945 2.827345 0
M  V30 17 C -2.845532 1.330052 2.677432 0
M  V30 18 C -3.603345 0.945826 3.776502 0
M  V30 19 C -4.776429 0.239346 3.608301 0
M  V30 20 C -5.190474 -0.082884 2.330975 0
M  V30 21 C -4.417451 0.311951 1.261987 0
M  V30 22 C -3.239662 1.018979 1.392664 0
M  V30 23 C 0.270723 3.155722 2.187842 0
M  V30 24 C 1.315004 3.051796 1.130337 0
M  V30 25 C 0.959736 2.249619 -0.068945 0
M  V30 26 C -0.464832 2.544703 -0.565931 0
M  V30 27 N 2.319242 -2.659064 -0.419083 0
M  V30 28 C 3.186575 -2.064937 -1.239015 0
M  V30 29 C 3.109261 -2.163346 -2.686436 0
M  V30 30 C 3.971495 -1.575243 -3.562689 0
M  V30 31 C 3.790721 -1.753384 -4.937977 0
M  V30 32 N 2.764847 -2.505654 -5.404004 0
M  V30 33 C 1.883767 -3.108380 -4.570152 0
M  V30 34 C 2.090981 -2.912627 -3.222056 0
M  V30 35 C 4.139095 -1.379403 -0.556354 0
M  V30 36 C 4.246800 -1.275435 0.812620 0
M  V30 37 O 5.187137 -0.602400 1.353532 0
M  V30 38 H 2.470337 -1.364210 3.365280 0
M  V30 39 H 3.518333 -2.859821 3.417781 0
M  V30 40 H 4.242194 -1.241401 3.309052 0
M  V30 41 H 1.877313 -4.219024 1.671702 0
M  V30 42 H 0.379354 -2.611307 3.401477 0
M  V30 43 H -0.050510 -4.257125 2.911194 0
M  V30 44 H -0.726478 -1.664820 1.487890 0
M  V30 45 H -1.894835 -2.774417 2.333072 0
M  V30 46 H -0.242075 -3.679767 -0.081619 0
M  V30 47 H -1.414557 -4.602939 0.869872 0
M  V30 48 H -2.277762 -3.816409 -1.297651 0
M  V30 49 H -3.297249 -3.352216 0.119446 0
M  V30 50 H -1.208099 -1.782036 -1.478916 0
M  V30 51 H -1.910051 -1.073959 -0.031500 0
M  V30 52 H -3.089147 -1.867571 -2.712030 0
M  V30 53 H -4.238699 -1.518917 -1.427417 0
M  V30 54 H -3.689934 0.454162 -2.847321 0
M  V30 55 H -1.970723 0.111490 -2.657793 0
M  V30 56 H -3.522911 1.947017 -1.117757 0
M  V30 57 H -3.236719 1.221710 4.743487 0
M  V30 58 H -5.343492 -0.046331 4.486949 0
M  V30 59 H -6.109917 -0.636841 2.218883 0
M  V30 60 H -4.789450 0.034000 0.305934 0
M  V30 61 H 0.636664 2.846198 3.188734 0
M  V30 62 H -0.057744 4.235806 2.229519 0
M  V30 63 H 1.651780 4.065633 0.767308 0
M  V30 64 H 2.220295 2.579696 1.613907 0
M  V30 65 H 0.945128 1.168388 0.248821 0
M  V30 66 H 1.711038 2.348279 -0.865604 0
M  V30 67 H -0.561563 3.620228 -0.809301 0
M  V30 68 H -0.564706 1.983933 -1.501035 0
M  V30 69 H 4.781341 -0.980144 -3.154200 0
M  V30 70 H 4.472829 -1.290630 -5.636951 0
M  V30 71 H 1.095565 -3.688628 -5.006245 0
M  V30 72 H 1.372067 -3.405975 -2.560123 0
M  V30 73 H 4.917683 -0.840752 -1.112376 0
M  V30 END ATOM
M  V30 BEGIN BOND
M  V30 1 1 1 2
M  V30 2 1 2 3
M  V30 3 1 3 4
M  V30 4 1 4 5
M  V30 5 1 5 6
M  V30 6 1 6 7
M  V30 7 1 7 8
M  V30 8 1 8 9
M  V30 9 1 9 10
M  V30 10 1 10 11
M  V30 11 1 11 12
M  V30 12 1 12 13
M  V30 13 2 13 14
M  V30 14 1 14 15
M  V30 15 2 15 16
M  V30 16 1 16 17
M  V30 17 2 17 18
M  V30 18 1 18 19
M  V30 19 2 19 20
M  V30 20 1 20 21
M  V30 21 2 21 22
M  V30 22 1 15 23
M  V30 23 1 23 24
M  V30 24 1 24 25
M  V30 25 1 25 26
M  V30 26 2 3 27
M  V30 27 1 27 28
M  V30 28 1 28 29
M  V30 29 2 29 30
M  V30 30 1 30 31
M  V30 31 2 31 32
M  V30 32 1 32 33
M  V30 33 2 33 34
M  V30 34 2 28 35
M  V30 35 1 35 36
M  V30 36 2 36 37
M  V30 37 1 36 2
M  V30 38 1 22 13
M  V30 39 1 34 29
M  V30 40 1 26 14
M  V30 41 1 22 17
M  V30 42 1 1 38
M  V30 43 1 1 39
M  V30 44 1 1 40
M  V30 45 1 4 41
M  V30 46 1 5 42
M  V30 47 1 5 43
M  V30 48 1 6 44
M  V30 49 1 6 45
M  V30 50 1 7 46
M  V30 51 1 7 47
M  V30 52 1 8 48
M  V30 53 1 8 49
M  V30 54 1 9 50
M  V30 55 1 9 51
M  V30 56 1 10 52
M  V30 57 1 10 53
M  V30 58 1 11 54
M  V30 59 1 11 55
M  V30 60 1 12 56
M  V30 61 1 18 57
M  V30 62 1 19 58
M  V30 63 1 20 59
M  V30 64 1 21 60
M  V30 65 1 23 61
M  V30 66 1 23 62
M  V30 67 1 24 63
M  V30 68 1 24 64
M  V30 69 1 25 65
M  V30 70 1 25 66
M  V30 71 1 26 67
M  V30 72 1 26 68
M  V30 73 1 30 69
M  V30 74 1 31 70
M  V30 75 1 33 71
M  V30 76 1 34 72
M  V30 77 1 35 73
M  V30 END BOND
M  V30 END CTAB
M  END
>  <Dataset>  (699) 
ChEMBL_Kinases

>  <Ligand_Instance>  (699) 
nan

>  <PDB_ID>  (699) 
nan

>  <Standardized_SMILES>  (699) 
Cn1c(NCCCCCCCNc2c3c(nc4ccccc24)CCCC3)nc(-c2ccncc2)cc1=O

>  <Name>  (699) 
nan

>  <Pocket>  (699) 
nan

>  <ATP_Site>  (699) 
nan

>  <Peripheral>  (699) 
nan

>  <Num_H_Atoms_ProtBoundConf>  (699) 
nan

>  <Num_Resolved_Atoms>  (699) 
nan

>  <Num_Not_Resolved_Atoms>  (699) 
nan

$$$$
CHEMBL5078321
     RDKit          3D

  0  0  0  0  0  0  0  0  0  0999 V3000
M  V30 BEGIN CTAB
M  V30 COUNTS 68 72 0 0 0
M  V30 BEGIN ATOM
M  V30 1 C 1.051074 -0.237357 5.567145 0
M  V30 2 C 1.755263 -1.387614 4.894875 0
M  V30 3 N 1.670939 -1.425031 3.484136 0
M  V30 4 C 0.380929 -1.693718 2.943647 0
M  V30 5 C 0.206486 -1.393722 1.506813 0
M  V30 6 N 0.888903 -0.222185 1.028995 0
M  V30 7 C 0.867521 0.116875 -0.349198 0
M  V30 8 C 1.469118 1.245644 -0.859232 0
M  V30 9 C 1.383289 1.472676 -2.212833 0
M  V30 10 N 1.985678 2.618538 -2.770169 0
M  V30 11 C 2.667481 3.507603 -1.879926 0
M  V30 12 C 4.000525 3.530539 -1.454875 0
M  V30 13 C 4.062651 4.605266 -0.612265 0
M  V30 14 C 5.324697 4.993319 0.070761 0
M  V30 15 N 2.849771 5.210466 -0.519111 0
M  V30 16 N 2.015926 4.525227 -1.299085 0
M  V30 17 N 0.736073 0.630657 -3.033277 0
M  V30 18 C 0.147981 -0.471674 -2.538526 0
M  V30 19 N -0.567416 -1.435365 -3.310213 0
M  V30 20 C -1.210319 -2.627461 -2.832762 0 CFG=1
M  V30 21 C -0.246469 -3.582534 -2.162009 0
M  V30 22 C -1.212530 -4.552186 -1.511903 0
M  V30 23 N -2.330368 -3.728323 -1.134383 0
M  V30 24 C -3.252364 -4.351546 -0.234460 0
M  V30 25 O -2.809347 -5.511907 -0.008607 0
M  V30 26 C -4.469546 -3.770061 0.320313 0
M  V30 27 C -4.544869 -3.058866 1.505961 0
M  V30 28 C -5.714971 -2.536681 1.978408 0
M  V30 29 C -6.895196 -2.690742 1.294376 0
M  V30 30 Cl -8.373409 -2.006812 1.932032 0
M  V30 31 C -6.830327 -3.394933 0.116930 0
M  V30 32 C -5.659506 -3.933810 -0.383682 0
M  V30 33 F -5.646434 -4.621979 -1.552489 0
M  V30 34 C -2.247133 -2.420990 -1.781139 0
M  V30 35 N 0.231234 -0.696272 -1.209369 0
M  V30 36 C 1.553219 0.512559 2.066514 0
M  V30 37 C 2.452473 -0.473024 2.783990 0
M  V30 38 H 0.183654 0.150613 5.036813 0
M  V30 39 H 0.755503 -0.513257 6.608083 0
M  V30 40 H 1.796007 0.592166 5.664884 0
M  V30 41 H 2.794753 -1.464154 5.230062 0
M  V30 42 H 1.252136 -2.325047 5.274589 0
M  V30 43 H 0.141209 -2.770903 3.129335 0
M  V30 44 H -0.373850 -1.129631 3.549883 0
M  V30 45 H -0.885274 -1.209873 1.277316 0
M  V30 46 H 0.459734 -2.288292 0.894201 0
M  V30 47 H 1.991775 1.931110 -0.213278 0
M  V30 48 H 1.967612 2.857517 -3.771381 0
M  V30 49 H 4.687532 2.790018 -1.812218 0
M  V30 50 H 5.515151 4.300171 0.911283 0
M  V30 51 H 6.148595 4.948544 -0.670979 0
M  V30 52 H 5.215389 5.999640 0.516722 0
M  V30 53 H 2.656016 6.049945 0.064932 0
M  V30 54 H -0.595344 -1.192296 -4.346164 0
M  V30 55 H -1.673016 -3.146931 -3.691578 0
M  V30 56 H 0.318061 -3.066342 -1.367224 0
M  V30 57 H 0.414113 -4.087234 -2.895852 0
M  V30 58 H -1.548686 -5.231774 -2.338598 0
M  V30 59 H -0.744092 -5.105898 -0.675806 0
M  V30 60 H -3.624577 -2.931140 2.052698 0
M  V30 61 H -5.712629 -1.996248 2.899620 0
M  V30 62 H -7.751385 -3.528931 -0.440680 0
M  V30 63 H -3.232306 -2.110703 -2.184702 0
M  V30 64 H -1.890129 -1.728716 -0.996860 0
M  V30 65 H 2.199870 1.318284 1.708341 0
M  V30 66 H 0.845791 0.966617 2.801279 0
M  V30 67 H 3.161142 0.005055 3.486113 0
M  V30 68 H 3.018995 -1.007750 1.988553 0
M  V30 END ATOM
M  V30 BEGIN BOND
M  V30 1 1 1 2
M  V30 2 1 2 3
M  V30 3 1 3 4
M  V30 4 1 4 5
M  V30 5 1 5 6
M  V30 6 1 6 7
M  V30 7 2 7 8
M  V30 8 1 8 9
M  V30 9 1 9 10
M  V30 10 1 10 11
M  V30 11 1 11 12
M  V30 12 2 12 13
M  V30 13 1 13 14
M  V30 14 1 13 15
M  V30 15 1 15 16
M  V30 16 2 9 17
M  V30 17 1 17 18
M  V30 18 1 18 19
M  V30 19 1 19 20
M  V30 20 1 20 21
M  V30 21 1 21 22
M  V30 22 1 22 23
M  V30 23 1 23 24
M  V30 24 2 24 25
M  V30 25 1 24 26
M  V30 26 2 26 27
M  V30 27 1 27 28
M  V30 28 2 28 29
M  V30 29 1 29 30
M  V30 30 1 29 31
M  V30 31 2 31 32
M  V30 32 1 32 33
M  V30 33 1 23 34
M  V30 34 2 18 35
M  V30 35 1 6 36
M  V30 36 1 36 37
M  V30 37 1 37 3
M  V30 38 1 35 7
M  V30 39 2 16 11
M  V30 40 1 34 20
M  V30 41 1 32 26
M  V30 42 1 1 38
M  V30 43 1 1 39
M  V30 44 1 1 40
M  V30 45 1 2 41
M  V30 46 1 2 42
M  V30 47 1 4 43
M  V30 48 1 4 44
M  V30 49 1 5 45
M  V30 50 1 5 46
M  V30 51 1 8 47
M  V30 52 1 10 48
M  V30 53 1 12 49
M  V30 54 1 14 50
M  V30 55 1 14 51
M  V30 56 1 14 52
M  V30 57 1 15 53
M  V30 58 1 19 54
M  V30 59 1 20 55 CFG=3
M  V30 60 1 21 56
M  V30 61 1 21 57
M  V30 62 1 22 58
M  V30 63 1 22 59
M  V30 64 1 27 60
M  V30 65 1 28 61
M  V30 66 1 31 62
M  V30 67 1 34 63
M  V30 68 1 34 64
M  V30 69 1 36 65
M  V30 70 1 36 66
M  V30 71 1 37 67
M  V30 72 1 37 68
M  V30 END BOND
M  V30 END CTAB
M  END
>  <Dataset>  (700) 
ChEMBL_Kinases

>  <Ligand_Instance>  (700) 
nan

>  <PDB_ID>  (700) 
nan

>  <Standardized_SMILES>  (700) 
CCN1CCN(c2cc(Nc3cc(C)[nH]n3)nc(N[C@H]3CCN(C(=O)c4ccc(Cl)cc4F)C3)n2)CC1

>  <Name>  (700) 
nan

>  <Pocket>  (700) 
nan

>  <ATP_Site>  (700) 
nan

>  <Peripheral>  (700) 
nan

>  <Num_H_Atoms_ProtBoundConf>  (700) 
nan

>  <Num_Resolved_Atoms>  (700) 
nan

>  <Num_Not_Resolved_Atoms>  (700) 
nan

$$$$
CHEMBL378695
     RDKit          3D

  0  0  0  0  0  0  0  0  0  0999 V3000
M  V30 BEGIN CTAB
M  V30 COUNTS 31 33 0 0 0
M  V30 BEGIN ATOM
M  V30 1 C -1.562786 -5.913532 2.796245 0
M  V30 2 O -0.419906 -5.591040 2.020241 0
M  V30 3 C -0.084028 -4.253143 1.812172 0
M  V30 4 C 1.011765 -3.860264 1.069487 0
M  V30 5 C 1.340719 -2.535163 0.865945 0
M  V30 6 C 0.544839 -1.529494 1.426119 0
M  V30 7 N 0.783020 -0.129654 1.285837 0
M  V30 8 C 0.540743 0.507148 0.191139 0
M  V30 9 C 0.004541 -0.028260 -1.063847 0
M  V30 10 O -0.283711 -1.243880 -1.181411 0
M  V30 11 N -0.064128 1.092065 -1.938436 0
M  V30 12 C 0.401740 2.263080 -1.271884 0
M  V30 13 C 0.518041 3.572071 -1.715932 0
M  V30 14 C 1.009751 4.555990 -0.861059 0
M  V30 15 C 1.384738 4.237843 0.432462 0
M  V30 16 C 1.268216 2.935075 0.872122 0
M  V30 17 C 0.775521 1.943976 0.018665 0
M  V30 18 C -0.558208 -1.892894 2.174233 0
M  V30 19 C -0.874424 -3.242349 2.368678 0
M  V30 20 H -1.544370 -5.413885 3.792080 0
M  V30 21 H -1.618597 -6.996351 2.937596 0
M  V30 22 H -2.519345 -5.575690 2.307673 0
M  V30 23 H 1.652012 -4.607569 0.619846 0
M  V30 24 H 2.194935 -2.212956 0.287245 0
M  V30 25 H -0.422302 0.959240 -2.911745 0
M  V30 26 H 0.223412 3.841188 -2.743770 0
M  V30 27 H 1.111699 5.597936 -1.186956 0
M  V30 28 H 1.758604 5.029411 1.056367 0
M  V30 29 H 1.545823 2.649685 1.859664 0
M  V30 30 H -1.211031 -1.175922 2.631982 0
M  V30 31 H -1.752644 -3.506973 2.964706 0
M  V30 END ATOM
M  V30 BEGIN BOND
M  V30 1 1 1 2
M  V30 2 1 2 3
M  V30 3 2 3 4
M  V30 4 1 4 5
M  V30 5 2 5 6
M  V30 6 1 6 7
M  V30 7 2 7 8
M  V30 8 1 8 9
M  V30 9 2 9 10
M  V30 10 1 9 11
M  V30 11 1 11 12
M  V30 12 2 12 13
M  V30 13 1 13 14
M  V30 14 2 14 15
M  V30 15 1 15 16
M  V30 16 2 16 17
M  V30 17 1 6 18
M  V30 18 2 18 19
M  V30 19 1 19 3
M  V30 20 1 17 8
M  V30 21 1 17 12
M  V30 22 1 1 20
M  V30 23 1 1 21
M  V30 24 1 1 22
M  V30 25 1 4 23
M  V30 26 1 5 24
M  V30 27 1 11 25
M  V30 28 1 13 26
M  V30 29 1 14 27
M  V30 30 1 15 28
M  V30 31 1 16 29
M  V30 32 1 18 30
M  V30 33 1 19 31
M  V30 END BOND
M  V30 END CTAB
M  END
>  <Dataset>  (701) 
ChEMBL_Kinases

>  <Ligand_Instance>  (701) 
nan

>  <PDB_ID>  (701) 
nan

>  <Standardized_SMILES>  (701) 
COc1ccc(/N=C2\C(=O)Nc3ccccc32)cc1

>  <Name>  (701) 
nan

>  <Pocket>  (701) 
nan

>  <ATP_Site>  (701) 
nan

>  <Peripheral>  (701) 
nan

>  <Num_H_Atoms_ProtBoundConf>  (701) 
nan

>  <Num_Resolved_Atoms>  (701) 
nan

>  <Num_Not_Resolved_Atoms>  (701) 
nan

$$$$
CHEMBL378688
     RDKit          3D

  0  0  0  0  0  0  0  0  0  0999 V3000
M  V30 BEGIN CTAB
M  V30 COUNTS 51 53 0 0 0
M  V30 BEGIN ATOM
M  V30 1 C -1.816703 2.167548 -2.689118 0
M  V30 2 O -0.911965 2.086364 -1.623890 0
M  V30 3 C 0.293829 1.455712 -1.591063 0
M  V30 4 C 0.931583 0.739773 -2.583635 0
M  V30 5 C 2.169379 0.147933 -2.398328 0
M  V30 6 N 2.733200 -0.559689 -3.494693 0 CHG=1 VAL=4
M  V30 7 O 2.147566 -0.664851 -4.587588 0
M  V30 8 O 3.970389 -1.134837 -3.299893 0 CHG=-1 VAL=1
M  V30 9 C 2.839329 0.243832 -1.195907 0
M  V30 10 C 2.219993 0.956054 -0.188753 0
M  V30 11 C 0.986755 1.536653 -0.398193 0
M  V30 12 N 0.429885 2.259247 0.694940 0
M  V30 13 C 1.085593 2.392671 1.975369 0
M  V30 14 S 2.380252 3.567190 2.219752 0
M  V30 15 N 2.582788 3.080819 4.033745 0
M  V30 16 C 1.628576 2.120842 4.104122 0
M  V30 17 O 1.760654 1.744654 5.445316 0
M  V30 18 C 0.809570 1.698148 3.101440 0
M  V30 19 C -0.142879 0.639257 3.377474 0
M  V30 20 N -0.835519 0.736557 4.478819 0
M  V30 21 N -0.270264 -0.466734 2.468964 0
M  V30 22 C -1.202420 -1.478884 2.927459 0
M  V30 23 C -1.291756 -2.679244 2.020927 0
M  V30 24 C -1.734988 -2.367303 0.619754 0
M  V30 25 C -2.356603 -3.655923 0.086284 0
M  V30 26 C -1.476928 -4.791003 0.496294 0
M  V30 27 C -0.066486 -4.392940 0.801923 0
M  V30 28 C 0.036714 -3.404392 1.927159 0
M  V30 29 H -1.767273 1.165628 -3.210039 0
M  V30 30 H -2.864377 2.278826 -2.370581 0
M  V30 31 H -1.598685 2.930846 -3.442590 0
M  V30 32 H 0.354280 0.697246 -3.520767 0
M  V30 33 H 3.802848 -0.222555 -1.065594 0
M  V30 34 H 2.770854 1.006664 0.729745 0
M  V30 35 H -0.495789 2.734950 0.616031 0
M  V30 36 H 2.070970 0.789368 5.679454 0
M  V30 37 H -1.517332 -0.016207 4.680924 0
M  V30 38 H 0.271776 -0.501418 1.577246 0
M  V30 39 H -2.229376 -1.022183 2.977685 0
M  V30 40 H -0.978760 -1.813611 3.949768 0
M  V30 41 H -2.001497 -3.389760 2.485552 0
M  V30 42 H -2.488327 -1.560686 0.634025 0
M  V30 43 H -0.844346 -2.132492 -0.018009 0
M  V30 44 H -2.554707 -3.614803 -0.995203 0
M  V30 45 H -3.334741 -3.746765 0.638124 0
M  V30 46 H -1.882982 -5.303299 1.401459 0
M  V30 47 H -1.433538 -5.531079 -0.315700 0
M  V30 48 H 0.479032 -4.082507 -0.101584 0
M  V30 49 H 0.460997 -5.321762 1.151181 0
M  V30 50 H 0.776923 -2.624674 1.634846 0
M  V30 51 H 0.352209 -3.823883 2.880008 0
M  V30 END ATOM
M  V30 BEGIN BOND
M  V30 1 1 1 2
M  V30 2 1 2 3
M  V30 3 2 3 4
M  V30 4 1 4 5
M  V30 5 1 5 6
M  V30 6 2 6 7
M  V30 7 1 6 8
M  V30 8 2 5 9
M  V30 9 1 9 10
M  V30 10 2 10 11
M  V30 11 1 11 12
M  V30 12 1 12 13
M  V30 13 1 13 14
M  V30 14 1 14 15
M  V30 15 2 15 16
M  V30 16 1 16 17
M  V30 17 1 16 18
M  V30 18 1 18 19
M  V30 19 2 19 20 CFG=2
M  V30 20 1 19 21
M  V30 21 1 21 22
M  V30 22 1 22 23
M  V30 23 1 23 24
M  V30 24 1 24 25
M  V30 25 1 25 26
M  V30 26 1 26 27
M  V30 27 1 27 28
M  V30 28 1 11 3
M  V30 29 2 18 13
M  V30 30 1 28 23
M  V30 31 1 1 29
M  V30 32 1 1 30
M  V30 33 1 1 31
M  V30 34 1 4 32
M  V30 35 1 9 33
M  V30 36 1 10 34
M  V30 37 1 12 35
M  V30 38 1 17 36
M  V30 39 1 20 37
M  V30 40 1 21 38
M  V30 41 1 22 39
M  V30 42 1 22 40
M  V30 43 1 23 41
M  V30 44 1 24 42
M  V30 45 1 24 43
M  V30 46 1 25 44
M  V30 47 1 25 45
M  V30 48 1 26 46
M  V30 49 1 26 47
M  V30 50 1 27 48
M  V30 51 1 27 49
M  V30 52 1 28 50
M  V30 53 1 28 51
M  V30 END BOND
M  V30 END CTAB
M  END
>  <Dataset>  (702) 
ChEMBL_Kinases

>  <Ligand_Instance>  (702) 
nan

>  <PDB_ID>  (702) 
nan

>  <Standardized_SMILES>  (702) 
COc1cc([N+](=O)[O-])ccc1Nc1snc(O)c1C(=N)NCC1CCCCC1

>  <Name>  (702) 
nan

>  <Pocket>  (702) 
nan

>  <ATP_Site>  (702) 
nan

>  <Peripheral>  (702) 
nan

>  <Num_H_Atoms_ProtBoundConf>  (702) 
nan

>  <Num_Resolved_Atoms>  (702) 
nan

>  <Num_Not_Resolved_Atoms>  (702) 
nan

$$$$
CHEMBL3786867
     RDKit          3D

  0  0  0  0  0  0  0  0  0  0999 V3000
M  V30 BEGIN CTAB
M  V30 COUNTS 31 33 0 0 0
M  V30 BEGIN ATOM
M  V30 1 C -3.400805 -0.927051 3.603816 0
M  V30 2 N -2.118093 -0.252755 3.575372 0
M  V30 3 C -1.295041 -0.450802 2.432981 0
M  V30 4 N -1.667458 -1.230203 1.402110 0
M  V30 5 C -0.843415 -1.392514 0.323716 0
M  V30 6 C -1.326935 -2.212909 -0.673428 0
M  V30 7 C -0.472390 -2.355985 -1.746493 0
M  V30 8 C 0.772700 -1.741869 -1.845932 0
M  V30 9 C 1.563229 -2.008071 -3.076951 0
M  V30 10 C 1.174927 -0.926458 -0.779773 0
M  V30 11 C 0.370620 -0.743632 0.315980 0
M  V30 12 N 0.803731 0.044403 1.304043 0
M  V30 13 C 1.927975 0.746793 1.477426 0
M  V30 14 C 3.128523 0.926945 0.647923 0
M  V30 15 C 1.726618 1.341705 2.729389 0
M  V30 16 N 0.531316 0.977971 3.226983 0
M  V30 17 C -0.064552 0.149516 2.322986 0
M  V30 18 H -3.371856 -1.878445 3.024574 0
M  V30 19 H -3.688438 -1.231244 4.632461 0
M  V30 20 H -4.210209 -0.314302 3.186956 0
M  V30 21 H -1.774228 0.362698 4.342838 0
M  V30 22 H -2.278782 -2.680291 -0.593632 0
M  V30 23 H -0.813900 -2.998731 -2.563334 0
M  V30 24 H 2.460545 -1.363771 -3.064449 0
M  V30 25 H 1.954174 -3.066877 -3.085321 0
M  V30 26 H 0.983416 -1.908333 -3.995745 0
M  V30 27 H 2.139715 -0.525092 -0.989184 0
M  V30 28 H 3.740021 0.008632 0.566221 0
M  V30 29 H 3.811887 1.622462 1.235355 0
M  V30 30 H 2.978296 1.490214 -0.289430 0
M  V30 31 H 2.413044 2.013685 3.268008 0
M  V30 END ATOM
M  V30 BEGIN BOND
M  V30 1 1 1 2
M  V30 2 1 2 3
M  V30 3 2 3 4
M  V30 4 1 4 5
M  V30 5 2 5 6
M  V30 6 1 6 7
M  V30 7 2 7 8
M  V30 8 1 8 9
M  V30 9 1 8 10
M  V30 10 2 10 11
M  V30 11 1 11 12
M  V30 12 1 12 13
M  V30 13 1 13 14
M  V30 14 2 13 15
M  V30 15 1 15 16
M  V30 16 2 16 17
M  V30 17 1 17 3
M  V30 18 1 11 5
M  V30 19 1 17 12
M  V30 20 1 1 18
M  V30 21 1 1 19
M  V30 22 1 1 20
M  V30 23 1 2 21
M  V30 24 1 6 22
M  V30 25 1 7 23
M  V30 26 1 9 24
M  V30 27 1 9 25
M  V30 28 1 9 26
M  V30 29 1 10 27
M  V30 30 1 14 28
M  V30 31 1 14 29
M  V30 32 1 14 30
M  V30 33 1 15 31
M  V30 END BOND
M  V30 END CTAB
M  END
>  <Dataset>  (703) 
ChEMBL_Kinases

>  <Ligand_Instance>  (703) 
nan

>  <PDB_ID>  (703) 
nan

>  <Standardized_SMILES>  (703) 
CNc1nc2ccc(C)cc2n2c(C)cnc12

>  <Name>  (703) 
nan

>  <Pocket>  (703) 
nan

>  <ATP_Site>  (703) 
nan

>  <Peripheral>  (703) 
nan

>  <Num_H_Atoms_ProtBoundConf>  (703) 
nan

>  <Num_Resolved_Atoms>  (703) 
nan

>  <Num_Not_Resolved_Atoms>  (703) 
nan

$$$$
CHEMBL3786624
     RDKit          3D

  0  0  0  0  0  0  0  0  0  0999 V3000
M  V30 BEGIN CTAB
M  V30 COUNTS 44 47 0 0 0
M  V30 BEGIN ATOM
M  V30 1 O -4.863983 -5.720636 1.728436 0
M  V30 2 C -4.145972 -4.694552 1.650954 0
M  V30 3 C -2.695536 -4.691087 1.656710 0
M  V30 4 C -2.101615 -5.930152 1.756965 0
M  V30 5 C -0.723508 -5.933592 1.763536 0
M  V30 6 C -0.074651 -4.721917 1.671169 0
M  V30 7 C -0.672803 -3.484926 1.571009 0
M  V30 8 N 0.057398 -2.269718 1.478946 0
M  V30 9 C 0.388938 -1.830063 0.176880 0
M  V30 10 O 0.073179 -2.452419 -0.892752 0
M  V30 11 N 1.123568 -0.620720 -0.040873 0
M  V30 12 C 1.407058 -0.266752 -1.403532 0
M  V30 13 C 2.585736 -0.755081 -1.930218 0
M  V30 14 C 2.901120 -0.440882 -3.234564 0
M  V30 15 C 2.056774 0.352297 -4.016446 0
M  V30 16 C 0.892100 0.816934 -3.448836 0
M  V30 17 C 0.546572 0.520132 -2.144211 0
M  V30 18 C -0.748315 1.117824 -1.731585 0
M  V30 19 C -0.572874 2.055812 -0.550800 0
M  V30 20 C -0.849633 3.456944 -1.048853 0
M  V30 21 C -2.281210 3.516528 -1.543160 0
M  V30 22 C -2.446794 2.489397 -2.665041 0
M  V30 23 N -1.174807 1.832878 -2.923965 0
M  V30 24 C -0.202446 1.644827 -3.928314 0
M  V30 25 O -0.351175 2.160551 -5.046853 0
M  V30 26 N -2.035055 -3.528013 1.568164 0
M  V30 27 H -5.151992 -4.345550 1.619399 0
M  V30 28 H -2.677544 -6.841834 1.825985 0
M  V30 29 H -0.165622 -6.853098 1.838923 0
M  V30 30 H 1.001199 -4.754693 1.678636 0
M  V30 31 H 0.382856 -1.655851 2.263650 0
M  V30 32 H 1.432733 -0.031148 0.781013 0
M  V30 33 H 3.309350 -1.373820 -1.419452 0
M  V30 34 H 3.789456 -0.745631 -3.796930 0
M  V30 35 H 2.267362 0.623492 -5.048741 0
M  V30 36 H -1.533438 0.342036 -1.533768 0
M  V30 37 H -1.252016 1.864261 0.281163 0
M  V30 38 H 0.496617 1.971082 -0.224107 0
M  V30 39 H -0.662747 4.228316 -0.292789 0
M  V30 40 H -0.176726 3.594809 -1.944170 0
M  V30 41 H -2.479576 4.541677 -1.928901 0
M  V30 42 H -2.949649 3.246149 -0.697749 0
M  V30 43 H -3.155202 1.701776 -2.337893 0
M  V30 44 H -2.840476 2.993370 -3.569975 0
M  V30 END ATOM
M  V30 BEGIN BOND
M  V30 1 2 1 2
M  V30 2 1 2 3
M  V30 3 2 3 4
M  V30 4 1 4 5
M  V30 5 2 5 6
M  V30 6 1 6 7
M  V30 7 1 7 8
M  V30 8 1 8 9
M  V30 9 2 9 10
M  V30 10 1 9 11
M  V30 11 1 11 12
M  V30 12 2 12 13
M  V30 13 1 13 14
M  V30 14 2 14 15
M  V30 15 1 15 16
M  V30 16 2 16 17
M  V30 17 1 17 18
M  V30 18 1 18 19
M  V30 19 1 19 20
M  V30 20 1 20 21
M  V30 21 1 21 22
M  V30 22 1 22 23
M  V30 23 1 23 24
M  V30 24 2 24 25
M  V30 25 2 7 26
M  V30 26 1 26 3
M  V30 27 1 17 12
M  V30 28 1 23 18
M  V30 29 1 24 16
M  V30 30 1 2 27
M  V30 31 1 4 28
M  V30 32 1 5 29
M  V30 33 1 6 30
M  V30 34 1 8 31
M  V30 35 1 11 32
M  V30 36 1 13 33
M  V30 37 1 14 34
M  V30 38 1 15 35
M  V30 39 1 18 36
M  V30 40 1 19 37
M  V30 41 1 19 38
M  V30 42 1 20 39
M  V30 43 1 20 40
M  V30 44 1 21 41
M  V30 45 1 21 42
M  V30 46 1 22 43
M  V30 47 1 22 44
M  V30 END BOND
M  V30 END CTAB
M  END
>  <Dataset>  (704) 
ChEMBL_Kinases

>  <Ligand_Instance>  (704) 
nan

>  <PDB_ID>  (704) 
nan

>  <Standardized_SMILES>  (704) 
O=Cc1cccc(NC(=O)Nc2cccc3c2C2CCCCN2C3=O)n1

>  <Name>  (704) 
nan

>  <Pocket>  (704) 
nan

>  <ATP_Site>  (704) 
nan

>  <Peripheral>  (704) 
nan

>  <Num_H_Atoms_ProtBoundConf>  (704) 
nan

>  <Num_Resolved_Atoms>  (704) 
nan

>  <Num_Not_Resolved_Atoms>  (704) 
nan

$$$$
CHEMBL3786430
     RDKit          3D

  0  0  0  0  0  0  0  0  0  0999 V3000
M  V30 BEGIN CTAB
M  V30 COUNTS 60 64 0 0 0
M  V30 BEGIN ATOM
M  V30 1 O -1.738004 0.207577 0.946976 0
M  V30 2 C -2.030187 -0.157739 2.091210 0
M  V30 3 N -1.110520 0.207757 3.100651 0
M  V30 4 C 0.085889 0.916166 3.042953 0
M  V30 5 C 0.712197 1.469026 1.953463 0
M  V30 6 C 1.900737 2.165330 1.933940 0
M  V30 7 C 2.441948 2.708557 0.663623 0
M  V30 8 N 3.253508 1.718427 0.038243 0
M  V30 9 C 4.382849 1.258929 0.774692 0
M  V30 10 C 4.847613 -0.064477 0.152763 0
M  V30 11 C 5.065926 0.026079 -1.320625 0
M  V30 12 C 3.957812 0.768452 -2.034400 0
M  V30 13 C 3.625405 2.063218 -1.321692 0
M  V30 14 C 2.522758 2.314919 3.170941 0
M  V30 15 C 1.909544 1.766988 4.275814 0
M  V30 16 N 0.753496 1.106197 4.199197 0
M  V30 17 N -3.229131 -0.880940 2.224908 0
M  V30 18 C -4.017618 -1.141960 1.049850 0
M  V30 19 C -4.941425 -0.151205 0.789751 0
M  V30 20 C -5.754677 -0.297206 -0.314394 0
M  V30 21 C -5.607582 -1.419602 -1.101616 0
M  V30 22 C -4.665989 -2.369838 -0.784806 0
M  V30 23 C -3.826772 -2.275826 0.305032 0
M  V30 24 C -2.901756 -3.436928 0.402593 0
M  V30 25 C -1.480429 -2.996838 0.154646 0
M  V30 26 C -0.733006 -4.074584 -0.553265 0
M  V30 27 C -1.308548 -5.445411 -0.446089 0
M  V30 28 C -2.707328 -5.533479 -1.025288 0
M  V30 29 N -3.326126 -4.230452 -0.730997 0
M  V30 30 C -4.370763 -3.618783 -1.478509 0
M  V30 31 O -4.935403 -4.044373 -2.518588 0
M  V30 32 H -1.479449 -0.159560 3.993105 0
M  V30 33 H 0.231303 1.354038 0.993809 0
M  V30 34 H 3.014576 3.649580 0.839703 0
M  V30 35 H 1.586254 2.938199 0.013091 0
M  V30 36 H 5.222583 1.990312 0.789073 0
M  V30 37 H 4.088128 1.025881 1.802334 0
M  V30 38 H 4.145534 -0.832531 0.477402 0
M  V30 39 H 5.863404 -0.231292 0.615743 0
M  V30 40 H 5.042754 -1.019201 -1.721893 0
M  V30 41 H 6.028287 0.510877 -1.541405 0
M  V30 42 H 3.040127 0.132710 -2.149280 0
M  V30 43 H 4.309249 0.973921 -3.066220 0
M  V30 44 H 4.535835 2.695946 -1.354788 0
M  V30 45 H 2.801797 2.568962 -1.822193 0
M  V30 46 H 3.442215 2.843635 3.220194 0
M  V30 47 H 2.386891 1.879149 5.240081 0
M  V30 48 H -3.473768 -1.191376 3.211142 0
M  V30 49 H -5.072041 0.731667 1.391291 0
M  V30 50 H -6.488022 0.463593 -0.543217 0
M  V30 51 H -6.253098 -1.522673 -1.967006 0
M  V30 52 H -3.031393 -3.963838 1.369422 0
M  V30 53 H -0.979691 -2.661962 1.093127 0
M  V30 54 H -1.567713 -2.132693 -0.567852 0
M  V30 55 H 0.292032 -4.133016 -0.085684 0
M  V30 56 H -0.565797 -3.840590 -1.644571 0
M  V30 57 H -1.285721 -5.807218 0.585480 0
M  V30 58 H -0.669347 -6.116069 -1.054628 0
M  V30 59 H -3.268793 -6.269337 -0.405160 0
M  V30 60 H -2.713880 -5.780054 -2.087207 0
M  V30 END ATOM
M  V30 BEGIN BOND
M  V30 1 2 1 2
M  V30 2 1 2 3
M  V30 3 1 3 4
M  V30 4 2 4 5
M  V30 5 1 5 6
M  V30 6 1 6 7
M  V30 7 1 7 8
M  V30 8 1 8 9
M  V30 9 1 9 10
M  V30 10 1 10 11
M  V30 11 1 11 12
M  V30 12 1 12 13
M  V30 13 2 6 14
M  V30 14 1 14 15
M  V30 15 2 15 16
M  V30 16 1 2 17
M  V30 17 1 17 18
M  V30 18 2 18 19
M  V30 19 1 19 20
M  V30 20 2 20 21
M  V30 21 1 21 22
M  V30 22 2 22 23
M  V30 23 1 23 24
M  V30 24 1 24 25
M  V30 25 1 25 26
M  V30 26 1 26 27
M  V30 27 1 27 28
M  V30 28 1 28 29
M  V30 29 1 29 30
M  V30 30 2 30 31
M  V30 31 1 16 4
M  V30 32 1 23 18
M  V30 33 1 29 24
M  V30 34 1 13 8
M  V30 35 1 30 22
M  V30 36 1 3 32
M  V30 37 1 5 33
M  V30 38 1 7 34
M  V30 39 1 7 35
M  V30 40 1 9 36
M  V30 41 1 9 37
M  V30 42 1 10 38
M  V30 43 1 10 39
M  V30 44 1 11 40
M  V30 45 1 11 41
M  V30 46 1 12 42
M  V30 47 1 12 43
M  V30 48 1 13 44
M  V30 49 1 13 45
M  V30 50 1 14 46
M  V30 51 1 15 47
M  V30 52 1 17 48
M  V30 53 1 19 49
M  V30 54 1 20 50
M  V30 55 1 21 51
M  V30 56 1 24 52
M  V30 57 1 25 53
M  V30 58 1 25 54
M  V30 59 1 26 55
M  V30 60 1 26 56
M  V30 61 1 27 57
M  V30 62 1 27 58
M  V30 63 1 28 59
M  V30 64 1 28 60
M  V30 END BOND
M  V30 END CTAB
M  END
>  <Dataset>  (705) 
ChEMBL_Kinases

>  <Ligand_Instance>  (705) 
nan

>  <PDB_ID>  (705) 
nan

>  <Standardized_SMILES>  (705) 
O=C(Nc1cc(CN2CCCCC2)ccn1)Nc1cccc2c1C1CCCCN1C2=O

>  <Name>  (705) 
nan

>  <Pocket>  (705) 
nan

>  <ATP_Site>  (705) 
nan

>  <Peripheral>  (705) 
nan

>  <Num_H_Atoms_ProtBoundConf>  (705) 
nan

>  <Num_Resolved_Atoms>  (705) 
nan

>  <Num_Not_Resolved_Atoms>  (705) 
nan

$$$$
CHEMBL5077073
     RDKit          3D

  0  0  0  0  0  0  0  0  0  0999 V3000
M  V30 BEGIN CTAB
M  V30 COUNTS 40 42 0 0 0
M  V30 BEGIN ATOM
M  V30 1 C 0.113821 -6.206299 2.207411 0
M  V30 2 O -0.218722 -4.903249 1.855010 0
M  V30 3 C 0.662645 -3.856281 1.694674 0
M  V30 4 C 2.023206 -3.993913 1.873374 0
M  V30 5 C 2.852981 -2.921313 1.701251 0
M  V30 6 C 2.243139 -1.716545 1.343582 0
M  V30 7 C 0.887090 -1.522342 1.151874 0
M  V30 8 C 0.469411 -0.183599 0.772090 0
M  V30 9 C 1.162600 0.449919 -0.267987 0
M  V30 10 C 2.263940 -0.025451 -1.067501 0
M  V30 11 N 3.141575 -0.425430 -1.703764 0
M  V30 12 C 0.634910 1.717985 -0.483833 0
M  V30 13 C 0.875844 2.778363 -1.329483 0
M  V30 14 N 1.927834 2.650017 -2.281254 0
M  V30 15 N 0.136459 3.919078 -1.265863 0
M  V30 16 C -0.852102 3.999873 -0.348800 0
M  V30 17 C -1.740130 5.165316 -0.154950 0
M  V30 18 N -1.122541 2.971287 0.507315 0
M  V30 19 C -0.382834 1.838541 0.438774 0
M  V30 20 N -0.444020 0.702741 1.152688 0
M  V30 21 C -1.361823 0.440582 2.216553 0
M  V30 22 C 0.111587 -2.643680 1.341102 0
M  V30 23 C -1.352902 -2.501608 1.134122 0
M  V30 24 H 1.080594 -6.326438 2.737064 0
M  V30 25 H -0.643750 -6.654124 2.915585 0
M  V30 26 H 0.138706 -6.913066 1.344255 0
M  V30 27 H 2.454662 -4.941785 2.149719 0
M  V30 28 H 3.918608 -2.982447 1.829684 0
M  V30 29 H 2.943115 -0.878564 1.214595 0
M  V30 30 H 1.533541 2.162628 -3.124370 0
M  V30 31 H 2.949339 2.920596 -2.320029 0
M  V30 32 H -1.801762 5.432591 0.907445 0
M  V30 33 H -2.788209 4.952791 -0.475625 0
M  V30 34 H -1.418494 6.041195 -0.767155 0
M  V30 35 H -1.562643 1.385803 2.804027 0
M  V30 36 H -0.970053 -0.282405 2.951894 0
M  V30 37 H -2.363786 0.099850 1.905516 0
M  V30 38 H -1.753110 -3.471859 0.702503 0
M  V30 39 H -1.922259 -2.377573 2.074640 0
M  V30 40 H -1.622990 -1.749629 0.369695 0
M  V30 END ATOM
M  V30 BEGIN BOND
M  V30 1 1 1 2
M  V30 2 1 2 3
M  V30 3 2 3 4
M  V30 4 1 4 5
M  V30 5 2 5 6
M  V30 6 1 6 7
M  V30 7 1 7 8
M  V30 8 2 8 9
M  V30 9 1 9 10
M  V30 10 3 10 11
M  V30 11 1 9 12
M  V30 12 2 12 13
M  V30 13 1 13 14
M  V30 14 1 13 15
M  V30 15 2 15 16
M  V30 16 1 16 17
M  V30 17 1 16 18
M  V30 18 2 18 19
M  V30 19 1 19 20
M  V30 20 1 20 21
M  V30 21 2 7 22
M  V30 22 1 22 23
M  V30 23 1 22 3
M  V30 24 1 20 8
M  V30 25 1 19 12
M  V30 26 1 1 24
M  V30 27 1 1 25
M  V30 28 1 1 26
M  V30 29 1 4 27
M  V30 30 1 5 28
M  V30 31 1 6 29
M  V30 32 1 14 30
M  V30 33 1 14 31
M  V30 34 1 17 32
M  V30 35 1 17 33
M  V30 36 1 17 34
M  V30 37 1 21 35
M  V30 38 1 21 36
M  V30 39 1 21 37
M  V30 40 1 23 38
M  V30 41 1 23 39
M  V30 42 1 23 40
M  V30 END BOND
M  V30 END CTAB
M  END
>  <Dataset>  (706) 
ChEMBL_Kinases

>  <Ligand_Instance>  (706) 
nan

>  <PDB_ID>  (706) 
nan

>  <Standardized_SMILES>  (706) 
COc1cccc(-c2c(C#N)c3c(N)nc(C)nc3n2C)c1C

>  <Name>  (706) 
nan

>  <Pocket>  (706) 
nan

>  <ATP_Site>  (706) 
nan

>  <Peripheral>  (706) 
nan

>  <Num_H_Atoms_ProtBoundConf>  (706) 
nan

>  <Num_Resolved_Atoms>  (706) 
nan

>  <Num_Not_Resolved_Atoms>  (706) 
nan

$$$$
CHEMBL5078332
     RDKit          3D

  0  0  0  0  0  0  0  0  0  0999 V3000
M  V30 BEGIN CTAB
M  V30 COUNTS 54 57 0 0 0
M  V30 BEGIN ATOM
M  V30 1 N 6.339743 1.785683 7.045705 0
M  V30 2 C 6.579127 1.862793 5.627452 0
M  V30 3 O 7.785284 2.223028 5.628437 0
M  V30 4 C 5.359522 1.501482 4.882229 0
M  V30 5 C 5.564580 1.568070 3.363525 0
M  V30 6 N 4.358036 1.210397 2.691409 0
M  V30 7 C 4.359457 1.215818 1.284094 0
M  V30 8 O 5.408253 1.531037 0.661070 0
M  V30 9 C 3.192476 0.870417 0.473670 0
M  V30 10 C 3.316239 0.912735 -0.898122 0
M  V30 11 C 2.248480 0.597065 -1.740068 0
M  V30 12 C 1.040667 0.234080 -1.175483 0
M  V30 13 C 0.890251 0.183722 0.212392 0
M  V30 14 C 1.981606 0.506553 1.027605 0
M  V30 15 C -0.275250 -0.167728 1.057080 0
M  V30 16 O -0.226480 0.086648 2.275274 0
M  V30 17 C -1.514020 -0.809193 0.553431 0
M  V30 18 C -2.493634 -0.870126 1.523928 0
M  V30 19 C -3.735692 -1.425648 1.287447 0
M  V30 20 C -3.961634 -1.925685 0.020626 0
M  V30 21 N -5.199151 -2.508454 -0.306115 0
M  V30 22 C -5.718443 -3.094419 -1.473598 0
M  V30 23 C -6.823425 -2.704233 -2.202073 0
M  V30 24 C -7.201633 -3.400707 -3.341163 0
M  V30 25 C -6.477703 -4.482011 -3.748983 0
M  V30 26 F -6.869828 -5.155763 -4.878223 0
M  V30 27 C -5.359292 -4.909723 -3.046846 0
M  V30 28 C -4.983851 -4.203046 -1.899667 0
M  V30 29 F -3.876896 -4.737984 -1.324085 0
M  V30 30 C -3.001021 -1.878189 -0.968662 0
M  V30 31 C -1.755730 -1.321150 -0.731320 0
M  V30 32 C -0.816904 -1.322425 -1.844734 0
M  V30 33 C -0.046456 -0.087080 -2.088378 0
M  V30 34 H 5.938760 0.916415 7.479265 0
M  V30 35 H 6.064754 1.438055 7.994969 0
M  V30 36 H 4.547679 2.175928 5.211615 0
M  V30 37 H 5.058393 0.463089 5.186842 0
M  V30 38 H 5.938695 2.579557 3.137400 0
M  V30 39 H 6.362530 0.855458 3.113981 0
M  V30 40 H 3.496578 0.951426 3.213006 0
M  V30 41 H 4.215169 1.183366 -1.438913 0
M  V30 42 H 2.302994 0.617575 -2.820663 0
M  V30 43 H 1.863827 0.467180 2.090378 0
M  V30 44 H -2.291738 -0.472804 2.504015 0
M  V30 45 H -4.514662 -1.482137 2.034636 0
M  V30 46 H -5.968819 -2.565250 0.413043 0
M  V30 47 H -7.318653 -1.829729 -1.778618 0
M  V30 48 H -8.088882 -3.023238 -3.857224 0
M  V30 49 H -4.854181 -5.767002 -3.441624 0
M  V30 50 H -3.087927 -2.241380 -1.980410 0
M  V30 51 H -1.357572 -1.605676 -2.771652 0
M  V30 52 H -0.078385 -2.143018 -1.665383 0
M  V30 53 H -0.764879 0.762748 -2.035106 0
M  V30 54 H 0.340600 -0.089979 -3.128711 0
M  V30 END ATOM
M  V30 BEGIN BOND
M  V30 1 1 1 2
M  V30 2 2 2 3
M  V30 3 1 2 4
M  V30 4 1 4 5
M  V30 5 1 5 6
M  V30 6 1 6 7
M  V30 7 2 7 8
M  V30 8 1 7 9
M  V30 9 2 9 10
M  V30 10 1 10 11
M  V30 11 2 11 12
M  V30 12 1 12 13
M  V30 13 2 13 14
M  V30 14 1 13 15
M  V30 15 2 15 16
M  V30 16 1 15 17
M  V30 17 2 17 18
M  V30 18 1 18 19
M  V30 19 2 19 20
M  V30 20 1 20 21
M  V30 21 1 21 22
M  V30 22 2 22 23
M  V30 23 1 23 24
M  V30 24 2 24 25
M  V30 25 1 25 26
M  V30 26 1 25 27
M  V30 27 2 27 28
M  V30 28 1 28 29
M  V30 29 1 20 30
M  V30 30 2 30 31
M  V30 31 1 31 32
M  V30 32 1 32 33
M  V30 33 1 14 9
M  V30 34 1 31 17
M  V30 35 1 33 12
M  V30 36 1 28 22
M  V30 37 1 1 34
M  V30 38 1 1 35
M  V30 39 1 4 36
M  V30 40 1 4 37
M  V30 41 1 5 38
M  V30 42 1 5 39
M  V30 43 1 6 40
M  V30 44 1 10 41
M  V30 45 1 11 42
M  V30 46 1 14 43
M  V30 47 1 18 44
M  V30 48 1 19 45
M  V30 49 1 21 46
M  V30 50 1 23 47
M  V30 51 1 24 48
M  V30 52 1 27 49
M  V30 53 1 30 50
M  V30 54 1 32 51
M  V30 55 1 32 52
M  V30 56 1 33 53
M  V30 57 1 33 54
M  V30 END BOND
M  V30 END CTAB
M  END
>  <Dataset>  (707) 
ChEMBL_Kinases

>  <Ligand_Instance>  (707) 
nan

>  <PDB_ID>  (707) 
nan

>  <Standardized_SMILES>  (707) 
NC(=O)CCNC(=O)c1ccc2c(c1)C(=O)c1ccc(Nc3ccc(F)cc3F)cc1CC2

>  <Name>  (707) 
nan

>  <Pocket>  (707) 
nan

>  <ATP_Site>  (707) 
nan

>  <Peripheral>  (707) 
nan

>  <Num_H_Atoms_ProtBoundConf>  (707) 
nan

>  <Num_Resolved_Atoms>  (707) 
nan

>  <Num_Not_Resolved_Atoms>  (707) 
nan

$$$$
CHEMBL5078340
     RDKit          3D

  0  0  0  0  0  0  0  0  0  0999 V3000
M  V30 BEGIN CTAB
M  V30 COUNTS 49 52 0 0 0
M  V30 BEGIN ATOM
M  V30 1 C 4.244850 -3.604020 4.484595 0
M  V30 2 C 3.059007 -4.507515 4.267762 0
M  V30 3 N 2.284077 -4.101694 3.114459 0
M  V30 4 C 2.902905 -4.073426 1.832588 0
M  V30 5 O 4.123921 -4.401702 1.707238 0
M  V30 6 C 2.080452 -3.661426 0.720028 0
M  V30 7 C 1.653900 -2.371676 0.478288 0
M  V30 8 C 0.866259 -1.996663 -0.589697 0
M  V30 9 C 0.438471 -0.615828 -0.798736 0
M  V30 10 C 0.775264 0.438736 0.027214 0
M  V30 11 C 0.336788 1.728705 -0.219686 0
M  V30 12 C -0.461558 2.018931 -1.308274 0
M  V30 13 N -0.912162 3.347400 -1.551227 0
M  V30 14 S -1.525604 4.405761 -0.330063 0
M  V30 15 O -1.796105 5.728299 -0.984847 0
M  V30 16 O -0.431957 4.605447 0.687882 0
M  V30 17 C -2.958981 3.742988 0.408712 0
M  V30 18 C -3.555816 2.535061 0.103390 0
M  V30 19 C -4.679223 2.170047 0.791453 0
M  V30 20 C -5.262320 2.936021 1.781363 0
M  V30 21 C -4.666624 4.156690 2.095463 0
M  V30 22 Cl -5.414427 5.118753 3.350943 0
M  V30 23 C -3.516839 4.534206 1.393308 0
M  V30 24 Cl -2.888413 6.107227 1.911408 0
M  V30 25 C -0.796554 0.952527 -2.135473 0
M  V30 26 C -0.361605 -0.335949 -1.894374 0
M  V30 27 N 0.502136 -2.965430 -1.437251 0
M  V30 28 C 0.893401 -4.259118 -1.250415 0
M  V30 29 N 0.657923 -5.383283 -1.954424 0
M  V30 30 N 1.251759 -6.402672 -1.378713 0
M  V30 31 C 1.905305 -6.016832 -0.276462 0
M  V30 32 C 1.692028 -4.652128 -0.171853 0
M  V30 33 H 4.459797 -3.436996 5.557299 0
M  V30 34 H 4.029856 -2.633330 4.029063 0
M  V30 35 H 5.157458 -3.985723 3.986444 0
M  V30 36 H 3.479266 -5.537595 4.137090 0
M  V30 37 H 2.443675 -4.445931 5.189930 0
M  V30 38 H 1.277854 -3.835954 3.249328 0
M  V30 39 H 1.992220 -1.653580 1.211029 0
M  V30 40 H 1.396572 0.254159 0.888711 0
M  V30 41 H 0.644862 2.513810 0.478703 0
M  V30 42 H -0.807664 3.562952 -2.579252 0
M  V30 43 H -3.083442 1.962941 -0.663905 0
M  V30 44 H -5.154380 1.211331 0.551285 0
M  V30 45 H -6.160122 2.596134 2.300523 0
M  V30 46 H -1.425370 1.210336 -2.982755 0
M  V30 47 H -0.689459 -1.089427 -2.614456 0
M  V30 48 H 0.083914 -5.401656 -2.825892 0
M  V30 49 H 2.507605 -6.576361 0.457856 0
M  V30 END ATOM
M  V30 BEGIN BOND
M  V30 1 1 1 2
M  V30 2 1 2 3
M  V30 3 1 3 4
M  V30 4 2 4 5
M  V30 5 1 4 6
M  V30 6 2 6 7
M  V30 7 1 7 8
M  V30 8 1 8 9
M  V30 9 2 9 10
M  V30 10 1 10 11
M  V30 11 2 11 12
M  V30 12 1 12 13
M  V30 13 1 13 14
M  V30 14 2 14 15
M  V30 15 2 14 16
M  V30 16 1 14 17
M  V30 17 2 17 18
M  V30 18 1 18 19
M  V30 19 2 19 20
M  V30 20 1 20 21
M  V30 21 1 21 22
M  V30 22 2 21 23
M  V30 23 1 23 24
M  V30 24 1 12 25
M  V30 25 2 25 26
M  V30 26 2 8 27
M  V30 27 1 27 28
M  V30 28 1 28 29
M  V30 29 1 29 30
M  V30 30 2 30 31
M  V30 31 1 31 32
M  V30 32 1 32 6
M  V30 33 1 26 9
M  V30 34 2 32 28
M  V30 35 1 23 17
M  V30 36 1 1 33
M  V30 37 1 1 34
M  V30 38 1 1 35
M  V30 39 1 2 36
M  V30 40 1 2 37
M  V30 41 1 3 38
M  V30 42 1 7 39
M  V30 43 1 10 40
M  V30 44 1 11 41
M  V30 45 1 13 42
M  V30 46 1 18 43
M  V30 47 1 19 44
M  V30 48 1 20 45
M  V30 49 1 25 46
M  V30 50 1 26 47
M  V30 51 1 29 48
M  V30 52 1 31 49
M  V30 END BOND
M  V30 END CTAB
M  END
>  <Dataset>  (708) 
ChEMBL_Kinases

>  <Ligand_Instance>  (708) 
nan

>  <PDB_ID>  (708) 
nan

>  <Standardized_SMILES>  (708) 
CCNC(=O)c1cc(-c2ccc(NS(=O)(=O)c3cccc(Cl)c3Cl)cc2)nc2[nH]ncc12

>  <Name>  (708) 
nan

>  <Pocket>  (708) 
nan

>  <ATP_Site>  (708) 
nan

>  <Peripheral>  (708) 
nan

>  <Num_H_Atoms_ProtBoundConf>  (708) 
nan

>  <Num_Resolved_Atoms>  (708) 
nan

>  <Num_Not_Resolved_Atoms>  (708) 
nan

$$$$
CHEMBL378589
     RDKit          3D

  0  0  0  0  0  0  0  0  0  0999 V3000
M  V30 BEGIN CTAB
M  V30 COUNTS 62 66 0 0 0
M  V30 BEGIN ATOM
M  V30 1 N 5.439676 -4.042950 3.322563 0
M  V30 2 C 4.144277 -3.499799 2.831142 0 CFG=2
M  V30 3 C 4.477587 -2.254309 2.096683 0
M  V30 4 O 3.416854 -1.595161 1.485794 0
M  V30 5 C 3.477785 -0.435144 0.754872 0
M  V30 6 C 4.572614 0.371258 0.437641 0
M  V30 7 N 4.386676 1.477044 -0.304015 0
M  V30 8 C 3.190778 1.847200 -0.758608 0
M  V30 9 C 2.059397 1.108202 -0.491436 0
M  V30 10 C 0.750860 1.500743 -0.986180 0
M  V30 11 C 0.307453 2.787768 -1.193309 0
M  V30 12 C -0.985553 3.016533 -1.678646 0
M  V30 13 C -1.810224 1.943849 -1.947428 0
M  V30 14 N -3.136241 2.100419 -2.443468 0
M  V30 15 C -3.957879 0.968123 -2.698102 0
M  V30 16 O -3.438238 -0.149758 -2.456913 0
M  V30 17 N -5.272262 0.957889 -3.184492 0
M  V30 18 C -5.841920 -0.340251 -3.336257 0
M  V30 19 C -5.844166 -1.210851 -4.403947 0
M  V30 20 C -6.483091 -2.425702 -4.272419 0
M  V30 21 C -7.114000 -2.796926 -3.121572 0
M  V30 22 C -7.121615 -1.953815 -2.062334 0
M  V30 23 C -6.490829 -0.724371 -2.155084 0
M  V30 24 N -1.339112 0.702450 -1.731863 0
M  V30 25 C -0.103177 0.440754 -1.266331 0
M  V30 26 C 2.228414 -0.037235 0.272962 0
M  V30 27 C 3.285663 -3.394954 4.034544 0
M  V30 28 C 1.939858 -2.863097 3.860535 0
M  V30 29 C 0.801359 -3.643631 3.646489 0
M  V30 30 N -0.311505 -2.914836 3.485336 0
M  V30 31 C 0.035583 -1.619744 3.585206 0
M  V30 32 C -0.666699 -0.412474 3.523817 0
M  V30 33 C -0.018030 0.793065 3.687496 0
M  V30 34 C 1.325374 0.819229 3.912524 0
M  V30 35 C 2.017262 -0.351192 3.973081 0
M  V30 36 C 1.402047 -1.593537 3.812775 0
M  V30 37 H 5.209458 -4.985376 3.695835 0
M  V30 38 H 5.689079 -3.445278 4.141410 0
M  V30 39 H 3.782928 -4.304221 2.144245 0
M  V30 40 H 5.213727 -2.549416 1.289007 0
M  V30 41 H 5.047109 -1.584830 2.800199 0
M  V30 42 H 5.491157 -0.016885 0.852729 0
M  V30 43 H 3.127816 2.753639 -1.350488 0
M  V30 44 H 0.994023 3.576975 -0.966220 0
M  V30 45 H -1.329746 4.025789 -1.838885 0
M  V30 46 H -3.560456 3.031613 -2.640877 0
M  V30 47 H -5.698597 1.907092 -3.386010 0
M  V30 48 H -5.313667 -0.795936 -5.248536 0
M  V30 49 H -6.436211 -3.048939 -5.159479 0
M  V30 50 H -7.587501 -3.770139 -3.114246 0
M  V30 51 H -7.638647 -2.289210 -1.161604 0
M  V30 52 H -6.568948 -0.136713 -1.229811 0
M  V30 53 H 0.078341 -0.637181 -1.163907 0
M  V30 54 H 1.296704 -0.594997 0.462197 0
M  V30 55 H 3.825855 -2.758176 4.792667 0
M  V30 56 H 3.196569 -4.434708 4.452649 0
M  V30 57 H 0.730395 -4.729948 3.599695 0
M  V30 58 H -1.285055 -3.224117 3.313452 0
M  V30 59 H -1.742761 -0.491451 3.340462 0
M  V30 60 H -0.614346 1.710124 3.629730 0
M  V30 61 H 1.870396 1.746414 4.046582 0
M  V30 62 H 3.096221 -0.351152 4.151858 0
M  V30 END ATOM
M  V30 BEGIN BOND
M  V30 1 1 1 2
M  V30 2 1 2 3
M  V30 3 1 3 4
M  V30 4 1 4 5
M  V30 5 2 5 6
M  V30 6 1 6 7
M  V30 7 2 7 8
M  V30 8 1 8 9
M  V30 9 1 9 10
M  V30 10 2 10 11
M  V30 11 1 11 12
M  V30 12 2 12 13
M  V30 13 1 13 14
M  V30 14 1 14 15
M  V30 15 2 15 16
M  V30 16 1 15 17
M  V30 17 1 17 18
M  V30 18 2 18 19
M  V30 19 1 19 20
M  V30 20 2 20 21
M  V30 21 1 21 22
M  V30 22 2 22 23
M  V30 23 1 13 24
M  V30 24 2 24 25
M  V30 25 2 9 26
M  V30 26 1 2 27
M  V30 27 1 27 28
M  V30 28 2 28 29
M  V30 29 1 29 30
M  V30 30 1 30 31
M  V30 31 2 31 32
M  V30 32 1 32 33
M  V30 33 2 33 34
M  V30 34 1 34 35
M  V30 35 2 35 36
M  V30 36 1 26 5
M  V30 37 1 36 28
M  V30 38 1 25 10
M  V30 39 1 36 31
M  V30 40 1 23 18
M  V30 41 1 1 37
M  V30 42 1 1 38
M  V30 43 1 2 39 CFG=3
M  V30 44 1 3 40
M  V30 45 1 3 41
M  V30 46 1 6 42
M  V30 47 1 8 43
M  V30 48 1 11 44
M  V30 49 1 12 45
M  V30 50 1 14 46
M  V30 51 1 17 47
M  V30 52 1 19 48
M  V30 53 1 20 49
M  V30 54 1 21 50
M  V30 55 1 22 51
M  V30 56 1 23 52
M  V30 57 1 25 53
M  V30 58 1 26 54
M  V30 59 1 27 55
M  V30 60 1 27 56
M  V30 61 1 29 57
M  V30 62 1 30 58
M  V30 63 1 32 59
M  V30 64 1 33 60
M  V30 65 1 34 61
M  V30 66 1 35 62
M  V30 END BOND
M  V30 END CTAB
M  END
>  <Dataset>  (709) 
ChEMBL_Kinases

>  <Ligand_Instance>  (709) 
nan

>  <PDB_ID>  (709) 
nan

>  <Standardized_SMILES>  (709) 
N[C@H](COc1cncc(-c2ccc(NC(=O)Nc3ccccc3)nc2)c1)Cc1c[nH]c2ccccc12

>  <Name>  (709) 
nan

>  <Pocket>  (709) 
nan

>  <ATP_Site>  (709) 
nan

>  <Peripheral>  (709) 
nan

>  <Num_H_Atoms_ProtBoundConf>  (709) 
nan

>  <Num_Resolved_Atoms>  (709) 
nan

>  <Num_Not_Resolved_Atoms>  (709) 
nan

$$$$
CHEMBL3785771
     RDKit          3D

  0  0  0  0  0  0  0  0  0  0999 V3000
M  V30 BEGIN CTAB
M  V30 COUNTS 44 47 0 0 0
M  V30 BEGIN ATOM
M  V30 1 C 1.619815 -3.977804 1.283205 0
M  V30 2 C 2.984223 -3.856816 0.701433 0
M  V30 3 N 4.069659 -4.505892 1.151716 0
M  V30 4 C 5.269927 -4.353962 0.584109 0
M  V30 5 C 5.418511 -3.499168 -0.510409 0
M  V30 6 N 4.314628 -2.849875 -0.955090 0
M  V30 7 C 3.104424 -3.004100 -0.381515 0
M  V30 8 N 2.059513 -2.244663 -0.979891 0
M  V30 9 C 1.883842 -0.930882 -0.414201 0
M  V30 10 O 2.611058 -0.510747 0.535092 0
M  V30 11 N 0.834818 -0.169623 -1.015479 0
M  V30 12 C 0.246123 1.102364 -0.876479 0
M  V30 13 C 0.804391 2.115556 -1.624928 0
M  V30 14 C 0.266027 3.392377 -1.533507 0
M  V30 15 C -0.799703 3.641905 -0.715490 0
M  V30 16 C -1.330084 2.598919 0.018002 0
M  V30 17 C -0.830078 1.313119 -0.038861 0
M  V30 18 C -1.627308 0.418553 0.873787 0
M  V30 19 C -0.833035 -0.150099 1.990995 0
M  V30 20 C -1.193202 0.558207 3.274571 0
M  V30 21 C -2.629294 0.125773 3.573358 0
M  V30 22 C -3.455544 0.553143 2.354400 0
M  V30 23 N -2.607456 1.325514 1.434128 0
M  V30 24 C -2.465860 2.650724 0.947067 0
M  V30 25 O -3.234091 3.567606 1.329653 0
M  V30 26 H 1.699926 -4.238966 2.363616 0
M  V30 27 H 1.056282 -4.779871 0.800875 0
M  V30 28 H 1.124226 -2.993133 1.242202 0
M  V30 29 H 6.148240 -4.877950 0.946989 0
M  V30 30 H 6.366264 -3.332334 -1.016032 0
M  V30 31 H 1.529069 -2.695168 -1.753247 0
M  V30 32 H 0.252807 -0.541669 -1.797054 0
M  V30 33 H 1.638957 1.947572 -2.273208 0
M  V30 34 H 0.678357 4.219415 -2.108291 0
M  V30 35 H -1.217243 4.641552 -0.647198 0
M  V30 36 H -2.140377 -0.373707 0.272303 0
M  V30 37 H 0.257361 -0.075889 1.873601 0
M  V30 38 H -1.061495 -1.233102 2.062996 0
M  V30 39 H -1.232496 1.646215 3.087610 0
M  V30 40 H -0.510578 0.283433 4.090195 0
M  V30 41 H -2.567295 -0.997012 3.617023 0
M  V30 42 H -3.014266 0.535703 4.507561 0
M  V30 43 H -4.238540 1.237003 2.743623 0
M  V30 44 H -3.852616 -0.353042 1.858355 0
M  V30 END ATOM
M  V30 BEGIN BOND
M  V30 1 1 1 2
M  V30 2 2 2 3
M  V30 3 1 3 4
M  V30 4 2 4 5
M  V30 5 1 5 6
M  V30 6 2 6 7
M  V30 7 1 7 8
M  V30 8 1 8 9
M  V30 9 2 9 10
M  V30 10 1 9 11
M  V30 11 1 11 12
M  V30 12 2 12 13
M  V30 13 1 13 14
M  V30 14 2 14 15
M  V30 15 1 15 16
M  V30 16 2 16 17
M  V30 17 1 17 18
M  V30 18 1 18 19
M  V30 19 1 19 20
M  V30 20 1 20 21
M  V30 21 1 21 22
M  V30 22 1 22 23
M  V30 23 1 23 24
M  V30 24 2 24 25
M  V30 25 1 7 2
M  V30 26 1 17 12
M  V30 27 1 23 18
M  V30 28 1 24 16
M  V30 29 1 1 26
M  V30 30 1 1 27
M  V30 31 1 1 28
M  V30 32 1 4 29
M  V30 33 1 5 30
M  V30 34 1 8 31
M  V30 35 1 11 32
M  V30 36 1 13 33
M  V30 37 1 14 34
M  V30 38 1 15 35
M  V30 39 1 18 36
M  V30 40 1 19 37
M  V30 41 1 19 38
M  V30 42 1 20 39
M  V30 43 1 20 40
M  V30 44 1 21 41
M  V30 45 1 21 42
M  V30 46 1 22 43
M  V30 47 1 22 44
M  V30 END BOND
M  V30 END CTAB
M  END
>  <Dataset>  (710) 
ChEMBL_Kinases

>  <Ligand_Instance>  (710) 
nan

>  <PDB_ID>  (710) 
nan

>  <Standardized_SMILES>  (710) 
Cc1nccnc1NC(=O)Nc1cccc2c1C1CCCCN1C2=O

>  <Name>  (710) 
nan

>  <Pocket>  (710) 
nan

>  <ATP_Site>  (710) 
nan

>  <Peripheral>  (710) 
nan

>  <Num_H_Atoms_ProtBoundConf>  (710) 
nan

>  <Num_Resolved_Atoms>  (710) 
nan

>  <Num_Not_Resolved_Atoms>  (710) 
nan

$$$$
CHEMBL3785571
     RDKit          3D

  0  0  0  0  0  0  0  0  0  0999 V3000
M  V30 BEGIN CTAB
M  V30 COUNTS 45 48 0 0 0
M  V30 BEGIN ATOM
M  V30 1 C 1.321284 -4.934518 -1.845915 0
M  V30 2 C 2.078761 -4.666932 -0.598044 0
M  V30 3 C 2.736907 -5.737806 0.015939 0
M  V30 4 C 3.426007 -5.398075 1.185903 0
M  V30 5 C 3.482498 -4.130348 1.729152 0
M  V30 6 N 2.817422 -3.131642 1.078598 0
M  V30 7 C 2.129499 -3.397123 -0.062792 0
M  V30 8 N 1.465963 -2.295099 -0.673789 0
M  V30 9 C 1.543285 -1.018215 -0.095784 0
M  V30 10 O 2.167292 -0.760374 0.945533 0
M  V30 11 N 0.883231 0.119372 -0.688619 0
M  V30 12 C 1.091461 1.335219 0.066324 0
M  V30 13 C 2.159428 2.176223 -0.186964 0
M  V30 14 C 2.330320 3.329669 0.551646 0
M  V30 15 C 1.384706 3.594854 1.548145 0
M  V30 16 C 0.324486 2.735877 1.781181 0
M  V30 17 C 0.159043 1.586481 1.041098 0
M  V30 18 C -1.054199 0.871694 1.512825 0
M  V30 19 C -2.140147 0.824511 0.462645 0
M  V30 20 C -3.362496 1.627182 0.841238 0
M  V30 21 C -3.918385 1.260089 2.199300 0
M  V30 22 C -2.775875 1.166148 3.183030 0
M  V30 23 N -1.566223 1.710242 2.583819 0
M  V30 24 C -0.751171 2.863041 2.781263 0
M  V30 25 O -0.968426 3.752281 3.643620 0
M  V30 26 H 0.398122 -4.327287 -1.928377 0
M  V30 27 H 2.001923 -4.777942 -2.708025 0
M  V30 28 H 0.955629 -5.997184 -1.793750 0
M  V30 29 H 2.732464 -6.747843 -0.355228 0
M  V30 30 H 3.938788 -6.243579 1.660252 0
M  V30 31 H 4.046497 -3.987442 2.637967 0
M  V30 32 H 0.909321 -2.386660 -1.552761 0
M  V30 33 H 0.339738 -0.060570 -1.579434 0
M  V30 34 H 2.863527 1.901931 -0.987702 0
M  V30 35 H 3.160065 4.000028 0.367813 0
M  V30 36 H 1.495436 4.480309 2.132313 0
M  V30 37 H -0.803917 -0.123554 1.919967 0
M  V30 38 H -2.452833 -0.203983 0.203982 0
M  V30 39 H -1.729276 1.317025 -0.448377 0
M  V30 40 H -4.147742 1.376852 0.097782 0
M  V30 41 H -3.106643 2.713877 0.827490 0
M  V30 42 H -4.550227 0.361751 2.150340 0
M  V30 43 H -4.566004 2.098778 2.540031 0
M  V30 44 H -3.014307 1.665295 4.153990 0
M  V30 45 H -2.606401 0.084449 3.382523 0
M  V30 END ATOM
M  V30 BEGIN BOND
M  V30 1 1 1 2
M  V30 2 2 2 3
M  V30 3 1 3 4
M  V30 4 2 4 5
M  V30 5 1 5 6
M  V30 6 2 6 7
M  V30 7 1 7 8
M  V30 8 1 8 9
M  V30 9 2 9 10
M  V30 10 1 9 11
M  V30 11 1 11 12
M  V30 12 2 12 13
M  V30 13 1 13 14
M  V30 14 2 14 15
M  V30 15 1 15 16
M  V30 16 2 16 17
M  V30 17 1 17 18
M  V30 18 1 18 19
M  V30 19 1 19 20
M  V30 20 1 20 21
M  V30 21 1 21 22
M  V30 22 1 22 23
M  V30 23 1 23 24
M  V30 24 2 24 25
M  V30 25 1 7 2
M  V30 26 1 17 12
M  V30 27 1 23 18
M  V30 28 1 24 16
M  V30 29 1 1 26
M  V30 30 1 1 27
M  V30 31 1 1 28
M  V30 32 1 3 29
M  V30 33 1 4 30
M  V30 34 1 5 31
M  V30 35 1 8 32
M  V30 36 1 11 33
M  V30 37 1 13 34
M  V30 38 1 14 35
M  V30 39 1 15 36
M  V30 40 1 18 37
M  V30 41 1 19 38
M  V30 42 1 19 39
M  V30 43 1 20 40
M  V30 44 1 20 41
M  V30 45 1 21 42
M  V30 46 1 21 43
M  V30 47 1 22 44
M  V30 48 1 22 45
M  V30 END BOND
M  V30 END CTAB
M  END
>  <Dataset>  (711) 
ChEMBL_Kinases

>  <Ligand_Instance>  (711) 
nan

>  <PDB_ID>  (711) 
nan

>  <Standardized_SMILES>  (711) 
Cc1cccnc1NC(=O)Nc1cccc2c1C1CCCCN1C2=O

>  <Name>  (711) 
nan

>  <Pocket>  (711) 
nan

>  <ATP_Site>  (711) 
nan

>  <Peripheral>  (711) 
nan

>  <Num_H_Atoms_ProtBoundConf>  (711) 
nan

>  <Num_Resolved_Atoms>  (711) 
nan

>  <Num_Not_Resolved_Atoms>  (711) 
nan

$$$$
CHEMBL3785500
     RDKit          3D

  0  0  0  0  0  0  0  0  0  0999 V3000
M  V30 BEGIN CTAB
M  V30 COUNTS 67 73 0 0 0
M  V30 BEGIN ATOM
M  V30 1 N 4.862423 -0.391487 2.254955 0
M  V30 2 C 4.911586 -1.406780 1.262685 0
M  V30 3 N 6.123594 -1.849239 0.851566 0
M  V30 4 C 6.165041 -2.816152 -0.112103 0
M  V30 5 N 5.047968 -3.358152 -0.681372 0
M  V30 6 C 3.819081 -2.936972 -0.292179 0
M  V30 7 C 3.793383 -1.963022 0.680377 0
M  V30 8 C 2.504664 -1.633573 0.970783 0
M  V30 9 C 1.804789 -0.738460 1.882049 0
M  V30 10 C 2.114088 -0.822207 3.224977 0
M  V30 11 C 1.521397 -0.012042 4.169823 0
M  V30 12 C 0.594579 0.897861 3.718403 0
M  V30 13 C 0.199325 1.079415 2.414835 0
M  V30 14 O -0.630678 1.830741 1.688978 0
M  V30 15 C -1.526010 2.809298 1.923861 0
M  V30 16 C -2.728737 2.582822 2.749761 0
M  V30 17 C -2.570034 2.386648 4.208291 0
M  V30 18 C -3.948351 2.830752 4.725593 0
M  V30 19 C -4.575303 3.383713 3.479775 0
M  V30 20 C -5.048954 2.239648 2.604974 0
M  V30 21 C -3.727255 1.635177 2.177811 0
M  V30 22 O -3.463934 3.805312 2.749529 0
M  V30 23 C 0.845068 0.218813 1.500459 0
M  V30 24 C 1.732809 -2.447398 0.132676 0
M  V30 25 N 2.543533 -3.228146 -0.622682 0
M  V30 26 C 2.157665 -4.210676 -1.616663 0 CFG=1
M  V30 27 C 0.800375 -4.825945 -1.454243 0
M  V30 28 C 0.297882 -4.252029 -2.772969 0 CFG=1
M  V30 29 C -0.903072 -3.371821 -2.653262 0
M  V30 30 N -1.375636 -2.831783 -3.899394 0
M  V30 31 C -2.553220 -1.991440 -3.681480 0
M  V30 32 C -2.007776 -0.936157 -4.621844 0
M  V30 33 C -0.689810 -1.650604 -4.390699 0
M  V30 34 C 1.629610 -3.580026 -2.911173 0
M  V30 35 H 5.023904 -0.395542 3.299474 0
M  V30 36 H 4.627010 0.578503 1.978036 0
M  V30 37 H 7.156271 -3.135795 -0.405707 0
M  V30 38 H 2.821501 -1.510362 3.696042 0
M  V30 39 H 1.688764 0.005997 5.236868 0
M  V30 40 H 0.091908 1.577775 4.375117 0
M  V30 41 H -1.857060 3.352062 0.971920 0
M  V30 42 H -0.964938 3.659578 2.448540 0
M  V30 43 H -1.778295 3.021698 4.662203 0
M  V30 44 H -2.439637 1.353396 4.537414 0
M  V30 45 H -4.537388 1.994504 5.100308 0
M  V30 46 H -3.847333 3.589452 5.510663 0
M  V30 47 H -5.338579 4.150882 3.631633 0
M  V30 48 H -5.567216 2.618356 1.719186 0
M  V30 49 H -5.654157 1.519227 3.196715 0
M  V30 50 H -3.605201 0.649651 2.709141 0
M  V30 51 H -3.642370 1.512211 1.082880 0
M  V30 52 H 0.727043 0.142258 0.402980 0
M  V30 53 H 0.639465 -2.522319 0.023433 0
M  V30 54 H 2.969112 -4.938393 -1.818805 0
M  V30 55 H 0.266632 -4.432957 -0.585143 0
M  V30 56 H 0.866355 -5.947811 -1.501482 0
M  V30 57 H 0.082954 -5.058393 -3.523320 0
M  V30 58 H -1.705980 -3.932888 -2.132992 0
M  V30 59 H -0.646349 -2.506544 -2.008518 0
M  V30 60 H -3.507771 -2.437162 -3.980391 0
M  V30 61 H -2.621592 -1.584345 -2.653994 0
M  V30 62 H -2.055491 0.106796 -4.248657 0
M  V30 63 H -2.448029 -1.021049 -5.620289 0
M  V30 64 H -0.151013 -1.787624 -5.335415 0
M  V30 65 H -0.125005 -1.072022 -3.621994 0
M  V30 66 H 1.664245 -2.488700 -2.890191 0
M  V30 67 H 2.158909 -4.006747 -3.812981 0
M  V30 END ATOM
M  V30 BEGIN BOND
M  V30 1 1 1 2
M  V30 2 1 2 3
M  V30 3 2 3 4
M  V30 4 1 4 5
M  V30 5 2 5 6
M  V30 6 1 6 7
M  V30 7 1 7 8
M  V30 8 1 8 9
M  V30 9 2 9 10
M  V30 10 1 10 11
M  V30 11 2 11 12
M  V30 12 1 12 13
M  V30 13 1 13 14
M  V30 14 1 14 15
M  V30 15 1 15 16
M  V30 16 1 16 17
M  V30 17 1 17 18
M  V30 18 1 18 19
M  V30 19 1 19 20
M  V30 20 1 20 21
M  V30 21 1 19 22
M  V30 22 2 13 23
M  V30 23 2 8 24
M  V30 24 1 24 25
M  V30 25 1 25 26
M  V30 26 1 26 27
M  V30 27 1 27 28
M  V30 28 1 28 29
M  V30 29 1 29 30
M  V30 30 1 30 31
M  V30 31 1 31 32
M  V30 32 1 32 33
M  V30 33 1 28 34
M  V30 34 2 7 2
M  V30 35 1 23 9
M  V30 36 1 34 26
M  V30 37 1 25 6
M  V30 38 1 33 30
M  V30 39 1 21 16
M  V30 40 1 22 16
M  V30 41 1 1 35
M  V30 42 1 1 36
M  V30 43 1 4 37
M  V30 44 1 10 38
M  V30 45 1 11 39
M  V30 46 1 12 40
M  V30 47 1 15 41
M  V30 48 1 15 42
M  V30 49 1 17 43
M  V30 50 1 17 44
M  V30 51 1 18 45
M  V30 52 1 18 46
M  V30 53 1 19 47
M  V30 54 1 20 48
M  V30 55 1 20 49
M  V30 56 1 21 50
M  V30 57 1 21 51
M  V30 58 1 23 52
M  V30 59 1 24 53
M  V30 60 1 26 54 CFG=3
M  V30 61 1 27 55
M  V30 62 1 27 56
M  V30 63 1 28 57 CFG=3
M  V30 64 1 29 58
M  V30 65 1 29 59
M  V30 66 1 31 60
M  V30 67 1 31 61
M  V30 68 1 32 62
M  V30 69 1 32 63
M  V30 70 1 33 64
M  V30 71 1 33 65
M  V30 72 1 34 66
M  V30 73 1 34 67
M  V30 END BOND
M  V30 END CTAB
M  END
>  <Dataset>  (712) 
ChEMBL_Kinases

>  <Ligand_Instance>  (712) 
nan

>  <PDB_ID>  (712) 
nan

>  <Standardized_SMILES>  (712) 
Nc1ncnc2c1c(-c1cccc(OCC34CCC(CC3)O4)c1)cn2[C@H]1C[C@@H](CN2CCC2)C1

>  <Name>  (712) 
nan

>  <Pocket>  (712) 
nan

>  <ATP_Site>  (712) 
nan

>  <Peripheral>  (712) 
nan

>  <Num_H_Atoms_ProtBoundConf>  (712) 
nan

>  <Num_Resolved_Atoms>  (712) 
nan

>  <Num_Not_Resolved_Atoms>  (712) 
nan

$$$$
CHEMBL3785408
     RDKit          3D

  0  0  0  0  0  0  0  0  0  0999 V3000
M  V30 BEGIN CTAB
M  V30 COUNTS 45 48 0 0 0
M  V30 BEGIN ATOM
M  V30 1 C -1.039810 -4.936103 -4.413881 0
M  V30 2 C -0.206982 -4.435060 -3.296187 0
M  V30 3 C 0.636807 -5.327512 -2.672183 0
M  V30 4 C 1.398095 -4.851707 -1.643927 0
M  V30 5 C 1.267222 -3.522683 -1.308286 0
M  V30 6 C 0.431196 -2.623083 -1.920960 0
M  V30 7 N 0.252358 -1.254630 -1.624860 0
M  V30 8 C 0.843788 -0.440413 -0.664951 0
M  V30 9 O 1.686491 -0.985087 0.083392 0
M  V30 10 N 0.607696 0.937676 -0.429323 0
M  V30 11 C 1.302097 1.632427 0.602914 0
M  V30 12 C 2.510318 2.156160 0.129563 0
M  V30 13 C 3.326640 2.873242 0.989351 0
M  V30 14 C 2.917033 3.048224 2.294283 0
M  V30 15 C 1.712410 2.502837 2.690293 0
M  V30 16 C 0.849028 1.778180 1.891295 0
M  V30 17 C -0.344855 1.334183 2.586761 0
M  V30 18 C -0.569423 -0.119694 2.744092 0
M  V30 19 C -1.947563 -0.254886 3.394657 0
M  V30 20 C -2.282835 0.850495 4.330118 0
M  V30 21 C -1.140770 1.620547 4.883962 0
M  V30 22 N -0.100407 1.892630 3.929480 0
M  V30 23 C 1.128427 2.601293 4.034591 0
M  V30 24 O 1.513772 3.145978 5.100523 0
M  V30 25 N -0.291129 -3.151464 -2.924527 0
M  V30 26 H -1.747425 -4.169641 -4.737909 0
M  V30 27 H -0.381262 -5.308493 -5.223291 0
M  V30 28 H -1.627815 -5.799378 -4.079634 0
M  V30 29 H 0.717739 -6.360341 -2.956341 0
M  V30 30 H 2.084590 -5.486267 -1.102947 0
M  V30 31 H 1.879045 -3.172892 -0.493743 0
M  V30 32 H -0.421389 -0.685160 -2.174516 0
M  V30 33 H -0.102751 1.399285 -1.059333 0
M  V30 34 H 2.890389 2.061906 -0.860417 0
M  V30 35 H 4.252203 3.292588 0.685825 0
M  V30 36 H 3.553381 3.607727 2.966167 0
M  V30 37 H -1.289778 1.813575 2.217399 0
M  V30 38 H 0.167358 -0.577871 3.436280 0
M  V30 39 H -0.635448 -0.667207 1.785857 0
M  V30 40 H -2.683954 -0.236899 2.565343 0
M  V30 41 H -2.060559 -1.263590 3.857463 0
M  V30 42 H -3.044519 1.547757 3.881488 0
M  V30 43 H -2.850382 0.386802 5.190184 0
M  V30 44 H -0.791901 1.150930 5.827416 0
M  V30 45 H -1.538291 2.622612 5.208665 0
M  V30 END ATOM
M  V30 BEGIN BOND
M  V30 1 1 1 2
M  V30 2 2 2 3
M  V30 3 1 3 4
M  V30 4 2 4 5
M  V30 5 1 5 6
M  V30 6 1 6 7
M  V30 7 1 7 8
M  V30 8 2 8 9
M  V30 9 1 8 10
M  V30 10 1 10 11
M  V30 11 2 11 12
M  V30 12 1 12 13
M  V30 13 2 13 14
M  V30 14 1 14 15
M  V30 15 2 15 16
M  V30 16 1 16 17
M  V30 17 1 17 18
M  V30 18 1 18 19
M  V30 19 1 19 20
M  V30 20 1 20 21
M  V30 21 1 21 22
M  V30 22 1 22 23
M  V30 23 2 23 24
M  V30 24 2 6 25
M  V30 25 1 25 2
M  V30 26 1 16 11
M  V30 27 1 22 17
M  V30 28 1 23 15
M  V30 29 1 1 26
M  V30 30 1 1 27
M  V30 31 1 1 28
M  V30 32 1 3 29
M  V30 33 1 4 30
M  V30 34 1 5 31
M  V30 35 1 7 32
M  V30 36 1 10 33
M  V30 37 1 12 34
M  V30 38 1 13 35
M  V30 39 1 14 36
M  V30 40 1 17 37
M  V30 41 1 18 38
M  V30 42 1 18 39
M  V30 43 1 19 40
M  V30 44 1 19 41
M  V30 45 1 20 42
M  V30 46 1 20 43
M  V30 47 1 21 44
M  V30 48 1 21 45
M  V30 END BOND
M  V30 END CTAB
M  END
>  <Dataset>  (713) 
ChEMBL_Kinases

>  <Ligand_Instance>  (713) 
nan

>  <PDB_ID>  (713) 
nan

>  <Standardized_SMILES>  (713) 
Cc1cccc(NC(=O)Nc2cccc3c2C2CCCCN2C3=O)n1

>  <Name>  (713) 
nan

>  <Pocket>  (713) 
nan

>  <ATP_Site>  (713) 
nan

>  <Peripheral>  (713) 
nan

>  <Num_H_Atoms_ProtBoundConf>  (713) 
nan

>  <Num_Resolved_Atoms>  (713) 
nan

>  <Num_Not_Resolved_Atoms>  (713) 
nan

$$$$
CHEMBL5078346
     RDKit          3D

  0  0  0  0  0  0  0  0  0  0999 V3000
M  V30 BEGIN CTAB
M  V30 COUNTS 27 28 0 0 0
M  V30 BEGIN ATOM
M  V30 1 C -1.128216 -3.208058 3.678595 0
M  V30 2 O 0.186508 -3.379545 3.185348 0
M  V30 3 C 0.691271 -2.515948 2.249262 0
M  V30 4 C 0.043966 -1.435077 1.691381 0
M  V30 5 C 0.663486 -0.636937 0.752930 0
M  V30 6 C -0.015280 0.509322 0.156790 0
M  V30 7 C -0.958169 1.315760 0.759403 0
M  V30 8 C -1.511392 2.372902 0.049918 0
M  V30 9 N -1.138942 2.618692 -1.215406 0
M  V30 10 C -0.227663 1.881638 -1.874729 0
M  V30 11 N 0.176199 2.132931 -3.217714 0
M  V30 12 C 0.317686 0.826256 -1.151150 0
M  V30 13 C 1.954675 -0.952589 0.387226 0
M  V30 14 C 2.640239 -2.026235 0.920936 0
M  V30 15 C 1.997011 -2.818068 1.865589 0
M  V30 16 Cl 2.905227 -4.178697 2.522297 0
M  V30 17 H -1.180832 -2.415252 4.461486 0
M  V30 18 H -1.775688 -2.969855 2.807182 0
M  V30 19 H -1.434618 -4.191810 4.100367 0
M  V30 20 H -0.963702 -1.244865 2.022375 0
M  V30 21 H -1.210757 1.055913 1.787979 0
M  V30 22 H -2.250251 2.989001 0.550449 0
M  V30 23 H -0.321173 2.062039 -4.127712 0
M  V30 24 H 1.156129 2.462309 -3.465777 0
M  V30 25 H 1.057676 0.228156 -1.687462 0
M  V30 26 H 2.511932 -0.361801 -0.354747 0
M  V30 27 H 3.660336 -2.264548 0.623416 0
M  V30 END ATOM
M  V30 BEGIN BOND
M  V30 1 1 1 2
M  V30 2 1 2 3
M  V30 3 2 3 4
M  V30 4 1 4 5
M  V30 5 1 5 6
M  V30 6 2 6 7
M  V30 7 1 7 8
M  V30 8 2 8 9
M  V30 9 1 9 10
M  V30 10 1 10 11
M  V30 11 2 10 12
M  V30 12 2 5 13
M  V30 13 1 13 14
M  V30 14 2 14 15
M  V30 15 1 15 16
M  V30 16 1 15 3
M  V30 17 1 12 6
M  V30 18 1 1 17
M  V30 19 1 1 18
M  V30 20 1 1 19
M  V30 21 1 4 20
M  V30 22 1 7 21
M  V30 23 1 8 22
M  V30 24 1 11 23
M  V30 25 1 11 24
M  V30 26 1 12 25
M  V30 27 1 13 26
M  V30 28 1 14 27
M  V30 END BOND
M  V30 END CTAB
M  END
>  <Dataset>  (714) 
ChEMBL_Kinases

>  <Ligand_Instance>  (714) 
nan

>  <PDB_ID>  (714) 
nan

>  <Standardized_SMILES>  (714) 
COc1cc(-c2ccnc(N)c2)ccc1Cl

>  <Name>  (714) 
nan

>  <Pocket>  (714) 
nan

>  <ATP_Site>  (714) 
nan

>  <Peripheral>  (714) 
nan

>  <Num_H_Atoms_ProtBoundConf>  (714) 
nan

>  <Num_Resolved_Atoms>  (714) 
nan

>  <Num_Not_Resolved_Atoms>  (714) 
nan

$$$$
CHEMBL5078454
     RDKit          3D

  0  0  0  0  0  0  0  0  0  0999 V3000
M  V30 BEGIN CTAB
M  V30 COUNTS 52 55 0 0 0
M  V30 BEGIN ATOM
M  V30 1 C 1.809649 -2.729425 -0.597343 0
M  V30 2 N 3.058801 -3.297452 -0.146544 0
M  V30 3 N 3.249319 -4.580210 0.057937 0
M  V30 4 C 4.494137 -4.825434 0.476535 0
M  V30 5 C 5.159558 -3.603959 0.548557 0
M  V30 6 C 4.205805 -2.686841 0.146385 0
M  V30 7 N 4.488905 -1.300671 0.080975 0
M  V30 8 C 3.724484 -0.174165 -0.301253 0
M  V30 9 N 3.773776 0.644160 -1.392484 0
M  V30 10 C 2.909238 1.658695 -1.532273 0
M  V30 11 C 1.942028 1.907316 -0.577867 0
M  V30 12 C 1.881807 1.095975 0.517763 0
M  V30 13 N 0.904531 1.271876 1.541105 0
M  V30 14 C 0.047654 2.380207 1.818848 0
M  V30 15 C -1.374269 2.070986 1.547067 0
M  V30 16 N -1.740046 0.679743 1.759693 0
M  V30 17 C -3.145494 0.415604 1.464756 0
M  V30 18 C -3.927360 0.046933 2.716320 0
M  V30 19 O -3.493091 -1.083241 3.354146 0
M  V30 20 C -3.323955 -0.613560 0.409918 0
M  V30 21 C -4.294026 -1.591700 0.403251 0
M  V30 22 C -4.434797 -2.544073 -0.591526 0
M  V30 23 C -3.530611 -2.507593 -1.658629 0
M  V30 24 C -2.552963 -1.532610 -1.664804 0
M  V30 25 Cl -1.411063 -1.479890 -2.995324 0
M  V30 26 C -2.444475 -0.599552 -0.654535 0
M  V30 27 C -0.786111 -0.276515 2.210720 0
M  V30 28 O -1.165403 -1.479445 2.349459 0
M  V30 29 C 0.622735 0.188206 2.493812 0
M  V30 30 N 2.767428 0.096535 0.613782 0
M  V30 31 H 1.142347 -3.523347 -1.031085 0
M  V30 32 H 1.323355 -2.241678 0.291960 0
M  V30 33 H 2.050431 -1.974489 -1.397705 0
M  V30 34 H 4.850448 -5.820684 0.702313 0
M  V30 35 H 6.202031 -3.461066 0.866987 0
M  V30 36 H 5.379569 -0.828758 0.325669 0
M  V30 37 H 3.028670 2.245835 -2.430008 0
M  V30 38 H 1.264681 2.729174 -0.712410 0
M  V30 39 H 0.197700 2.641991 2.897205 0
M  V30 40 H 0.332743 3.303774 1.262565 0
M  V30 41 H -1.976170 2.630145 2.325947 0
M  V30 42 H -1.699236 2.432777 0.552139 0
M  V30 43 H -3.644159 1.341758 1.103322 0
M  V30 44 H -3.835350 0.952264 3.398201 0
M  V30 45 H -5.008686 -0.033170 2.520039 0
M  V30 46 H -4.169379 -1.792632 3.483704 0
M  V30 47 H -4.999982 -1.613809 1.240342 0
M  V30 48 H -5.238828 -3.294615 -0.524538 0
M  V30 49 H -3.632819 -3.264033 -2.453920 0
M  V30 50 H -1.639511 0.145567 -0.726143 0
M  V30 51 H 0.677049 0.614634 3.506897 0
M  V30 52 H 1.343246 -0.636080 2.383761 0
M  V30 END ATOM
M  V30 BEGIN BOND
M  V30 1 1 1 2
M  V30 2 1 2 3
M  V30 3 2 3 4
M  V30 4 1 4 5
M  V30 5 2 5 6
M  V30 6 1 6 7
M  V30 7 1 7 8
M  V30 8 2 8 9
M  V30 9 1 9 10
M  V30 10 2 10 11
M  V30 11 1 11 12
M  V30 12 1 12 13
M  V30 13 1 13 14
M  V30 14 1 14 15
M  V30 15 1 15 16
M  V30 16 1 16 17
M  V30 17 1 17 18
M  V30 18 1 18 19
M  V30 19 1 17 20
M  V30 20 2 20 21
M  V30 21 1 21 22
M  V30 22 2 22 23
M  V30 23 1 23 24
M  V30 24 1 24 25
M  V30 25 2 24 26
M  V30 26 1 16 27
M  V30 27 2 27 28
M  V30 28 1 27 29
M  V30 29 2 12 30
M  V30 30 1 6 2
M  V30 31 1 30 8
M  V30 32 1 29 13
M  V30 33 1 26 20
M  V30 34 1 1 31
M  V30 35 1 1 32
M  V30 36 1 1 33
M  V30 37 1 4 34
M  V30 38 1 5 35
M  V30 39 1 7 36
M  V30 40 1 10 37
M  V30 41 1 11 38
M  V30 42 1 14 39
M  V30 43 1 14 40
M  V30 44 1 15 41
M  V30 45 1 15 42
M  V30 46 1 17 43
M  V30 47 1 18 44
M  V30 48 1 18 45
M  V30 49 1 19 46
M  V30 50 1 21 47
M  V30 51 1 22 48
M  V30 52 1 23 49
M  V30 53 1 26 50
M  V30 54 1 29 51
M  V30 55 1 29 52
M  V30 END BOND
M  V30 END CTAB
M  END
>  <Dataset>  (715) 
ChEMBL_Kinases

>  <Ligand_Instance>  (715) 
nan

>  <PDB_ID>  (715) 
nan

>  <Standardized_SMILES>  (715) 
Cn1nccc1Nc1nccc(N2CCN(C(CO)c3cccc(Cl)c3)C(=O)C2)n1

>  <Name>  (715) 
nan

>  <Pocket>  (715) 
nan

>  <ATP_Site>  (715) 
nan

>  <Peripheral>  (715) 
nan

>  <Num_H_Atoms_ProtBoundConf>  (715) 
nan

>  <Num_Resolved_Atoms>  (715) 
nan

>  <Num_Not_Resolved_Atoms>  (715) 
nan

$$$$
CHEMBL5078485
     RDKit          3D

  0  0  0  0  0  0  0  0  0  0999 V3000
M  V30 BEGIN CTAB
M  V30 COUNTS 63 68 0 0 0
M  V30 BEGIN ATOM
M  V30 1 C 3.336760 -4.440427 0.977557 0
M  V30 2 C 3.164725 -3.059587 1.490296 0
M  V30 3 C 3.885013 -2.618482 2.580344 0
M  V30 4 C 3.725101 -1.335008 3.058257 0
M  V30 5 C 2.824785 -0.481267 2.428032 0
M  V30 6 C 2.596980 0.903523 2.876737 0
M  V30 7 N 3.247721 1.432956 3.926959 0
M  V30 8 N 2.811625 2.675890 4.052981 0
M  V30 9 C 1.902009 2.936141 3.104484 0
M  V30 10 C 1.192139 4.197552 2.914025 0
M  V30 11 C 0.274913 4.326350 1.890153 0
M  V30 12 C -0.410710 5.515862 1.690755 0
M  V30 13 N -0.166817 6.559378 2.520961 0
M  V30 14 C 0.741674 6.411475 3.524564 0
M  V30 15 C 0.993521 7.569837 4.423386 0
M  V30 16 F 2.338591 7.625446 4.773863 0
M  V30 17 F 0.588342 8.746623 3.830804 0
M  V30 18 F 0.295808 7.313379 5.600356 0
M  V30 19 C 1.440865 5.261173 3.760365 0
M  V30 20 N 1.749162 1.831643 2.348755 0
M  V30 21 C 2.132174 -0.970842 1.345761 0
M  V30 22 C 2.269698 -2.266060 0.834953 0
M  V30 23 C 1.458795 -2.627648 -0.324535 0
M  V30 24 C 1.869201 -3.290379 -1.463161 0
M  V30 25 C 0.975772 -3.561659 -2.479118 0
M  V30 26 C -0.346036 -3.177964 -2.381658 0
M  V30 27 C -0.759262 -2.510110 -1.234070 0
M  V30 28 C 0.126000 -2.234102 -0.212665 0
M  V30 29 O -2.068650 -2.086603 -1.048967 0
M  V30 30 C -3.269387 -2.575708 -1.662653 0
M  V30 31 C -4.440603 -1.957380 -0.952804 0
M  V30 32 C -5.511317 -3.027129 -0.703875 0
M  V30 33 O -5.707281 -3.732979 -1.865515 0
M  V30 34 C -4.621874 -4.506557 -2.257708 0
M  V30 35 C -3.363112 -4.079066 -1.501446 0
M  V30 36 C -3.320271 -2.207258 -3.124565 0
M  V30 37 C -2.341221 -2.990125 -3.926640 0
M  V30 38 O -2.627918 -3.207539 -5.140835 0
M  V30 39 N -1.076154 -3.567286 -3.553845 0
M  V30 40 H 3.464689 -5.099578 1.882500 0
M  V30 41 H 2.399814 -4.796410 0.511621 0
M  V30 42 H 4.199899 -4.554014 0.285578 0
M  V30 43 H 4.580070 -3.276899 3.067219 0
M  V30 44 H 4.276804 -0.954348 3.915606 0
M  V30 45 H 0.055907 3.506033 1.205157 0
M  V30 46 H -1.143353 5.673104 0.901195 0
M  V30 47 H 2.151945 5.204999 4.576663 0
M  V30 48 H 1.118638 1.671088 1.514269 0
M  V30 49 H 1.424271 -0.284927 0.857950 0
M  V30 50 H 2.915147 -3.563849 -1.479986 0
M  V30 51 H 1.348892 -4.086972 -3.356833 0
M  V30 52 H -0.346939 -1.707764 0.615471 0
M  V30 53 H -4.920559 -1.203312 -1.611162 0
M  V30 54 H -4.152684 -1.472487 -0.000410 0
M  V30 55 H -6.438576 -2.481858 -0.487627 0
M  V30 56 H -5.278876 -3.650884 0.168709 0
M  V30 57 H -4.821904 -5.588879 -2.108525 0
M  V30 58 H -4.391762 -4.379424 -3.339315 0
M  V30 59 H -3.418893 -4.353474 -0.440523 0
M  V30 60 H -2.502162 -4.579482 -1.940290 0
M  V30 61 H -3.111564 -1.102829 -3.192586 0
M  V30 62 H -4.338437 -2.334021 -3.498939 0
M  V30 63 H -0.636594 -4.312442 -4.145736 0
M  V30 END ATOM
M  V30 BEGIN BOND
M  V30 1 1 1 2
M  V30 2 2 2 3
M  V30 3 1 3 4
M  V30 4 2 4 5
M  V30 5 1 5 6
M  V30 6 2 6 7
M  V30 7 1 7 8
M  V30 8 2 8 9
M  V30 9 1 9 10
M  V30 10 2 10 11
M  V30 11 1 11 12
M  V30 12 2 12 13
M  V30 13 1 13 14
M  V30 14 1 14 15
M  V30 15 1 15 16
M  V30 16 1 15 17
M  V30 17 1 15 18
M  V30 18 2 14 19
M  V30 19 1 9 20
M  V30 20 1 5 21
M  V30 21 2 21 22
M  V30 22 1 22 23
M  V30 23 2 23 24
M  V30 24 1 24 25
M  V30 25 2 25 26
M  V30 26 1 26 27
M  V30 27 2 27 28
M  V30 28 1 27 29
M  V30 29 1 29 30
M  V30 30 1 30 31
M  V30 31 1 31 32
M  V30 32 1 32 33
M  V30 33 1 33 34
M  V30 34 1 34 35
M  V30 35 1 30 36
M  V30 36 1 36 37
M  V30 37 2 37 38
M  V30 38 1 37 39
M  V30 39 1 22 2
M  V30 40 1 28 23
M  V30 41 1 35 30
M  V30 42 1 20 6
M  V30 43 1 39 26
M  V30 44 1 19 10
M  V30 45 1 1 40
M  V30 46 1 1 41
M  V30 47 1 1 42
M  V30 48 1 3 43
M  V30 49 1 4 44
M  V30 50 1 11 45
M  V30 51 1 12 46
M  V30 52 1 19 47
M  V30 53 1 20 48
M  V30 54 1 21 49
M  V30 55 1 24 50
M  V30 56 1 25 51
M  V30 57 1 28 52
M  V30 58 1 31 53
M  V30 59 1 31 54
M  V30 60 1 32 55
M  V30 61 1 32 56
M  V30 62 1 34 57
M  V30 63 1 34 58
M  V30 64 1 35 59
M  V30 65 1 35 60
M  V30 66 1 36 61
M  V30 67 1 36 62
M  V30 68 1 39 63
M  V30 END BOND
M  V30 END CTAB
M  END
>  <Dataset>  (716) 
ChEMBL_Kinases

>  <Ligand_Instance>  (716) 
nan

>  <PDB_ID>  (716) 
nan

>  <Standardized_SMILES>  (716) 
Cc1ccc(-c2nnc(-c3ccnc(C(F)(F)F)c3)[nH]2)cc1-c1ccc2c(c1)OC1(CCOCC1)CC(=O)N2

>  <Name>  (716) 
nan

>  <Pocket>  (716) 
nan

>  <ATP_Site>  (716) 
nan

>  <Peripheral>  (716) 
nan

>  <Num_H_Atoms_ProtBoundConf>  (716) 
nan

>  <Num_Resolved_Atoms>  (716) 
nan

>  <Num_Not_Resolved_Atoms>  (716) 
nan

$$$$
CHEMBL5078490
     RDKit          3D

  0  0  0  0  0  0  0  0  0  0999 V3000
M  V30 BEGIN CTAB
M  V30 COUNTS 47 50 0 0 0
M  V30 BEGIN ATOM
M  V30 1 C 1.223611 -0.304850 3.190385 0
M  V30 2 N 1.239126 -0.834726 1.824548 0
M  V30 3 C 2.246462 -0.558705 0.865654 0
M  V30 4 N 3.050466 -1.643992 0.670816 0
M  V30 5 C 4.097746 -1.577516 -0.176460 0
M  V30 6 N 4.355087 -0.425008 -0.840361 0
M  V30 7 C 3.594293 0.674806 -0.686406 0
M  V30 8 N 3.579791 1.925092 -1.185495 0
M  V30 9 C 2.546148 2.607319 -0.657287 0
M  V30 10 C 2.104652 3.911733 -0.853653 0
M  V30 11 C 0.981449 4.363556 -0.170602 0
M  V30 12 F 0.563569 5.637248 -0.372800 0
M  V30 13 C 0.297754 3.516336 0.707968 0
M  V30 14 C 0.755657 2.232419 0.883579 0
M  V30 15 C 1.859033 1.788945 0.213379 0
M  V30 16 C 2.528316 0.594948 0.180321 0
M  V30 17 C 0.106921 -1.699482 1.501970 0
M  V30 18 C 0.156013 -2.855163 2.464106 0
M  V30 19 C -1.061602 -3.696784 2.237012 0
M  V30 20 C -1.737514 -3.276780 0.941250 0
M  V30 21 N -2.206527 -1.930891 1.045563 0
M  V30 22 C -2.881242 -1.462478 -0.121445 0
M  V30 23 C -4.194396 -2.187009 -0.304386 0
M  V30 24 C -5.069461 -1.971651 0.851081 0
M  V30 25 N -5.778017 -1.788714 1.759304 0
M  V30 26 C -1.211748 -0.989592 1.507044 0
M  V30 27 H 1.853752 -0.909392 3.866488 0
M  V30 28 H 1.627975 0.728770 3.218712 0
M  V30 29 H 0.205292 -0.256336 3.597815 0
M  V30 30 H 4.745747 -2.446742 -0.335624 0
M  V30 31 H 4.306548 2.252742 -1.886785 0
M  V30 32 H 2.651563 4.546487 -1.539265 0
M  V30 33 H -0.569433 3.974710 1.190324 0
M  V30 34 H 0.148852 1.686719 1.565234 0
M  V30 35 H 0.278105 -2.102070 0.483697 0
M  V30 36 H 1.056561 -3.457264 2.208897 0
M  V30 37 H 0.286304 -2.525931 3.513867 0
M  V30 38 H -1.787780 -3.453317 3.040062 0
M  V30 39 H -0.791137 -4.771125 2.209423 0
M  V30 40 H -1.137641 -3.504830 0.052838 0
M  V30 41 H -2.639373 -3.948569 0.856754 0
M  V30 42 H -2.281889 -1.575105 -1.043183 0
M  V30 43 H -3.100098 -0.372814 0.026662 0
M  V30 44 H -4.017179 -3.265150 -0.468722 0
M  V30 45 H -4.746780 -1.803622 -1.198534 0
M  V30 46 H -1.155735 -0.167139 0.766231 0
M  V30 47 H -1.489158 -0.623354 2.521624 0
M  V30 END ATOM
M  V30 BEGIN BOND
M  V30 1 1 1 2
M  V30 2 1 2 3
M  V30 3 2 3 4
M  V30 4 1 4 5
M  V30 5 2 5 6
M  V30 6 1 6 7
M  V30 7 1 7 8
M  V30 8 1 8 9
M  V30 9 2 9 10
M  V30 10 1 10 11
M  V30 11 1 11 12
M  V30 12 2 11 13
M  V30 13 1 13 14
M  V30 14 2 14 15
M  V30 15 1 15 16
M  V30 16 1 2 17
M  V30 17 1 17 18
M  V30 18 1 18 19
M  V30 19 1 19 20
M  V30 20 1 20 21
M  V30 21 1 21 22
M  V30 22 1 22 23
M  V30 23 1 23 24
M  V30 24 3 24 25
M  V30 25 1 21 26
M  V30 26 1 16 3
M  V30 27 1 26 17
M  V30 28 2 16 7
M  V30 29 1 15 9
M  V30 30 1 1 27
M  V30 31 1 1 28
M  V30 32 1 1 29
M  V30 33 1 5 30
M  V30 34 1 8 31
M  V30 35 1 10 32
M  V30 36 1 13 33
M  V30 37 1 14 34
M  V30 38 1 17 35
M  V30 39 1 18 36
M  V30 40 1 18 37
M  V30 41 1 19 38
M  V30 42 1 19 39
M  V30 43 1 20 40
M  V30 44 1 20 41
M  V30 45 1 22 42
M  V30 46 1 22 43
M  V30 47 1 23 44
M  V30 48 1 23 45
M  V30 49 1 26 46
M  V30 50 1 26 47
M  V30 END BOND
M  V30 END CTAB
M  END
>  <Dataset>  (717) 
ChEMBL_Kinases

>  <Ligand_Instance>  (717) 
nan

>  <PDB_ID>  (717) 
nan

>  <Standardized_SMILES>  (717) 
CN(c1ncnc2[nH]c3cc(F)ccc3c12)C1CCCN(CCC#N)C1

>  <Name>  (717) 
nan

>  <Pocket>  (717) 
nan

>  <ATP_Site>  (717) 
nan

>  <Peripheral>  (717) 
nan

>  <Num_H_Atoms_ProtBoundConf>  (717) 
nan

>  <Num_Resolved_Atoms>  (717) 
nan

>  <Num_Not_Resolved_Atoms>  (717) 
nan

$$$$
CHEMBL3786276
     RDKit          3D

  0  0  0  0  0  0  0  0  0  0999 V3000
M  V30 BEGIN CTAB
M  V30 COUNTS 58 62 0 0 0
M  V30 BEGIN ATOM
M  V30 1 O -1.623858 0.073942 0.858341 0
M  V30 2 C -1.939498 -0.751634 1.763366 0
M  V30 3 N -1.517013 -0.750371 3.113427 0
M  V30 4 C -0.640043 0.353369 3.361640 0
M  V30 5 C 0.718254 0.197334 3.181584 0
M  V30 6 C 1.634651 1.199980 3.395472 0
M  V30 7 C 3.098063 1.109510 3.221142 0
M  V30 8 N 3.591618 1.469184 1.939373 0
M  V30 9 C 3.141038 0.728833 0.823592 0
M  V30 10 C 2.259306 1.495407 -0.137191 0
M  V30 11 O 1.631414 2.502911 0.591093 0
M  V30 12 C 2.596551 3.458128 0.899763 0
M  V30 13 C 3.717642 2.884498 1.728119 0
M  V30 14 C 1.101081 2.423024 3.818060 0
M  V30 15 C -0.254350 2.605094 4.005780 0
M  V30 16 N -1.099831 1.570160 3.775004 0
M  V30 17 N -2.833681 -1.762926 1.246534 0
M  V30 18 C -3.293324 -1.818257 -0.099359 0
M  V30 19 C -4.446276 -1.078407 -0.265787 0
M  V30 20 C -5.051377 -1.012512 -1.520759 0
M  V30 21 C -4.466096 -1.699304 -2.563677 0
M  V30 22 C -3.313637 -2.422513 -2.337810 0
M  V30 23 C -2.663469 -2.524174 -1.100531 0
M  V30 24 C -1.478902 -3.357737 -1.161831 0
M  V30 25 C -0.189299 -2.795940 -0.714423 0
M  V30 26 C 0.890215 -3.832262 -0.918904 0
M  V30 27 C 0.514821 -4.950236 -1.844193 0
M  V30 28 C -0.380996 -4.585103 -2.972327 0
M  V30 29 N -1.473103 -3.740993 -2.574208 0
M  V30 30 C -2.560714 -3.204519 -3.314838 0
M  V30 31 O -2.747190 -3.415523 -4.540668 0
M  V30 32 H -1.845251 -1.487711 3.773555 0
M  V30 33 H 1.092013 -0.748206 2.861140 0
M  V30 34 H 3.393139 0.072603 3.479218 0
M  V30 35 H 3.638725 1.754884 3.962381 0
M  V30 36 H 4.042567 0.354798 0.251660 0
M  V30 37 H 2.599581 -0.196487 1.098555 0
M  V30 38 H 1.489142 0.855181 -0.579490 0
M  V30 39 H 2.848686 1.905032 -0.984810 0
M  V30 40 H 2.095742 4.314828 1.386620 0
M  V30 41 H 2.990895 3.850496 -0.060524 0
M  V30 42 H 3.692393 3.379941 2.720398 0
M  V30 43 H 4.697187 3.142696 1.278422 0
M  V30 44 H 1.685829 3.321237 4.033035 0
M  V30 45 H -0.688770 3.541894 4.331873 0
M  V30 46 H -3.186034 -2.518290 1.872526 0
M  V30 47 H -4.963863 -0.519063 0.483490 0
M  V30 48 H -5.938780 -0.463355 -1.722383 0
M  V30 49 H -4.924535 -1.656205 -3.540315 0
M  V30 50 H -1.666604 -4.294600 -0.608855 0
M  V30 51 H 0.132521 -1.887176 -1.264601 0
M  V30 52 H -0.258702 -2.622327 0.378112 0
M  V30 53 H 1.127531 -4.297305 0.058499 0
M  V30 54 H 1.855544 -3.337372 -1.231756 0
M  V30 55 H 0.025720 -5.805903 -1.292243 0
M  V30 56 H 1.446957 -5.395000 -2.268715 0
M  V30 57 H 0.231484 -4.137953 -3.790928 0
M  V30 58 H -0.790507 -5.533452 -3.393386 0
M  V30 END ATOM
M  V30 BEGIN BOND
M  V30 1 2 1 2
M  V30 2 1 2 3
M  V30 3 1 3 4
M  V30 4 2 4 5
M  V30 5 1 5 6
M  V30 6 1 6 7
M  V30 7 1 7 8
M  V30 8 1 8 9
M  V30 9 1 9 10
M  V30 10 1 10 11
M  V30 11 1 11 12
M  V30 12 1 12 13
M  V30 13 2 6 14
M  V30 14 1 14 15
M  V30 15 2 15 16
M  V30 16 1 2 17
M  V30 17 1 17 18
M  V30 18 2 18 19
M  V30 19 1 19 20
M  V30 20 2 20 21
M  V30 21 1 21 22
M  V30 22 2 22 23
M  V30 23 1 23 24
M  V30 24 1 24 25
M  V30 25 1 25 26
M  V30 26 1 26 27
M  V30 27 1 27 28
M  V30 28 1 28 29
M  V30 29 1 29 30
M  V30 30 2 30 31
M  V30 31 1 16 4
M  V30 32 1 23 18
M  V30 33 1 29 24
M  V30 34 1 13 8
M  V30 35 1 30 22
M  V30 36 1 3 32
M  V30 37 1 5 33
M  V30 38 1 7 34
M  V30 39 1 7 35
M  V30 40 1 9 36
M  V30 41 1 9 37
M  V30 42 1 10 38
M  V30 43 1 10 39
M  V30 44 1 12 40
M  V30 45 1 12 41
M  V30 46 1 13 42
M  V30 47 1 13 43
M  V30 48 1 14 44
M  V30 49 1 15 45
M  V30 50 1 17 46
M  V30 51 1 19 47
M  V30 52 1 20 48
M  V30 53 1 21 49
M  V30 54 1 24 50
M  V30 55 1 25 51
M  V30 56 1 25 52
M  V30 57 1 26 53
M  V30 58 1 26 54
M  V30 59 1 27 55
M  V30 60 1 27 56
M  V30 61 1 28 57
M  V30 62 1 28 58
M  V30 END BOND
M  V30 END CTAB
M  END
>  <Dataset>  (718) 
ChEMBL_Kinases

>  <Ligand_Instance>  (718) 
nan

>  <PDB_ID>  (718) 
nan

>  <Standardized_SMILES>  (718) 
O=C(Nc1cc(CN2CCOCC2)ccn1)Nc1cccc2c1C1CCCCN1C2=O

>  <Name>  (718) 
nan

>  <Pocket>  (718) 
nan

>  <ATP_Site>  (718) 
nan

>  <Peripheral>  (718) 
nan

>  <Num_H_Atoms_ProtBoundConf>  (718) 
nan

>  <Num_Resolved_Atoms>  (718) 
nan

>  <Num_Not_Resolved_Atoms>  (718) 
nan

$$$$
CHEMBL5077093
     RDKit          3D

  0  0  0  0  0  0  0  0  0  0999 V3000
M  V30 BEGIN CTAB
M  V30 COUNTS 57 61 0 0 0
M  V30 BEGIN ATOM
M  V30 1 C 2.634089 -3.471883 4.141700 0
M  V30 2 O 1.923930 -2.287095 4.444559 0
M  V30 3 C 1.187892 -1.609104 3.486703 0
M  V30 4 C 0.491658 -0.459585 3.748726 0
M  V30 5 C -0.254887 0.265839 2.859353 0
M  V30 6 C -0.324374 -0.200072 1.547770 0
M  V30 7 C 0.362463 -1.351858 1.249569 0
M  V30 8 C 0.244837 -1.782002 -0.146247 0
M  V30 9 N -0.390715 -2.957684 -0.199318 0
M  V30 10 C -0.474249 -3.309289 -1.553746 0
M  V30 11 S -1.021219 -4.508212 -2.831075 0
M  V30 12 C -0.346524 -3.476777 -4.265834 0
M  V30 13 C 0.197095 -2.373153 -3.581713 0
M  V30 14 N 0.108251 -2.344217 -2.275984 0
M  V30 15 C 0.555240 -1.397995 -1.430718 0
M  V30 16 C 1.259097 -0.131383 -1.489657 0
M  V30 17 C 2.606494 -0.128820 -1.222825 0
M  V30 18 C 3.401616 1.027313 -1.230180 0
M  V30 19 N 2.706954 2.130338 -1.522806 0
M  V30 20 C 1.396666 2.197549 -1.792423 0
M  V30 21 N 0.910796 3.497734 -2.064621 0
M  V30 22 C 0.083591 4.475294 -1.351232 0
M  V30 23 C -1.317669 3.997718 -1.186493 0
M  V30 24 N -1.437792 2.780227 -0.448010 0
M  V30 25 S -3.116796 2.327331 -0.336920 0
M  V30 26 O -3.521284 2.049225 1.079221 0
M  V30 27 O -3.988574 3.448219 -0.848885 0
M  V30 28 C -3.367667 0.867738 -1.306631 0
M  V30 29 C -3.617014 0.957365 -2.679708 0
M  V30 30 C -3.805283 -0.223194 -3.382330 0
M  V30 31 C -3.754592 -1.468345 -2.773896 0
M  V30 32 F -3.946708 -2.575318 -3.528323 0
M  V30 33 C -3.504496 -1.446152 -1.427606 0
M  V30 34 C -3.304166 -0.337795 -0.639799 0
M  V30 35 N 0.695759 1.053233 -1.770032 0
M  V30 36 C 1.103096 -2.048969 2.183930 0
M  V30 37 H 1.998702 -4.293102 3.786841 0
M  V30 38 H 3.296757 -3.728675 4.994679 0
M  V30 39 H 3.325753 -3.185712 3.292307 0
M  V30 40 H 0.525250 -0.063310 4.774052 0
M  V30 41 H -0.792808 1.175223 3.115588 0
M  V30 42 H -0.912949 0.374865 0.849017 0
M  V30 43 H -0.503695 -3.903917 -5.192279 0
M  V30 44 H 0.600984 -1.745655 -4.354124 0
M  V30 45 H 3.131301 -1.058988 -0.986929 0
M  V30 46 H 4.461460 1.044737 -1.022937 0
M  V30 47 H 1.282707 3.735467 -3.030805 0
M  V30 48 H 0.515354 4.659240 -0.329456 0
M  V30 49 H 0.114039 5.409766 -1.906252 0
M  V30 50 H -1.858282 4.806571 -0.614701 0
M  V30 51 H -1.835090 3.913442 -2.166605 0
M  V30 52 H -1.081678 2.882390 0.527699 0
M  V30 53 H -3.640724 1.961829 -3.069089 0
M  V30 54 H -3.992711 -0.067962 -4.444450 0
M  V30 55 H -3.458330 -2.402137 -0.913183 0
M  V30 56 H -3.115974 -0.427001 0.418250 0
M  V30 57 H 1.604138 -2.942332 1.851418 0
M  V30 END ATOM
M  V30 BEGIN BOND
M  V30 1 1 1 2
M  V30 2 1 2 3
M  V30 3 2 3 4
M  V30 4 1 4 5
M  V30 5 2 5 6
M  V30 6 1 6 7
M  V30 7 1 7 8
M  V30 8 1 8 9
M  V30 9 2 9 10
M  V30 10 1 10 11
M  V30 11 1 11 12
M  V30 12 2 12 13
M  V30 13 1 13 14
M  V30 14 1 14 15
M  V30 15 1 15 16
M  V30 16 2 16 17
M  V30 17 1 17 18
M  V30 18 2 18 19
M  V30 19 1 19 20
M  V30 20 1 20 21
M  V30 21 1 21 22
M  V30 22 1 22 23
M  V30 23 1 23 24
M  V30 24 1 24 25
M  V30 25 2 25 26
M  V30 26 2 25 27
M  V30 27 1 25 28
M  V30 28 2 28 29
M  V30 29 1 29 30
M  V30 30 2 30 31
M  V30 31 1 31 32
M  V30 32 1 31 33
M  V30 33 2 33 34
M  V30 34 2 20 35
M  V30 35 2 7 36
M  V30 36 1 36 3
M  V30 37 2 15 8
M  V30 38 1 35 16
M  V30 39 1 14 10
M  V30 40 1 34 28
M  V30 41 1 1 37
M  V30 42 1 1 38
M  V30 43 1 1 39
M  V30 44 1 4 40
M  V30 45 1 5 41
M  V30 46 1 6 42
M  V30 47 1 12 43
M  V30 48 1 13 44
M  V30 49 1 17 45
M  V30 50 1 18 46
M  V30 51 1 21 47
M  V30 52 1 22 48
M  V30 53 1 22 49
M  V30 54 1 23 50
M  V30 55 1 23 51
M  V30 56 1 24 52
M  V30 57 1 29 53
M  V30 58 1 30 54
M  V30 59 1 33 55
M  V30 60 1 34 56
M  V30 61 1 36 57
M  V30 END BOND
M  V30 END CTAB
M  END
>  <Dataset>  (719) 
ChEMBL_Kinases

>  <Ligand_Instance>  (719) 
nan

>  <PDB_ID>  (719) 
nan

>  <Standardized_SMILES>  (719) 
COc1cccc(-c2nc3sccn3c2-c2ccnc(NCCNS(=O)(=O)c3ccc(F)cc3)n2)c1

>  <Name>  (719) 
nan

>  <Pocket>  (719) 
nan

>  <ATP_Site>  (719) 
nan

>  <Peripheral>  (719) 
nan

>  <Num_H_Atoms_ProtBoundConf>  (719) 
nan

>  <Num_Resolved_Atoms>  (719) 
nan

>  <Num_Not_Resolved_Atoms>  (719) 
nan

$$$$
CHEMBL5077126
     RDKit          3D

  0  0  0  0  0  0  0  0  0  0999 V3000
M  V30 BEGIN CTAB
M  V30 COUNTS 55 58 0 0 0
M  V30 BEGIN ATOM
M  V30 1 C 2.380410 -2.577977 3.801821 0
M  V30 2 C 3.201103 -3.359814 2.789017 0
M  V30 3 C 4.047841 -2.469258 1.970148 0
M  V30 4 C 5.403805 -2.342787 2.177002 0
M  V30 5 C 6.195353 -1.510104 1.444809 0
M  V30 6 O 7.554539 -1.438404 1.713809 0
M  V30 7 C 5.574822 -0.763409 0.445645 0
M  V30 8 F 6.374876 0.059264 -0.272094 0
M  V30 9 C 4.219270 -0.897601 0.246967 0
M  V30 10 C 3.412399 -1.744234 0.990159 0
M  V30 11 C 2.019034 -1.731719 0.579139 0
M  V30 12 C 1.436563 -0.487895 0.594492 0
M  V30 13 C 0.100842 -0.275159 0.214065 0
M  V30 14 N -0.523411 0.990738 0.219504 0
M  V30 15 C -1.689740 1.785721 -0.016693 0
M  V30 16 C -2.150419 1.667016 -1.434160 0
M  V30 17 C -3.636266 1.416988 -1.457576 0
M  V30 18 N -4.281673 2.510595 -0.743825 0
M  V30 19 C -5.725212 2.353700 -0.983591 0
M  V30 20 C -4.009695 2.402858 0.686713 0
M  V30 21 C -2.819001 1.494423 0.927875 0
M  V30 22 C -0.623676 -1.391890 -0.186500 0
M  V30 23 N -1.905360 -1.379916 -0.580768 0
M  V30 24 C -2.606276 -2.452453 -0.966290 0
M  V30 25 N -3.973818 -2.325143 -1.368575 0
M  V30 26 N -2.031196 -3.684523 -0.982777 0
M  V30 27 C -0.727722 -3.824935 -0.602097 0
M  V30 28 C -0.090033 -2.662838 -0.221799 0
M  V30 29 C 1.223192 -2.771074 0.167907 0
M  V30 30 H 2.049230 -3.231699 4.633714 0
M  V30 31 H 2.972926 -1.745397 4.239864 0
M  V30 32 H 1.444254 -2.184994 3.344111 0
M  V30 33 H 2.575965 -4.064096 2.256386 0
M  V30 34 H 3.891618 -3.996822 3.419420 0
M  V30 35 H 5.801210 -2.970477 2.985112 0
M  V30 36 H 8.004060 -2.248661 2.119842 0
M  V30 37 H 3.865234 -0.264357 -0.555864 0
M  V30 38 H 2.020552 0.368710 0.910567 0
M  V30 39 H 0.205494 1.694494 0.563738 0
M  V30 40 H -1.411166 2.896411 0.089140 0
M  V30 41 H -1.947417 2.623462 -2.014898 0
M  V30 42 H -1.567766 0.909747 -2.002613 0
M  V30 43 H -4.009990 1.370415 -2.496979 0
M  V30 44 H -3.884920 0.504897 -0.889273 0
M  V30 45 H -6.047595 1.559856 -0.272294 0
M  V30 46 H -6.269606 3.298045 -0.854134 0
M  V30 47 H -5.823538 1.967140 -2.015972 0
M  V30 48 H -3.920557 3.391885 1.173666 0
M  V30 49 H -4.889748 1.899238 1.133820 0
M  V30 50 H -2.447519 1.781058 1.953931 0
M  V30 51 H -3.112589 0.464135 0.991919 0
M  V30 52 H -4.815077 -2.484079 -0.783589 0
M  V30 53 H -4.547500 -2.561726 -0.519842 0
M  V30 54 H -0.241801 -4.776289 -0.601988 0
M  V30 55 H 1.700777 -3.732002 0.147138 0
M  V30 END ATOM
M  V30 BEGIN BOND
M  V30 1 1 1 2
M  V30 2 1 2 3
M  V30 3 2 3 4
M  V30 4 1 4 5
M  V30 5 1 5 6
M  V30 6 2 5 7
M  V30 7 1 7 8
M  V30 8 1 7 9
M  V30 9 2 9 10
M  V30 10 1 10 11
M  V30 11 2 11 12
M  V30 12 1 12 13
M  V30 13 1 13 14
M  V30 14 1 14 15
M  V30 15 1 15 16
M  V30 16 1 16 17
M  V30 17 1 17 18
M  V30 18 1 18 19
M  V30 19 1 18 20
M  V30 20 1 20 21
M  V30 21 2 13 22
M  V30 22 1 22 23
M  V30 23 2 23 24
M  V30 24 1 24 25
M  V30 25 1 24 26
M  V30 26 2 26 27
M  V30 27 1 27 28
M  V30 28 2 28 29
M  V30 29 1 10 3
M  V30 30 1 29 11
M  V30 31 1 21 15
M  V30 32 1 28 22
M  V30 33 1 1 30
M  V30 34 1 1 31
M  V30 35 1 1 32
M  V30 36 1 2 33
M  V30 37 1 2 34
M  V30 38 1 4 35
M  V30 39 1 6 36
M  V30 40 1 9 37
M  V30 41 1 12 38
M  V30 42 1 14 39
M  V30 43 1 15 40
M  V30 44 1 16 41
M  V30 45 1 16 42
M  V30 46 1 17 43
M  V30 47 1 17 44
M  V30 48 1 19 45
M  V30 49 1 19 46
M  V30 50 1 19 47
M  V30 51 1 20 48
M  V30 52 1 20 49
M  V30 53 1 21 50
M  V30 54 1 21 51
M  V30 55 1 25 52
M  V30 56 1 25 53
M  V30 57 1 27 54
M  V30 58 1 29 55
M  V30 END BOND
M  V30 END CTAB
M  END
>  <Dataset>  (720) 
ChEMBL_Kinases

>  <Ligand_Instance>  (720) 
nan

>  <PDB_ID>  (720) 
nan

>  <Standardized_SMILES>  (720) 
CCc1cc(O)c(F)cc1-c1cc(NC2CCN(C)CC2)c2nc(N)ncc2c1

>  <Name>  (720) 
nan

>  <Pocket>  (720) 
nan

>  <ATP_Site>  (720) 
nan

>  <Peripheral>  (720) 
nan

>  <Num_H_Atoms_ProtBoundConf>  (720) 
nan

>  <Num_Resolved_Atoms>  (720) 
nan

>  <Num_Not_Resolved_Atoms>  (720) 
nan

$$$$
CHEMBL5077192
     RDKit          3D

  0  0  0  0  0  0  0  0  0  0999 V3000
M  V30 BEGIN CTAB
M  V30 COUNTS 47 48 0 0 0
M  V30 BEGIN ATOM
M  V30 1 C -3.061049 -7.247643 1.224106 0
M  V30 2 C -1.909977 -6.367275 1.537530 0
M  V30 3 C -1.760559 -5.107910 1.013612 0
M  V30 4 C -0.688334 -4.306299 1.314808 0
M  V30 5 C -0.498232 -2.969018 0.779707 0
M  V30 6 C 0.785249 -2.514357 0.583475 0
M  V30 7 N 1.090422 -1.308127 0.100045 0
M  V30 8 C 0.140337 -0.426717 -0.239164 0
M  V30 9 O 0.049355 0.817494 -0.733930 0
M  V30 10 C 0.955214 1.780168 -1.124991 0
M  V30 11 C 1.908870 2.327590 -0.143620 0 CFG=1
M  V30 12 C 2.926861 1.219930 0.206037 0
M  V30 13 N 2.695098 3.355673 -0.862897 0
M  V30 14 C 1.431752 2.876720 1.130311 0
M  V30 15 C 0.488063 4.042405 1.103932 0
M  V30 16 C 0.243439 4.353031 2.606744 0
M  V30 17 C -0.898701 3.587177 0.635524 0
M  V30 18 C -1.189198 -0.845116 -0.056814 0
M  V30 19 Cl -2.688764 0.046254 -0.393384 0
M  V30 20 C -1.534240 -2.108966 0.450048 0
M  V30 21 C 0.216055 -4.882645 2.186354 0
M  V30 22 C 0.109083 -6.148229 2.740856 0
M  V30 23 N -0.982254 -6.846766 2.376478 0
M  V30 24 H -2.767783 -8.302001 1.106046 0
M  V30 25 H -3.793619 -7.189886 2.056964 0
M  V30 26 H -3.588696 -6.903351 0.312614 0
M  V30 27 H -2.524458 -4.744074 0.338284 0
M  V30 28 H 1.638800 -3.143967 0.823685 0
M  V30 29 H 0.500912 2.559533 -1.795275 0
M  V30 30 H 1.628178 1.228414 -1.890134 0
M  V30 31 H 2.637640 0.716058 1.137608 0
M  V30 32 H 3.927971 1.711072 0.409053 0
M  V30 33 H 3.027626 0.512520 -0.609503 0
M  V30 34 H 3.642036 3.460616 -0.476044 0
M  V30 35 H 2.154100 4.247978 -0.906969 0
M  V30 36 H 2.351221 3.260662 1.679213 0
M  V30 37 H 0.923543 2.127247 1.789929 0
M  V30 38 H 0.830144 4.925356 0.570370 0
M  V30 39 H -0.755005 4.794380 2.738259 0
M  V30 40 H 1.049012 5.016074 2.974312 0
M  V30 41 H 0.260144 3.400841 3.181091 0
M  V30 42 H -1.097309 2.561474 0.984301 0
M  V30 43 H -1.681116 4.209819 1.181602 0
M  V30 44 H -1.024571 3.685471 -0.441702 0
M  V30 45 H -2.508211 -2.532348 0.629884 0
M  V30 46 H 1.100642 -4.319064 2.483302 0
M  V30 47 H 0.830395 -6.554471 3.409940 0
M  V30 END ATOM
M  V30 BEGIN BOND
M  V30 1 1 1 2
M  V30 2 2 2 3
M  V30 3 1 3 4
M  V30 4 1 4 5
M  V30 5 2 5 6
M  V30 6 1 6 7
M  V30 7 2 7 8
M  V30 8 1 8 9
M  V30 9 1 9 10
M  V30 10 1 10 11
M  V30 11 1 11 12
M  V30 12 1 11 13 CFG=3
M  V30 13 1 11 14
M  V30 14 1 14 15
M  V30 15 1 15 16
M  V30 16 1 15 17
M  V30 17 1 8 18
M  V30 18 1 18 19
M  V30 19 2 18 20
M  V30 20 2 4 21
M  V30 21 1 21 22
M  V30 22 2 22 23
M  V30 23 1 23 2
M  V30 24 1 20 5
M  V30 25 1 1 24
M  V30 26 1 1 25
M  V30 27 1 1 26
M  V30 28 1 3 27
M  V30 29 1 6 28
M  V30 30 1 10 29
M  V30 31 1 10 30
M  V30 32 1 12 31
M  V30 33 1 12 32
M  V30 34 1 12 33
M  V30 35 1 13 34
M  V30 36 1 13 35
M  V30 37 1 14 36
M  V30 38 1 14 37
M  V30 39 1 15 38
M  V30 40 1 16 39
M  V30 41 1 16 40
M  V30 42 1 16 41
M  V30 43 1 17 42
M  V30 44 1 17 43
M  V30 45 1 17 44
M  V30 46 1 20 45
M  V30 47 1 21 46
M  V30 48 1 22 47
M  V30 END BOND
M  V30 END CTAB
M  END
>  <Dataset>  (721) 
ChEMBL_Kinases

>  <Ligand_Instance>  (721) 
nan

>  <PDB_ID>  (721) 
nan

>  <Standardized_SMILES>  (721) 
Cc1cc(-c2cnc(OC[C@@](C)(N)CC(C)C)c(Cl)c2)ccn1

>  <Name>  (721) 
nan

>  <Pocket>  (721) 
nan

>  <ATP_Site>  (721) 
nan

>  <Peripheral>  (721) 
nan

>  <Num_H_Atoms_ProtBoundConf>  (721) 
nan

>  <Num_Resolved_Atoms>  (721) 
nan

>  <Num_Not_Resolved_Atoms>  (721) 
nan

$$$$
CHEMBL5077220
     RDKit          3D

  0  0  0  0  0  0  0  0  0  0999 V3000
M  V30 BEGIN CTAB
M  V30 COUNTS 61 65 0 0 0
M  V30 BEGIN ATOM
M  V30 1 O 2.502043 1.548589 4.548059 0
M  V30 2 C 1.410665 1.370139 3.948269 0
M  V30 3 N 0.479712 2.437069 4.081195 0
M  V30 4 C 0.766565 3.618366 4.838150 0
M  V30 5 C 1.962046 4.391266 4.342232 0
M  V30 6 C 1.834189 4.859539 2.959053 0
M  V30 7 C 2.255386 4.100254 1.875013 0
M  V30 8 C 2.114560 4.585577 0.581840 0
M  V30 9 C 1.562188 5.819187 0.302678 0
M  V30 10 O 1.403680 6.339197 -0.965034 0
M  V30 11 C 1.138095 6.584208 1.390728 0
M  V30 12 C 1.275041 6.106506 2.689125 0
M  V30 13 C 1.194094 0.139103 3.197262 0
M  V30 14 C 2.233966 -0.767339 3.201474 0
M  V30 15 C 2.053703 -1.941819 2.497184 0
M  V30 16 C 0.899291 -2.226012 1.810669 0
M  V30 17 C -0.121988 -1.273087 1.839595 0
M  V30 18 C 0.009441 -0.085414 2.528189 0
M  V30 19 C -1.419070 -1.374197 1.183197 0
M  V30 20 O -2.303615 -0.570301 1.513990 0
M  V30 21 C -1.814941 -2.331551 0.156442 0
M  V30 22 C -3.144061 -2.334781 -0.161347 0
M  V30 23 C -3.682478 -3.177356 -1.110837 0
M  V30 24 C -2.883360 -4.069252 -1.791751 0
M  V30 25 N -3.390758 -4.959771 -2.778188 0
M  V30 26 C -2.636282 -5.884886 -3.552185 0
M  V30 27 C -2.784370 -7.255710 -3.583249 0
M  V30 28 C -1.977895 -8.033549 -4.387435 0
M  V30 29 C -0.990210 -7.496753 -5.196470 0
M  V30 30 F -0.205749 -8.269101 -5.980312 0
M  V30 31 C -0.856648 -6.107275 -5.150300 0
M  V30 32 C -1.661529 -5.303940 -4.344607 0
M  V30 33 F -1.344083 -3.983849 -4.471870 0
M  V30 34 C -1.543303 -4.058644 -1.464123 0
M  V30 35 C -0.988549 -3.217445 -0.512158 0
M  V30 36 C 0.475752 -3.395511 -0.338591 0
M  V30 37 C 0.885074 -3.532598 1.113144 0
M  V30 38 H -0.451753 2.317631 3.587467 0
M  V30 39 H -0.130470 4.266957 4.849110 0
M  V30 40 H 0.976413 3.394484 5.920447 0
M  V30 41 H 2.022233 5.311243 4.993949 0
M  V30 42 H 2.897497 3.848247 4.482768 0
M  V30 43 H 2.690914 3.136699 2.024422 0
M  V30 44 H 2.425193 4.036255 -0.299821 0
M  V30 45 H 0.461128 6.365753 -1.344252 0
M  V30 46 H 0.699343 7.560804 1.196062 0
M  V30 47 H 0.929770 6.740189 3.501643 0
M  V30 48 H 3.180667 -0.683265 3.686063 0
M  V30 49 H 2.796943 -2.743910 2.418894 0
M  V30 50 H -0.792759 0.612212 2.523984 0
M  V30 51 H -3.775022 -1.642264 0.365085 0
M  V30 52 H -4.735537 -3.138681 -1.322647 0
M  V30 53 H -4.403938 -4.966212 -2.982769 0
M  V30 54 H -3.559204 -7.658043 -2.946690 0
M  V30 55 H -2.107388 -9.112234 -4.400338 0
M  V30 56 H -0.061418 -5.731894 -5.808339 0
M  V30 57 H -0.828516 -4.711488 -1.930136 0
M  V30 58 H 1.043165 -2.545051 -0.760803 0
M  V30 59 H 0.797879 -4.362420 -0.817995 0
M  V30 60 H 0.259504 -4.297344 1.598622 0
M  V30 61 H 1.930939 -3.907144 1.091671 0
M  V30 END ATOM
M  V30 BEGIN BOND
M  V30 1 2 1 2
M  V30 2 1 2 3
M  V30 3 1 3 4
M  V30 4 1 4 5
M  V30 5 1 5 6
M  V30 6 2 6 7
M  V30 7 1 7 8
M  V30 8 2 8 9
M  V30 9 1 9 10
M  V30 10 1 9 11
M  V30 11 2 11 12
M  V30 12 1 2 13
M  V30 13 2 13 14
M  V30 14 1 14 15
M  V30 15 2 15 16
M  V30 16 1 16 17
M  V30 17 2 17 18
M  V30 18 1 17 19
M  V30 19 2 19 20
M  V30 20 1 19 21
M  V30 21 2 21 22
M  V30 22 1 22 23
M  V30 23 2 23 24
M  V30 24 1 24 25
M  V30 25 1 25 26
M  V30 26 2 26 27
M  V30 27 1 27 28
M  V30 28 2 28 29
M  V30 29 1 29 30
M  V30 30 1 29 31
M  V30 31 2 31 32
M  V30 32 1 32 33
M  V30 33 1 24 34
M  V30 34 2 34 35
M  V30 35 1 35 36
M  V30 36 1 36 37
M  V30 37 1 12 6
M  V30 38 1 18 13
M  V30 39 1 35 21
M  V30 40 1 37 16
M  V30 41 1 32 26
M  V30 42 1 3 38
M  V30 43 1 4 39
M  V30 44 1 4 40
M  V30 45 1 5 41
M  V30 46 1 5 42
M  V30 47 1 7 43
M  V30 48 1 8 44
M  V30 49 1 10 45
M  V30 50 1 11 46
M  V30 51 1 12 47
M  V30 52 1 14 48
M  V30 53 1 15 49
M  V30 54 1 18 50
M  V30 55 1 22 51
M  V30 56 1 23 52
M  V30 57 1 25 53
M  V30 58 1 27 54
M  V30 59 1 28 55
M  V30 60 1 31 56
M  V30 61 1 34 57
M  V30 62 1 36 58
M  V30 63 1 36 59
M  V30 64 1 37 60
M  V30 65 1 37 61
M  V30 END BOND
M  V30 END CTAB
M  END
>  <Dataset>  (722) 
ChEMBL_Kinases

>  <Ligand_Instance>  (722) 
nan

>  <PDB_ID>  (722) 
nan

>  <Standardized_SMILES>  (722) 
O=C(NCCc1ccc(O)cc1)c1ccc2c(c1)C(=O)c1ccc(Nc3ccc(F)cc3F)cc1CC2

>  <Name>  (722) 
nan

>  <Pocket>  (722) 
nan

>  <ATP_Site>  (722) 
nan

>  <Peripheral>  (722) 
nan

>  <Num_H_Atoms_ProtBoundConf>  (722) 
nan

>  <Num_Resolved_Atoms>  (722) 
nan

>  <Num_Not_Resolved_Atoms>  (722) 
nan

$$$$
CHEMBL5077230
     RDKit          3D

  0  0  0  0  0  0  0  0  0  0999 V3000
M  V30 BEGIN CTAB
M  V30 COUNTS 87 92 0 0 0
M  V30 BEGIN ATOM
M  V30 1 C -1.709478 -4.424437 6.443223 0
M  V30 2 C -2.841849 -3.427622 6.554440 0
M  V30 3 C -2.599582 -2.293923 5.603600 0
M  V30 4 O -1.585941 -2.143291 4.851577 0
M  V30 5 N -3.477487 -1.184876 5.379747 0
M  V30 6 C -2.758875 -0.433184 4.395370 0
M  V30 7 C -1.947947 0.527839 4.959944 0
M  V30 8 C -1.193959 1.282967 4.056184 0
M  V30 9 N -0.294534 2.346269 4.422773 0
M  V30 10 C 0.996378 2.466483 3.753448 0
M  V30 11 C 1.205155 3.788848 3.087996 0
M  V30 12 N 0.180736 4.738320 3.329056 0
M  V30 13 C -0.739159 4.985712 2.271584 0
M  V30 14 C -0.357362 4.779829 4.642943 0
M  V30 15 C -0.381224 3.438265 5.356246 0
M  V30 16 C -1.268445 1.067642 2.666850 0
M  V30 17 C -2.121274 0.076555 2.246594 0
M  V30 18 C -2.901749 -0.718075 3.071924 0
M  V30 19 N -3.761121 -1.776010 2.578201 0
M  V30 20 C -3.773456 -1.777816 1.136774 0
M  V30 21 N -4.749975 -1.299488 0.304120 0
M  V30 22 C -4.534360 -1.294841 -1.042775 0
M  V30 23 C -3.361873 -1.755530 -1.600304 0
M  V30 24 C -2.409661 -2.225237 -0.734695 0
M  V30 25 N -2.611053 -2.239951 0.616576 0
M  V30 26 N -1.103535 -2.568611 -1.167263 0
M  V30 27 C -0.057495 -3.053604 -0.501446 0
M  V30 28 C 0.997940 -3.233301 -1.352420 0
M  V30 29 C 0.487842 -2.813669 -2.580411 0
M  V30 30 C 1.248848 -2.770386 -3.883059 0
M  V30 31 O 1.944780 -1.673684 -3.509675 0
M  V30 32 N 2.051241 -2.484694 -4.915662 0
M  V30 33 C 2.940281 -1.378736 -4.837308 0
M  V30 34 C 4.183842 -1.686158 -4.327961 0
M  V30 35 C 4.635499 -3.043886 -3.932897 0
M  V30 36 C 4.996918 -3.874071 -5.141375 0
M  V30 37 C 5.017527 -0.605235 -4.212729 0
M  V30 38 C 4.639893 0.649750 -4.572565 0
M  V30 39 C 3.361918 0.924376 -5.089141 0
M  V30 40 C 2.516927 -0.143914 -5.211963 0
M  V30 41 C 1.200536 0.156383 -5.796585 0
M  V30 42 C 1.325624 -0.243185 -7.282455 0
M  V30 43 C -0.849284 -2.388751 -2.488237 0
M  V30 44 C -1.757002 -1.853922 -3.527504 0
M  V30 45 C -3.173058 -1.763825 -3.044008 0
M  V30 46 H -0.970804 -4.361481 7.264583 0
M  V30 47 H -2.156228 -5.450239 6.436239 0
M  V30 48 H -1.197650 -4.303940 5.461529 0
M  V30 49 H -3.786737 -3.929589 6.192345 0
M  V30 50 H -2.981965 -3.018525 7.567826 0
M  V30 51 H -4.366503 -1.159429 5.927291 0
M  V30 52 H -1.836598 0.755359 5.987630 0
M  V30 53 H 1.025983 1.675194 2.955761 0
M  V30 54 H 1.826625 2.212741 4.474770 0
M  V30 55 H 2.149503 4.224676 3.537242 0
M  V30 56 H 1.368857 3.685355 1.993328 0
M  V30 57 H -1.755010 5.007608 2.713687 0
M  V30 58 H -0.602648 5.990311 1.772616 0
M  V30 59 H -0.695123 4.185795 1.501821 0
M  V30 60 H -1.399087 5.197271 4.605460 0
M  V30 61 H 0.215662 5.548766 5.214189 0
M  V30 62 H 0.492257 3.423924 6.044763 0
M  V30 63 H -1.282497 3.374457 6.019717 0
M  V30 64 H -0.700577 1.646143 1.979608 0
M  V30 65 H -2.147197 -0.052327 1.177040 0
M  V30 66 H -4.239208 -2.372271 3.283911 0
M  V30 67 H -5.353751 -0.903350 -1.627210 0
M  V30 68 H 0.024067 -3.292695 0.545728 0
M  V30 69 H 2.015872 -3.587563 -1.294579 0
M  V30 70 H 1.560548 -3.353748 -5.355719 0
M  V30 71 H 3.839715 -3.614925 -3.377503 0
M  V30 72 H 5.550620 -2.976209 -3.289806 0
M  V30 73 H 4.457769 -4.836832 -5.093587 0
M  V30 74 H 4.576540 -3.343468 -6.045148 0
M  V30 75 H 6.094937 -4.022239 -5.256553 0
M  V30 76 H 6.027024 -0.799757 -3.809382 0
M  V30 77 H 5.379077 1.419965 -4.434243 0
M  V30 78 H 3.144365 1.957847 -5.350702 0
M  V30 79 H 0.946022 1.229756 -5.805298 0
M  V30 80 H 0.365942 -0.475686 -5.425031 0
M  V30 81 H 1.851304 -1.196255 -7.406036 0
M  V30 82 H 1.931815 0.529402 -7.833644 0
M  V30 83 H 0.309080 -0.205687 -7.744792 0
M  V30 84 H -1.404480 -0.855099 -3.890303 0
M  V30 85 H -1.753688 -2.520964 -4.440585 0
M  V30 86 H -3.701415 -0.912407 -3.539030 0
M  V30 87 H -3.712377 -2.687888 -3.420619 0
M  V30 END ATOM
M  V30 BEGIN BOND
M  V30 1 1 1 2
M  V30 2 1 2 3
M  V30 3 2 3 4
M  V30 4 1 3 5
M  V30 5 1 5 6
M  V30 6 2 6 7
M  V30 7 1 7 8
M  V30 8 1 8 9
M  V30 9 1 9 10
M  V30 10 1 10 11
M  V30 11 1 11 12
M  V30 12 1 12 13
M  V30 13 1 12 14
M  V30 14 1 14 15
M  V30 15 2 8 16
M  V30 16 1 16 17
M  V30 17 2 17 18
M  V30 18 1 18 19
M  V30 19 1 19 20
M  V30 20 2 20 21
M  V30 21 1 21 22
M  V30 22 2 22 23
M  V30 23 1 23 24
M  V30 24 2 24 25
M  V30 25 1 24 26
M  V30 26 1 26 27
M  V30 27 2 27 28
M  V30 28 1 28 29
M  V30 29 1 29 30
M  V30 30 2 30 31
M  V30 31 1 30 32
M  V30 32 1 32 33
M  V30 33 2 33 34
M  V30 34 1 34 35
M  V30 35 1 35 36
M  V30 36 1 34 37
M  V30 37 2 37 38
M  V30 38 1 38 39
M  V30 39 2 39 40
M  V30 40 1 40 41
M  V30 41 1 41 42
M  V30 42 2 29 43
M  V30 43 1 43 44
M  V30 44 1 44 45
M  V30 45 1 18 6
M  V30 46 1 25 20
M  V30 47 1 43 26
M  V30 48 1 15 9
M  V30 49 1 45 23
M  V30 50 1 40 33
M  V30 51 1 1 46
M  V30 52 1 1 47
M  V30 53 1 1 48
M  V30 54 1 2 49
M  V30 55 1 2 50
M  V30 56 1 5 51
M  V30 57 1 7 52
M  V30 58 1 10 53
M  V30 59 1 10 54
M  V30 60 1 11 55
M  V30 61 1 11 56
M  V30 62 1 13 57
M  V30 63 1 13 58
M  V30 64 1 13 59
M  V30 65 1 14 60
M  V30 66 1 14 61
M  V30 67 1 15 62
M  V30 68 1 15 63
M  V30 69 1 16 64
M  V30 70 1 17 65
M  V30 71 1 19 66
M  V30 72 1 22 67
M  V30 73 1 27 68
M  V30 74 1 28 69
M  V30 75 1 32 70
M  V30 76 1 35 71
M  V30 77 1 35 72
M  V30 78 1 36 73
M  V30 79 1 36 74
M  V30 80 1 36 75
M  V30 81 1 37 76
M  V30 82 1 38 77
M  V30 83 1 39 78
M  V30 84 1 41 79
M  V30 85 1 41 80
M  V30 86 1 42 81
M  V30 87 1 42 82
M  V30 88 1 42 83
M  V30 89 1 44 84
M  V30 90 1 44 85
M  V30 91 1 45 86
M  V30 92 1 45 87
M  V30 END BOND
M  V30 END CTAB
M  END
>  <Dataset>  (723) 
ChEMBL_Kinases

>  <Ligand_Instance>  (723) 
nan

>  <PDB_ID>  (723) 
nan

>  <Standardized_SMILES>  (723) 
CCC(=O)Nc1cc(N2CCN(C)CC2)ccc1Nc1ncc2c(n1)-n1ccc(C(=O)Nc3c(CC)cccc3CC)c1CC2

>  <Name>  (723) 
nan

>  <Pocket>  (723) 
nan

>  <ATP_Site>  (723) 
nan

>  <Peripheral>  (723) 
nan

>  <Num_H_Atoms_ProtBoundConf>  (723) 
nan

>  <Num_Resolved_Atoms>  (723) 
nan

>  <Num_Not_Resolved_Atoms>  (723) 
nan

$$$$
CHEMBL5077391
     RDKit          3D

  0  0  0  0  0  0  0  0  0  0999 V3000
M  V30 BEGIN CTAB
M  V30 COUNTS 60 64 0 0 0
M  V30 BEGIN ATOM
M  V30 1 C 6.741862 -2.023898 3.274795 0
M  V30 2 C 6.292525 -0.826136 2.539690 0
M  V30 3 C 5.099553 -0.229690 2.957726 0
M  V30 4 C 4.601816 0.893212 2.330685 0
M  V30 5 C 5.295883 1.440467 1.267485 0
M  V30 6 S 4.669309 2.871570 0.462445 0
M  V30 7 O 5.838612 3.577901 -0.154886 0
M  V30 8 O 3.980754 3.807028 1.377627 0
M  V30 9 N 3.644377 2.319896 -0.813445 0
M  V30 10 C 2.524338 1.549920 -0.299475 0
M  V30 11 C 1.646482 1.081446 -1.440215 0
M  V30 12 C 0.471866 0.273858 -0.894982 0
M  V30 13 N -0.330909 1.065318 -0.001727 0
M  V30 14 C -1.484552 0.444134 0.599661 0
M  V30 15 N -2.275836 1.125905 1.446580 0
M  V30 16 C -3.338436 0.547884 1.998554 0
M  V30 17 C -3.685032 -0.757607 1.740816 0
M  V30 18 C -2.872650 -1.455784 0.871955 0
M  V30 19 C -2.995909 -2.836117 0.421973 0
M  V30 20 C -4.146797 -3.100472 -0.277480 0
M  V30 21 C -5.345347 -2.424464 -0.741435 0
M  V30 22 C -6.599747 -2.815762 -0.322114 0
M  V30 23 C -7.812954 -2.265476 -0.681005 0
M  V30 24 C -7.697747 -1.201705 -1.565559 0
M  V30 25 C -6.481347 -0.751818 -2.030154 0
M  V30 26 O -6.427425 0.328028 -2.923184 0
M  V30 27 C -5.314187 -1.357432 -1.622151 0
M  V30 28 N -4.137603 -4.388830 -0.630551 0
M  V30 29 C -2.978058 -4.951332 -0.156245 0
M  V30 30 S -1.823507 -6.409236 0.066264 0
M  V30 31 C -0.531222 -5.422676 1.043257 0
M  V30 32 C -1.115461 -4.126748 1.085903 0
M  V30 33 N -2.290540 -3.974679 0.489192 0
M  V30 34 N -1.810887 -0.821774 0.342567 0
M  V30 35 C 6.491374 0.865067 0.828064 0
M  V30 36 C 6.974841 -0.267328 1.475348 0
M  V30 37 H 7.332271 -2.681659 2.584662 0
M  V30 38 H 5.842731 -2.594002 3.570390 0
M  V30 39 H 7.308557 -1.789763 4.197380 0
M  V30 40 H 4.526255 -0.631657 3.789955 0
M  V30 41 H 3.682190 1.385448 2.623275 0
M  V30 42 H 4.182905 1.788291 -1.526120 0
M  V30 43 H 2.943385 0.618756 0.166163 0
M  V30 44 H 1.897376 2.140015 0.383807 0
M  V30 45 H 2.275493 0.441420 -2.087054 0
M  V30 46 H 1.227389 1.936368 -2.008288 0
M  V30 47 H -0.110115 -0.181587 -1.714518 0
M  V30 48 H 0.932159 -0.582143 -0.333744 0
M  V30 49 H -0.134916 2.058939 0.240503 0
M  V30 50 H -4.006548 1.064861 2.690653 0
M  V30 51 H -4.514676 -1.336887 2.121539 0
M  V30 52 H -6.621589 -3.657932 0.372645 0
M  V30 53 H -8.740164 -2.636332 -0.303776 0
M  V30 54 H -8.604282 -0.709229 -1.900547 0
M  V30 55 H -6.771121 0.247267 -3.872075 0
M  V30 56 H -4.354419 -1.008874 -1.983551 0
M  V30 57 H 0.345183 -5.968787 1.367892 0
M  V30 58 H -0.417764 -3.527539 1.631811 0
M  V30 59 H 7.058380 1.268590 -0.000611 0
M  V30 60 H 7.900555 -0.771196 1.188502 0
M  V30 END ATOM
M  V30 BEGIN BOND
M  V30 1 1 1 2
M  V30 2 2 2 3
M  V30 3 1 3 4
M  V30 4 2 4 5
M  V30 5 1 5 6
M  V30 6 2 6 7
M  V30 7 2 6 8
M  V30 8 1 6 9
M  V30 9 1 9 10
M  V30 10 1 10 11
M  V30 11 1 11 12
M  V30 12 1 12 13
M  V30 13 1 13 14
M  V30 14 2 14 15
M  V30 15 1 15 16
M  V30 16 2 16 17
M  V30 17 1 17 18
M  V30 18 1 18 19
M  V30 19 2 19 20
M  V30 20 1 20 21
M  V30 21 2 21 22
M  V30 22 1 22 23
M  V30 23 2 23 24
M  V30 24 1 24 25
M  V30 25 1 25 26
M  V30 26 2 25 27
M  V30 27 1 20 28
M  V30 28 2 28 29
M  V30 29 1 29 30
M  V30 30 1 30 31
M  V30 31 2 31 32
M  V30 32 1 32 33
M  V30 33 2 18 34
M  V30 34 1 5 35
M  V30 35 2 35 36
M  V30 36 1 36 2
M  V30 37 1 34 14
M  V30 38 1 33 19
M  V30 39 1 27 21
M  V30 40 1 33 29
M  V30 41 1 1 37
M  V30 42 1 1 38
M  V30 43 1 1 39
M  V30 44 1 3 40
M  V30 45 1 4 41
M  V30 46 1 9 42
M  V30 47 1 10 43
M  V30 48 1 10 44
M  V30 49 1 11 45
M  V30 50 1 11 46
M  V30 51 1 12 47
M  V30 52 1 12 48
M  V30 53 1 13 49
M  V30 54 1 16 50
M  V30 55 1 17 51
M  V30 56 1 22 52
M  V30 57 1 23 53
M  V30 58 1 24 54
M  V30 59 1 26 55
M  V30 60 1 27 56
M  V30 61 1 31 57
M  V30 62 1 32 58
M  V30 63 1 35 59
M  V30 64 1 36 60
M  V30 END BOND
M  V30 END CTAB
M  END
>  <Dataset>  (724) 
ChEMBL_Kinases

>  <Ligand_Instance>  (724) 
nan

>  <PDB_ID>  (724) 
nan

>  <Standardized_SMILES>  (724) 
Cc1ccc(S(=O)(=O)NCCCNc2nccc(-c3c(-c4cccc(O)c4)nc4sccn34)n2)cc1

>  <Name>  (724) 
nan

>  <Pocket>  (724) 
nan

>  <ATP_Site>  (724) 
nan

>  <Peripheral>  (724) 
nan

>  <Num_H_Atoms_ProtBoundConf>  (724) 
nan

>  <Num_Resolved_Atoms>  (724) 
nan

>  <Num_Not_Resolved_Atoms>  (724) 
nan

$$$$
CHEMBL5077573
     RDKit          3D

  0  0  0  0  0  0  0  0  0  0999 V3000
M  V30 BEGIN CTAB
M  V30 COUNTS 54 58 0 0 0
M  V30 BEGIN ATOM
M  V30 1 O -1.366929 -3.875974 4.630159 0
M  V30 2 S -0.254064 -3.568413 3.678581 0
M  V30 3 O 0.843432 -4.551436 3.873527 0
M  V30 4 N 0.304184 -1.962782 3.962216 0
M  V30 5 C 1.356779 -1.580560 3.062737 0
M  V30 6 C 1.805580 -0.156165 3.362621 0
M  V30 7 N 2.870699 0.287705 2.485866 0
M  V30 8 C 2.747317 0.376092 1.070743 0
M  V30 9 N 3.763358 0.789787 0.269951 0
M  V30 10 C 3.656853 0.877745 -1.059753 0
M  V30 11 C 2.471867 0.540109 -1.683722 0
M  V30 12 C 1.428549 0.116378 -0.872780 0
M  V30 13 C 0.209348 -0.223045 -1.607724 0
M  V30 14 C -0.921204 0.509516 -1.339863 0
M  V30 15 C -1.166486 1.613246 -0.424563 0
M  V30 16 C -0.563151 2.855902 -0.471833 0
M  V30 17 C -0.885641 3.834775 0.465611 0
M  V30 18 C -1.804684 3.560888 1.436910 0
M  V30 19 C -2.432194 2.322959 1.516568 0
M  V30 20 O -3.362872 2.100656 2.530842 0
M  V30 21 C -2.099726 1.359898 0.575459 0
M  V30 22 N -1.880096 0.007741 -2.132657 0
M  V30 23 C -1.353806 -0.954790 -2.821792 0
M  V30 24 S -1.684227 -2.229874 -4.096182 0
M  V30 25 C 0.007786 -2.899637 -4.109492 0
M  V30 26 C 0.694359 -2.095094 -3.137333 0
M  V30 27 N -0.044529 -1.155483 -2.543792 0
M  V30 28 N 1.614964 0.055191 0.455417 0
M  V30 29 C -0.891494 -3.590004 2.041388 0
M  V30 30 C -2.234466 -3.285712 1.875960 0
M  V30 31 C -2.876505 -3.260435 0.674194 0
M  V30 32 C -2.141371 -3.557702 -0.457262 0
M  V30 33 C -0.798468 -3.866018 -0.330002 0
M  V30 34 C -0.182654 -3.882120 0.899199 0
M  V30 35 H -0.459242 -1.273539 3.990827 0
M  V30 36 H 1.027779 -1.644411 2.007787 0
M  V30 37 H 2.226102 -2.259718 3.191183 0
M  V30 38 H 2.119613 -0.030386 4.399270 0
M  V30 39 H 0.894628 0.493088 3.208030 0
M  V30 40 H 3.801245 0.568126 2.883592 0
M  V30 41 H 4.558753 1.222213 -1.525540 0
M  V30 42 H 2.506932 0.652506 -2.762453 0
M  V30 43 H 0.157419 3.014927 -1.263735 0
M  V30 44 H -0.412107 4.797022 0.420908 0
M  V30 45 H -2.050335 4.332830 2.165541 0
M  V30 46 H -4.202744 1.592410 2.227995 0
M  V30 47 H -2.599744 0.407065 0.657864 0
M  V30 48 H 0.389562 -3.706723 -4.706622 0
M  V30 49 H 1.732031 -2.346393 -3.000426 0
M  V30 50 H -2.831733 -3.049232 2.745167 0
M  V30 51 H -3.917540 -3.020572 0.582137 0
M  V30 52 H -2.545126 -3.566780 -1.447890 0
M  V30 53 H -0.205807 -4.102384 -1.210014 0
M  V30 54 H 0.870769 -4.116846 1.065879 0
M  V30 END ATOM
M  V30 BEGIN BOND
M  V30 1 2 1 2
M  V30 2 2 2 3
M  V30 3 1 2 4
M  V30 4 1 4 5
M  V30 5 1 5 6
M  V30 6 1 6 7
M  V30 7 1 7 8
M  V30 8 2 8 9
M  V30 9 1 9 10
M  V30 10 2 10 11
M  V30 11 1 11 12
M  V30 12 1 12 13
M  V30 13 2 13 14
M  V30 14 1 14 15
M  V30 15 2 15 16
M  V30 16 1 16 17
M  V30 17 2 17 18
M  V30 18 1 18 19
M  V30 19 1 19 20
M  V30 20 2 19 21
M  V30 21 1 14 22
M  V30 22 2 22 23
M  V30 23 1 23 24
M  V30 24 1 24 25
M  V30 25 2 25 26
M  V30 26 1 26 27
M  V30 27 2 12 28
M  V30 28 1 2 29
M  V30 29 2 29 30
M  V30 30 1 30 31
M  V30 31 2 31 32
M  V30 32 1 32 33
M  V30 33 2 33 34
M  V30 34 1 28 8
M  V30 35 1 34 29
M  V30 36 1 27 13
M  V30 37 1 21 15
M  V30 38 1 27 23
M  V30 39 1 4 35
M  V30 40 1 5 36
M  V30 41 1 5 37
M  V30 42 1 6 38
M  V30 43 1 6 39
M  V30 44 1 7 40
M  V30 45 1 10 41
M  V30 46 1 11 42
M  V30 47 1 16 43
M  V30 48 1 17 44
M  V30 49 1 18 45
M  V30 50 1 20 46
M  V30 51 1 21 47
M  V30 52 1 25 48
M  V30 53 1 26 49
M  V30 54 1 30 50
M  V30 55 1 31 51
M  V30 56 1 32 52
M  V30 57 1 33 53
M  V30 58 1 34 54
M  V30 END BOND
M  V30 END CTAB
M  END
>  <Dataset>  (725) 
ChEMBL_Kinases

>  <Ligand_Instance>  (725) 
nan

>  <PDB_ID>  (725) 
nan

>  <Standardized_SMILES>  (725) 
O=S(=O)(NCCNc1nccc(-c2c(-c3cccc(O)c3)nc3sccn23)n1)c1ccccc1

>  <Name>  (725) 
nan

>  <Pocket>  (725) 
nan

>  <ATP_Site>  (725) 
nan

>  <Peripheral>  (725) 
nan

>  <Num_H_Atoms_ProtBoundConf>  (725) 
nan

>  <Num_Resolved_Atoms>  (725) 
nan

>  <Num_Not_Resolved_Atoms>  (725) 
nan

$$$$
CHEMBL5077627
     RDKit          3D

  0  0  0  0  0  0  0  0  0  0999 V3000
M  V30 BEGIN CTAB
M  V30 COUNTS 103 110 0 0 0
M  V30 BEGIN ATOM
M  V30 1 C -1.056190 -5.730178 -3.949012 0
M  V30 2 C -0.979198 -4.198206 -3.928388 0
M  V30 3 C 0.338389 -3.772597 -4.392210 0
M  V30 4 C 1.282478 -4.631969 -5.087924 0
M  V30 5 C 2.580046 -4.362031 -5.696996 0
M  V30 6 C 2.527903 -3.074749 -5.358587 0
M  V30 7 C 2.077776 -1.975142 -4.860311 0
M  V30 8 C 2.637643 -0.632132 -4.775633 0
M  V30 9 C 3.374212 -0.425937 -3.455255 0
M  V30 10 C 0.899614 -2.453123 -4.367578 0
M  V30 11 N -0.058789 -1.563313 -3.702943 0
M  V30 12 C -1.011309 -1.059458 -4.677010 0
M  V30 13 C -2.396586 -0.864727 -4.167772 0
M  V30 14 N -2.511062 -0.375145 -2.846749 0
M  V30 15 C -3.325933 0.243366 -1.992288 0
M  V30 16 C -2.972037 0.487709 -0.767035 0
M  V30 17 C -3.681414 1.119993 0.329289 0
M  V30 18 N -3.872769 0.779785 1.550032 0
M  V30 19 C -4.441825 1.144426 2.647935 0
M  V30 20 N -4.442801 0.371794 3.917807 0
M  V30 21 C -3.369582 -0.633831 3.836273 0
M  V30 22 C -2.251043 0.365858 3.807637 0
M  V30 23 C -0.950252 -0.107479 3.838298 0
M  V30 24 C -0.748977 -1.495154 3.877636 0
M  V30 25 N 0.516931 -2.098325 3.820265 0
M  V30 26 C 1.734109 -2.496123 4.453274 0
M  V30 27 C 2.905154 -2.075502 3.515433 0
M  V30 28 C 2.479775 -0.872670 2.767159 0
M  V30 29 O 2.196867 0.101294 3.722752 0
M  V30 30 C 3.456307 -0.267803 1.842148 0
M  V30 31 O 4.386881 -1.053653 1.453944 0
M  V30 32 N 3.310218 1.123000 1.444093 0
M  V30 33 C 2.244405 2.009096 1.850458 0
M  V30 34 C 2.496559 3.421983 1.360890 0
M  V30 35 N 3.053192 3.382847 0.057510 0
M  V30 36 C 2.823654 4.513379 -0.765834 0
M  V30 37 C 4.395570 2.879979 0.134761 0
M  V30 38 C 4.399177 1.419576 0.482109 0
M  V30 39 C 1.284042 -1.165147 1.850122 0
M  V30 40 C 0.721842 -2.486883 2.416734 0
M  V30 41 C -1.847734 -2.245066 3.892162 0
M  V30 42 C -3.250355 -2.101332 3.881911 0
M  V30 43 O -4.436460 -1.966369 3.872873 0
M  V30 44 C -5.717486 -2.280041 3.875337 0
M  V30 45 N -4.991919 2.243028 2.366053 0
M  V30 46 C -5.118388 3.060672 1.283167 0
M  V30 47 N -5.606892 4.158290 0.731595 0
M  V30 48 C -5.246786 4.203112 -0.550429 0
M  V30 49 C -4.479352 3.049603 -0.813376 0
M  V30 50 C -4.374149 2.268215 0.397676 0
M  V30 51 C -1.644422 -0.026048 -0.663752 0
M  V30 52 C -1.478677 -0.519111 -1.982524 0
M  V30 53 C -0.150425 -1.134369 -2.308090 0
M  V30 54 O 0.895791 -1.398302 -1.775049 0
M  V30 55 H -1.027017 -6.043223 -5.032560 0
M  V30 56 H -2.119360 -5.997323 -3.647390 0
M  V30 57 H -0.297560 -6.217777 -3.337006 0
M  V30 58 H -1.264578 -3.760353 -2.971624 0
M  V30 59 H -1.766149 -3.907320 -4.704891 0
M  V30 60 H 0.837642 -5.653123 -5.063322 0
M  V30 61 H 2.948728 -5.236925 -6.094749 0
M  V30 62 H 3.583092 -2.782164 -5.822116 0
M  V30 63 H 3.413043 -0.528464 -5.599402 0
M  V30 64 H 1.862141 0.154249 -4.947765 0
M  V30 65 H 2.989035 0.450614 -2.961402 0
M  V30 66 H 4.469366 -0.369228 -3.662079 0
M  V30 67 H 3.274020 -1.316309 -2.799746 0
M  V30 68 H -1.037679 -1.776904 -5.548717 0
M  V30 69 H -0.613817 -0.102226 -5.073010 0
M  V30 70 H -3.071932 -0.379828 -4.885631 0
M  V30 71 H -2.812862 -1.942647 -4.096946 0
M  V30 72 H -4.303203 0.494507 -2.463342 0
M  V30 73 H -5.124937 0.630081 4.625846 0
M  V30 74 H -2.205416 1.455538 3.774400 0
M  V30 75 H -0.165909 0.582669 3.862268 0
M  V30 76 H 1.785191 -3.616923 4.480507 0
M  V30 77 H 1.906313 -2.180337 5.465710 0
M  V30 78 H 3.736375 -1.795112 4.180252 0
M  V30 79 H 3.249527 -2.923147 2.904326 0
M  V30 80 H 1.852900 -0.362970 4.539341 0
M  V30 81 H 2.093810 2.113882 2.938240 0
M  V30 82 H 1.275090 1.714249 1.314284 0
M  V30 83 H 1.494297 3.956279 1.268801 0
M  V30 84 H 3.043030 4.014267 2.118671 0
M  V30 85 H 3.199423 4.312955 -1.763390 0
M  V30 86 H 1.696600 4.588558 -0.891760 0
M  V30 87 H 3.093980 5.500120 -0.346201 0
M  V30 88 H 4.881669 3.435969 0.988849 0
M  V30 89 H 4.895312 3.140339 -0.803772 0
M  V30 90 H 4.247117 0.777544 -0.427260 0
M  V30 91 H 5.338818 1.164796 0.966198 0
M  V30 92 H 1.621495 -1.351944 0.806861 0
M  V30 93 H 0.486908 -0.433298 1.972788 0
M  V30 94 H -0.254999 -2.645584 1.907481 0
M  V30 95 H 1.385799 -3.326505 2.255353 0
M  V30 96 H -1.959378 -3.374620 3.923964 0
M  V30 97 H -6.371534 -2.192365 2.951245 0
M  V30 98 H -5.981980 -3.285840 4.334565 0
M  V30 99 H -6.304420 -1.529822 4.584968 0
M  V30 100 H -6.119486 4.656692 1.469826 0
M  V30 101 H -5.616960 5.068015 -1.076166 0
M  V30 102 H -4.170147 3.066100 -1.863520 0
M  V30 103 H -1.007480 -0.004920 0.181150 0
M  V30 END ATOM
M  V30 BEGIN BOND
M  V30 1 1 1 2
M  V30 2 1 2 3
M  V30 3 2 3 4
M  V30 4 1 4 5
M  V30 5 2 5 6
M  V30 6 1 6 7
M  V30 7 1 7 8
M  V30 8 1 8 9
M  V30 9 2 7 10
M  V30 10 1 10 11
M  V30 11 1 11 12
M  V30 12 1 12 13
M  V30 13 1 13 14
M  V30 14 1 14 15
M  V30 15 2 15 16
M  V30 16 1 16 17
M  V30 17 2 17 18
M  V30 18 1 18 19
M  V30 19 1 19 20
M  V30 20 1 20 21
M  V30 21 2 21 22
M  V30 22 1 22 23
M  V30 23 2 23 24
M  V30 24 1 24 25
M  V30 25 1 25 26
M  V30 26 1 26 27
M  V30 27 1 27 28
M  V30 28 1 28 29
M  V30 29 1 28 30
M  V30 30 2 30 31
M  V30 31 1 30 32
M  V30 32 1 32 33
M  V30 33 1 33 34
M  V30 34 1 34 35
M  V30 35 1 35 36
M  V30 36 1 35 37
M  V30 37 1 37 38
M  V30 38 1 28 39
M  V30 39 1 39 40
M  V30 40 1 24 41
M  V30 41 2 41 42
M  V30 42 1 42 43
M  V30 43 1 43 44
M  V30 44 2 19 45
M  V30 45 1 45 46
M  V30 46 1 46 47
M  V30 47 1 47 48
M  V30 48 2 48 49
M  V30 49 1 49 50
M  V30 50 1 16 51
M  V30 51 2 51 52
M  V30 52 1 52 53
M  V30 53 2 53 54
M  V30 54 1 10 3
M  V30 55 1 53 11
M  V30 56 1 52 14
M  V30 57 1 50 17
M  V30 58 1 42 21
M  V30 59 2 50 46
M  V30 60 1 40 25
M  V30 61 1 38 32
M  V30 62 1 1 55
M  V30 63 1 1 56
M  V30 64 1 1 57
M  V30 65 1 2 58
M  V30 66 1 2 59
M  V30 67 1 4 60
M  V30 68 1 5 61
M  V30 69 1 6 62
M  V30 70 1 8 63
M  V30 71 1 8 64
M  V30 72 1 9 65
M  V30 73 1 9 66
M  V30 74 1 9 67
M  V30 75 1 12 68
M  V30 76 1 12 69
M  V30 77 1 13 70
M  V30 78 1 13 71
M  V30 79 1 15 72
M  V30 80 1 20 73
M  V30 81 1 22 74
M  V30 82 1 23 75
M  V30 83 1 26 76
M  V30 84 1 26 77
M  V30 85 1 27 78
M  V30 86 1 27 79
M  V30 87 1 29 80
M  V30 88 1 33 81
M  V30 89 1 33 82
M  V30 90 1 34 83
M  V30 91 1 34 84
M  V30 92 1 36 85
M  V30 93 1 36 86
M  V30 94 1 36 87
M  V30 95 1 37 88
M  V30 96 1 37 89
M  V30 97 1 38 90
M  V30 98 1 38 91
M  V30 99 1 39 92
M  V30 100 1 39 93
M  V30 101 1 40 94
M  V30 102 1 40 95
M  V30 103 1 41 96
M  V30 104 1 44 97
M  V30 105 1 44 98
M  V30 106 1 44 99
M  V30 107 1 47 100
M  V30 108 1 48 101
M  V30 109 1 49 102
M  V30 110 1 51 103
M  V30 END BOND
M  V30 END CTAB
M  END
>  <Dataset>  (726) 
ChEMBL_Kinases

>  <Ligand_Instance>  (726) 
nan

>  <PDB_ID>  (726) 
nan

>  <Standardized_SMILES>  (726) 
CCc1cccc(CC)c1N1CCn2cc(-c3nc(Nc4ccc(N5CCC(O)(C(=O)N6CCN(C)CC6)CC5)cc4OC)nc4[nH]ccc34)cc2C1=O

>  <Name>  (726) 
nan

>  <Pocket>  (726) 
nan

>  <ATP_Site>  (726) 
nan

>  <Peripheral>  (726) 
nan

>  <Num_H_Atoms_ProtBoundConf>  (726) 
nan

>  <Num_Resolved_Atoms>  (726) 
nan

>  <Num_Not_Resolved_Atoms>  (726) 
nan

$$$$
CHEMBL5077640
     RDKit          3D

  0  0  0  0  0  0  0  0  0  0999 V3000
M  V30 BEGIN CTAB
M  V30 COUNTS 51 54 0 0 0
M  V30 BEGIN ATOM
M  V30 1 C 3.526699 -3.703105 5.656728 0
M  V30 2 C 2.207883 -3.057966 5.927105 0
M  V30 3 O 1.549123 -2.578255 4.763901 0
M  V30 4 C 2.123192 -1.620559 3.946043 0
M  V30 5 C 3.357634 -1.042738 4.159845 0
M  V30 6 C 3.825645 -0.095062 3.270894 0
M  V30 7 N 5.019090 0.498190 3.431258 0
M  V30 8 C 5.503628 1.422469 2.586394 0
M  V30 9 N 4.797785 1.806128 1.513542 0
M  V30 10 C 3.572684 1.249937 1.278651 0
M  V30 11 N 2.878901 1.694919 0.133523 0
M  V30 12 C 1.720840 1.576414 -0.628291 0
M  V30 13 C 0.592736 2.367275 -0.382647 0
M  V30 14 C -0.577233 2.275723 -1.111777 0
M  V30 15 C -0.549446 1.332260 -2.115044 0
M  V30 16 N -1.726679 1.182950 -2.910151 0
M  V30 17 C -2.677530 0.238009 -2.440305 0
M  V30 18 O -2.388900 -0.379401 -1.363122 0
M  V30 19 N -3.908065 -0.074863 -3.059855 0
M  V30 20 C -4.751621 -1.060084 -2.444852 0
M  V30 21 C -5.729211 -0.802167 -1.502551 0
M  V30 22 C -6.481751 -1.837860 -0.979681 0
M  V30 23 C -6.266152 -3.132553 -1.390589 0
M  V30 24 C -5.289851 -3.419597 -2.336483 0
M  V30 25 Cl -5.053159 -5.092570 -2.828889 0
M  V30 26 C -4.555775 -2.373405 -2.840632 0
M  V30 27 C 0.491095 0.497146 -2.455847 0
M  V30 28 C 1.642933 0.646888 -1.673681 0
M  V30 29 C 3.116679 0.308627 2.168875 0
M  V30 30 C 1.887480 -0.268837 1.958775 0
M  V30 31 C 1.403573 -1.216989 2.835700 0
M  V30 32 F 0.171182 -1.774734 2.596854 0
M  V30 33 H 3.848777 -3.711892 4.608816 0
M  V30 34 H 4.335034 -3.308745 6.326785 0
M  V30 35 H 3.435497 -4.784810 5.963786 0
M  V30 36 H 1.528231 -3.667373 6.540785 0
M  V30 37 H 2.411656 -2.138144 6.549931 0
M  V30 38 H 3.923610 -1.343832 5.011417 0
M  V30 39 H 6.467283 1.905200 2.710933 0
M  V30 40 H 3.296328 2.413084 -0.493169 0
M  V30 41 H 0.649616 3.086681 0.424332 0
M  V30 42 H -1.445473 2.886824 -0.920019 0
M  V30 43 H -1.949710 1.691738 -3.785355 0
M  V30 44 H -4.133475 0.444504 -3.951276 0
M  V30 45 H -5.857005 0.231591 -1.215273 0
M  V30 46 H -7.242341 -1.605134 -0.241265 0
M  V30 47 H -6.851542 -3.954871 -0.986567 0
M  V30 48 H -3.808043 -2.642807 -3.573228 0
M  V30 49 H 0.422182 -0.215134 -3.261782 0
M  V30 50 H 2.509397 0.029888 -1.872951 0
M  V30 51 H 1.274272 -0.009668 1.125070 0
M  V30 END ATOM
M  V30 BEGIN BOND
M  V30 1 1 1 2
M  V30 2 1 2 3
M  V30 3 1 3 4
M  V30 4 2 4 5
M  V30 5 1 5 6
M  V30 6 2 6 7
M  V30 7 1 7 8
M  V30 8 2 8 9
M  V30 9 1 9 10
M  V30 10 1 10 11
M  V30 11 1 11 12
M  V30 12 2 12 13
M  V30 13 1 13 14
M  V30 14 2 14 15
M  V30 15 1 15 16
M  V30 16 1 16 17
M  V30 17 2 17 18
M  V30 18 1 17 19
M  V30 19 1 19 20
M  V30 20 2 20 21
M  V30 21 1 21 22
M  V30 22 2 22 23
M  V30 23 1 23 24
M  V30 24 1 24 25
M  V30 25 2 24 26
M  V30 26 1 15 27
M  V30 27 2 27 28
M  V30 28 2 10 29
M  V30 29 1 29 30
M  V30 30 2 30 31
M  V30 31 1 31 32
M  V30 32 1 31 4
M  V30 33 1 29 6
M  V30 34 1 28 12
M  V30 35 1 26 20
M  V30 36 1 1 33
M  V30 37 1 1 34
M  V30 38 1 1 35
M  V30 39 1 2 36
M  V30 40 1 2 37
M  V30 41 1 5 38
M  V30 42 1 8 39
M  V30 43 1 11 40
M  V30 44 1 13 41
M  V30 45 1 14 42
M  V30 46 1 16 43
M  V30 47 1 19 44
M  V30 48 1 21 45
M  V30 49 1 22 46
M  V30 50 1 23 47
M  V30 51 1 26 48
M  V30 52 1 27 49
M  V30 53 1 28 50
M  V30 54 1 30 51
M  V30 END BOND
M  V30 END CTAB
M  END
>  <Dataset>  (727) 
ChEMBL_Kinases

>  <Ligand_Instance>  (727) 
nan

>  <PDB_ID>  (727) 
nan

>  <Standardized_SMILES>  (727) 
CCOc1cc2ncnc(Nc3ccc(NC(=O)Nc4cccc(Cl)c4)cc3)c2cc1F

>  <Name>  (727) 
nan

>  <Pocket>  (727) 
nan

>  <ATP_Site>  (727) 
nan

>  <Peripheral>  (727) 
nan

>  <Num_H_Atoms_ProtBoundConf>  (727) 
nan

>  <Num_Resolved_Atoms>  (727) 
nan

>  <Num_Not_Resolved_Atoms>  (727) 
nan

$$$$
CHEMBL5077653
     RDKit          3D

  0  0  0  0  0  0  0  0  0  0999 V3000
M  V30 BEGIN CTAB
M  V30 COUNTS 39 41 0 0 0
M  V30 BEGIN ATOM
M  V30 1 C 1.473116 -3.179862 1.741977 0
M  V30 2 C 1.201438 -3.277547 0.257626 0
M  V30 3 C 1.875674 -2.197160 -0.501333 0
M  V30 4 C 3.034264 -2.471513 -1.239478 0
M  V30 5 C 3.646161 -1.439577 -1.918575 0
M  V30 6 O 4.792978 -1.726852 -2.645719 0
M  V30 7 C 3.195231 -0.138139 -1.925010 0
M  V30 8 F 3.779104 0.879452 -2.580708 0
M  V30 9 C 2.035909 0.065921 -1.169455 0
M  V30 10 C 1.353806 -0.924801 -0.452095 0
M  V30 11 C 0.162842 -0.486968 0.240334 0
M  V30 12 C 0.441218 0.586650 1.098832 0
M  V30 13 C -0.520173 1.205929 1.869447 0
M  V30 14 O -0.331183 2.255241 2.728919 0
M  V30 15 C 0.936400 2.824319 2.909456 0
M  V30 16 C -1.826917 0.758614 1.804156 0
M  V30 17 N -2.872550 1.255870 2.490618 0
M  V30 18 C -4.116925 0.759536 2.367770 0
M  V30 19 N -5.137716 1.387786 3.161143 0
M  V30 20 N -4.417492 -0.280290 1.543665 0
M  V30 21 C -3.376035 -0.803054 0.836133 0
M  V30 22 C -2.121895 -0.298913 0.963353 0
M  V30 23 C -1.141882 -0.895739 0.207073 0
M  V30 24 H 2.180330 -3.949725 2.110534 0
M  V30 25 H 1.887960 -2.210317 2.056770 0
M  V30 26 H 0.496745 -3.407862 2.253652 0
M  V30 27 H 0.138192 -3.425582 0.005777 0
M  V30 28 H 1.679682 -4.259798 -0.049436 0
M  V30 29 H 3.402666 -3.488545 -1.245466 0
M  V30 30 H 5.345962 -2.568793 -2.474155 0
M  V30 31 H 1.670127 1.104948 -1.170746 0
M  V30 32 H 1.425892 1.044314 1.252076 0
M  V30 33 H 1.723998 2.050403 2.997934 0
M  V30 34 H 1.208628 3.526859 2.085307 0
M  V30 35 H 0.989462 3.419419 3.860800 0
M  V30 36 H -5.118188 0.928140 4.117578 0
M  V30 37 H -5.475452 2.062271 2.411143 0
M  V30 38 H -3.703240 -1.628119 0.202977 0
M  V30 39 H -1.331174 -1.697321 -0.456763 0
M  V30 END ATOM
M  V30 BEGIN BOND
M  V30 1 1 1 2
M  V30 2 1 2 3
M  V30 3 2 3 4
M  V30 4 1 4 5
M  V30 5 1 5 6
M  V30 6 2 5 7
M  V30 7 1 7 8
M  V30 8 1 7 9
M  V30 9 2 9 10
M  V30 10 1 10 11
M  V30 11 2 11 12
M  V30 12 1 12 13
M  V30 13 1 13 14
M  V30 14 1 14 15
M  V30 15 2 13 16
M  V30 16 1 16 17
M  V30 17 2 17 18
M  V30 18 1 18 19
M  V30 19 1 18 20
M  V30 20 2 20 21
M  V30 21 1 21 22
M  V30 22 2 22 23
M  V30 23 1 10 3
M  V30 24 1 23 11
M  V30 25 1 22 16
M  V30 26 1 1 24
M  V30 27 1 1 25
M  V30 28 1 1 26
M  V30 29 1 2 27
M  V30 30 1 2 28
M  V30 31 1 4 29
M  V30 32 1 6 30
M  V30 33 1 9 31
M  V30 34 1 12 32
M  V30 35 1 15 33
M  V30 36 1 15 34
M  V30 37 1 15 35
M  V30 38 1 19 36
M  V30 39 1 19 37
M  V30 40 1 21 38
M  V30 41 1 23 39
M  V30 END BOND
M  V30 END CTAB
M  END
>  <Dataset>  (728) 
ChEMBL_Kinases

>  <Ligand_Instance>  (728) 
nan

>  <PDB_ID>  (728) 
nan

>  <Standardized_SMILES>  (728) 
CCc1cc(O)c(F)cc1-c1cc(OC)c2nc(N)ncc2c1

>  <Name>  (728) 
nan

>  <Pocket>  (728) 
nan

>  <ATP_Site>  (728) 
nan

>  <Peripheral>  (728) 
nan

>  <Num_H_Atoms_ProtBoundConf>  (728) 
nan

>  <Num_Resolved_Atoms>  (728) 
nan

>  <Num_Not_Resolved_Atoms>  (728) 
nan

$$$$
CHEMBL3702294
     RDKit          3D

  0  0  0  0  0  0  0  0  0  0999 V3000
M  V30 BEGIN CTAB
M  V30 COUNTS 58 61 0 0 0
M  V30 BEGIN ATOM
M  V30 1 C -0.351830 -0.317336 0.755524 0
M  V30 2 C -0.885697 0.521751 1.848765 0
M  V30 3 C 0.073799 1.299047 2.441170 0
M  V30 4 C 1.464341 1.611175 2.368872 0
M  V30 5 O 1.989813 2.445921 3.165867 0
M  V30 6 N 2.462308 1.142927 1.517387 0
M  V30 7 C 3.856301 1.247527 1.205977 0 CFG=1
M  V30 8 C 4.607626 -0.021188 1.135476 0
M  V30 9 C 6.066017 0.256405 0.822549 0
M  V30 10 C 6.207128 0.919224 -0.532120 0 CFG=2
M  V30 11 O 7.105963 1.977435 -0.543253 0
M  V30 12 C 4.847929 1.314693 -1.075126 0
M  V30 13 C 3.987111 2.004682 -0.082824 0
M  V30 14 S -0.768852 2.180037 3.702020 0
M  V30 15 C -2.432197 1.457005 3.382948 0
M  V30 16 N -3.666331 1.634407 3.948129 0
M  V30 17 C -4.725535 0.962534 3.492675 0
M  V30 18 N -4.483617 0.143677 2.486927 0
M  V30 19 C -3.297200 -0.052258 1.913787 0
M  V30 20 N -3.361146 -0.993551 0.855457 0
M  V30 21 C -3.384807 -2.406945 1.058405 0
M  V30 22 C -3.381800 -3.015608 2.294623 0
M  V30 23 C -3.390266 -4.388231 2.422479 0
M  V30 24 C -3.401625 -5.160662 1.261704 0
M  V30 25 N -3.404287 -4.555372 0.069353 0
M  V30 26 C -3.396387 -3.222900 -0.064563 0
M  V30 27 O -3.397708 -2.625035 -1.305606 0
M  V30 28 C -3.395212 -3.434095 -2.464599 0
M  V30 29 C -4.613001 -3.066272 -3.284637 0
M  V30 30 C -2.181888 -3.174976 -3.329305 0
M  V30 31 C -2.159946 0.594698 2.317907 0
M  V30 32 H 0.432739 -1.012900 1.149416 0
M  V30 33 H -1.088511 -0.992411 0.278281 0
M  V30 34 H 0.049716 0.300468 -0.074161 0
M  V30 35 H 2.204594 0.448400 0.790146 0
M  V30 36 H 4.304397 1.899777 1.995370 0
M  V30 37 H 4.575489 -0.666817 2.026013 0
M  V30 38 H 4.230724 -0.568550 0.218344 0
M  V30 39 H 6.665339 -0.676700 0.829310 0
M  V30 40 H 6.522983 0.943269 1.560757 0
M  V30 41 H 6.590623 0.156662 -1.234173 0
M  V30 42 H 6.839155 2.652762 -1.193265 0
M  V30 43 H 5.048539 2.027945 -1.919453 0
M  V30 44 H 4.319512 0.467891 -1.557321 0
M  V30 45 H 4.346226 3.063654 0.098069 0
M  V30 46 H 2.980279 2.144698 -0.563556 0
M  V30 47 H -5.598564 1.215920 4.038010 0
M  V30 48 H -3.395488 -0.596556 -0.088901 0
M  V30 49 H -3.371731 -2.339538 3.151068 0
M  V30 50 H -3.385908 -4.756694 3.448970 0
M  V30 51 H -3.404389 -6.223166 1.490418 0
M  V30 52 H -3.405576 -4.477542 -2.131527 0
M  V30 53 H -5.481594 -3.260431 -2.649189 0
M  V30 54 H -4.613341 -3.680475 -4.217934 0
M  V30 55 H -4.573778 -2.017538 -3.598551 0
M  V30 56 H -2.390941 -3.578927 -4.338613 0
M  V30 57 H -1.982633 -2.089468 -3.449119 0
M  V30 58 H -1.262258 -3.700303 -2.957114 0
M  V30 END ATOM
M  V30 BEGIN BOND
M  V30 1 1 1 2
M  V30 2 2 2 3
M  V30 3 1 3 4
M  V30 4 2 4 5
M  V30 5 1 4 6
M  V30 6 1 6 7
M  V30 7 1 7 8
M  V30 8 1 8 9
M  V30 9 1 9 10
M  V30 10 1 10 11
M  V30 11 1 10 12
M  V30 12 1 12 13
M  V30 13 1 3 14
M  V30 14 1 14 15
M  V30 15 2 15 16
M  V30 16 1 16 17
M  V30 17 2 17 18
M  V30 18 1 18 19
M  V30 19 1 19 20
M  V30 20 1 20 21
M  V30 21 2 21 22
M  V30 22 1 22 23
M  V30 23 2 23 24
M  V30 24 1 24 25
M  V30 25 2 25 26
M  V30 26 1 26 27
M  V30 27 1 27 28
M  V30 28 1 28 29
M  V30 29 1 28 30
M  V30 30 2 19 31
M  V30 31 1 31 2
M  V30 32 1 13 7
M  V30 33 1 31 15
M  V30 34 1 26 21
M  V30 35 1 1 32
M  V30 36 1 1 33
M  V30 37 1 1 34
M  V30 38 1 6 35
M  V30 39 1 7 36 CFG=1
M  V30 40 1 8 37
M  V30 41 1 8 38
M  V30 42 1 9 39
M  V30 43 1 9 40
M  V30 44 1 10 41 CFG=3
M  V30 45 1 11 42
M  V30 46 1 12 43
M  V30 47 1 12 44
M  V30 48 1 13 45
M  V30 49 1 13 46
M  V30 50 1 17 47
M  V30 51 1 20 48
M  V30 52 1 22 49
M  V30 53 1 23 50
M  V30 54 1 24 51
M  V30 55 1 28 52
M  V30 56 1 29 53
M  V30 57 1 29 54
M  V30 58 1 29 55
M  V30 59 1 30 56
M  V30 60 1 30 57
M  V30 61 1 30 58
M  V30 END BOND
M  V30 END CTAB
M  END
>  <Dataset>  (729) 
ChEMBL_Kinases

>  <Ligand_Instance>  (729) 
nan

>  <PDB_ID>  (729) 
nan

>  <Standardized_SMILES>  (729) 
Cc1c(C(=O)N[C@H]2CC[C@H](O)CC2)sc2ncnc(Nc3cccnc3OC(C)C)c12

>  <Name>  (729) 
nan

>  <Pocket>  (729) 
nan

>  <ATP_Site>  (729) 
nan

>  <Peripheral>  (729) 
nan

>  <Num_H_Atoms_ProtBoundConf>  (729) 
nan

>  <Num_Resolved_Atoms>  (729) 
nan

>  <Num_Not_Resolved_Atoms>  (729) 
nan

$$$$
CHEMBL5078175
     RDKit          3D

  0  0  0  0  0  0  0  0  0  0999 V3000
M  V30 BEGIN CTAB
M  V30 COUNTS 67 70 0 0 0
M  V30 BEGIN ATOM
M  V30 1 C 1.546779 -0.608988 5.973007 0
M  V30 2 C 2.638518 -0.933757 5.018913 0
M  V30 3 C 2.635967 -0.784766 3.645185 0
M  V30 4 C 3.842744 -1.205398 3.156870 0
M  V30 5 N 4.193678 -1.192382 1.761476 0
M  V30 6 C 3.208870 -0.705397 0.854412 0
M  V30 7 C 3.160013 0.652235 0.515166 0
M  V30 8 C 2.214556 1.141890 -0.360376 0
M  V30 9 N 2.224010 2.515867 -0.653662 0
M  V30 10 C 3.248976 3.318836 0.013654 0
M  V30 11 C 1.346149 3.242992 -1.532682 0
M  V30 12 C 0.347421 2.355798 -2.180301 0
M  V30 13 N -0.559051 3.038202 -3.067923 0
M  V30 14 C -1.524590 2.189886 -3.696249 0
M  V30 15 C -1.029712 4.286524 -2.589127 0
M  V30 16 N 1.370020 0.227818 -0.844169 0
M  V30 17 C 1.359821 -1.074460 -0.564983 0
M  V30 18 N 0.394877 -1.936511 -1.158305 0
M  V30 19 C 0.435087 -3.343200 -0.813027 0 CFG=1
M  V30 20 C 0.241245 -3.525908 0.676704 0
M  V30 21 C -0.870706 -4.552340 0.703550 0
M  V30 22 N -1.770787 -4.034195 -0.307813 0
M  V30 23 C -3.092051 -3.569766 -0.565664 0
M  V30 24 O -3.652854 -3.149488 -1.602966 0
M  V30 25 C -4.171938 -3.474848 0.408130 0
M  V30 26 C -4.162468 -2.219414 1.026483 0
M  V30 27 C -5.109854 -1.904702 1.995489 0
M  V30 28 C -6.048763 -2.860319 2.323295 0
M  V30 29 C -6.066944 -4.114073 1.713234 0
M  V30 30 Cl -7.231168 -5.367612 2.085316 0
M  V30 31 C -5.121399 -4.411962 0.754220 0
M  V30 32 F -5.001344 -5.572992 0.072015 0
M  V30 33 C -0.775685 -4.081620 -1.360485 0
M  V30 34 N 2.291333 -1.530764 0.291867 0
M  V30 35 N 4.553291 -1.598555 4.219588 0
M  V30 36 N 3.839787 -1.438540 5.331660 0
M  V30 37 H 0.941503 -1.497558 6.218512 0
M  V30 38 H 2.027753 -0.230901 6.896360 0
M  V30 39 H 0.909713 0.174026 5.539314 0
M  V30 40 H 1.787590 -0.395157 3.109982 0
M  V30 41 H 5.153225 -1.547393 1.547508 0
M  V30 42 H 3.920838 1.263628 0.997928 0
M  V30 43 H 3.227049 4.384461 -0.286745 0
M  V30 44 H 3.210623 3.207587 1.118258 0
M  V30 45 H 4.226704 2.939620 -0.404865 0
M  V30 46 H 0.805276 3.974968 -0.863964 0
M  V30 47 H 1.993343 3.770280 -2.256154 0
M  V30 48 H -0.269018 1.845946 -1.414855 0
M  V30 49 H 0.925101 1.562935 -2.739043 0
M  V30 50 H -2.502847 2.391047 -3.174575 0
M  V30 51 H -1.694649 2.375607 -4.764986 0
M  V30 52 H -1.295225 1.124445 -3.514350 0
M  V30 53 H -1.931590 4.552961 -3.215514 0
M  V30 54 H -1.433344 4.221786 -1.559656 0
M  V30 55 H -0.335782 5.137731 -2.687282 0
M  V30 56 H -0.302896 -1.553337 -1.811026 0
M  V30 57 H 1.387917 -3.830383 -1.104185 0
M  V30 58 H -0.115245 -2.561133 1.090395 0
M  V30 59 H 1.162963 -3.885851 1.175632 0
M  V30 60 H -0.472036 -5.530274 0.379306 0
M  V30 61 H -1.347908 -4.598329 1.703530 0
M  V30 62 H -3.473336 -1.405543 0.841704 0
M  V30 63 H -5.182140 -0.975947 2.520614 0
M  V30 64 H -6.852689 -2.773565 3.055479 0
M  V30 65 H -1.101055 -3.620881 -2.309514 0
M  V30 66 H -0.427549 -5.129958 -1.517773 0
M  V30 67 H 4.164647 -1.669126 6.292236 0
M  V30 END ATOM
M  V30 BEGIN BOND
M  V30 1 1 1 2
M  V30 2 2 2 3
M  V30 3 1 3 4
M  V30 4 1 4 5
M  V30 5 1 5 6
M  V30 6 2 6 7
M  V30 7 1 7 8
M  V30 8 1 8 9
M  V30 9 1 9 10
M  V30 10 1 9 11
M  V30 11 1 11 12
M  V30 12 1 12 13
M  V30 13 1 13 14
M  V30 14 1 13 15
M  V30 15 2 8 16
M  V30 16 1 16 17
M  V30 17 1 17 18
M  V30 18 1 18 19
M  V30 19 1 19 20
M  V30 20 1 20 21
M  V30 21 1 21 22
M  V30 22 1 22 23
M  V30 23 2 23 24
M  V30 24 1 23 25
M  V30 25 2 25 26
M  V30 26 1 26 27
M  V30 27 2 27 28
M  V30 28 1 28 29
M  V30 29 1 29 30
M  V30 30 2 29 31
M  V30 31 1 31 32
M  V30 32 1 22 33
M  V30 33 2 17 34
M  V30 34 2 4 35
M  V30 35 1 35 36
M  V30 36 1 36 2
M  V30 37 1 34 6
M  V30 38 1 33 19
M  V30 39 1 31 25
M  V30 40 1 1 37
M  V30 41 1 1 38
M  V30 42 1 1 39
M  V30 43 1 3 40
M  V30 44 1 5 41
M  V30 45 1 7 42
M  V30 46 1 10 43
M  V30 47 1 10 44
M  V30 48 1 10 45
M  V30 49 1 11 46
M  V30 50 1 11 47
M  V30 51 1 12 48
M  V30 52 1 12 49
M  V30 53 1 14 50
M  V30 54 1 14 51
M  V30 55 1 14 52
M  V30 56 1 15 53
M  V30 57 1 15 54
M  V30 58 1 15 55
M  V30 59 1 18 56
M  V30 60 1 19 57 CFG=3
M  V30 61 1 20 58
M  V30 62 1 20 59
M  V30 63 1 21 60
M  V30 64 1 21 61
M  V30 65 1 26 62
M  V30 66 1 27 63
M  V30 67 1 28 64
M  V30 68 1 33 65
M  V30 69 1 33 66
M  V30 70 1 36 67
M  V30 END BOND
M  V30 END CTAB
M  END
>  <Dataset>  (730) 
ChEMBL_Kinases

>  <Ligand_Instance>  (730) 
nan

>  <PDB_ID>  (730) 
nan

>  <Standardized_SMILES>  (730) 
Cc1cc(Nc2cc(N(C)CCN(C)C)nc(N[C@H]3CCN(C(=O)c4cccc(Cl)c4F)C3)n2)n[nH]1

>  <Name>  (730) 
nan

>  <Pocket>  (730) 
nan

>  <ATP_Site>  (730) 
nan

>  <Peripheral>  (730) 
nan

>  <Num_H_Atoms_ProtBoundConf>  (730) 
nan

>  <Num_Resolved_Atoms>  (730) 
nan

>  <Num_Not_Resolved_Atoms>  (730) 
nan

$$$$
CHEMBL5077679
     RDKit          3D

  0  0  0  0  0  0  0  0  0  0999 V3000
M  V30 BEGIN CTAB
M  V30 COUNTS 64 69 0 0 0
M  V30 BEGIN ATOM
M  V30 1 O 0.968393 2.135345 4.762363 0
M  V30 2 C 0.961181 1.092124 4.053633 0
M  V30 3 N 2.112334 0.261510 4.041342 0
M  V30 4 C 3.329199 0.472785 4.763317 0
M  V30 5 C 3.986064 1.791704 4.360657 0
M  V30 6 N 4.300612 1.816589 2.966602 0
M  V30 7 C 4.934026 3.081473 2.569558 0
M  V30 8 C 5.872521 2.258126 1.763544 0
M  V30 9 C 5.711931 2.165011 0.296235 0
M  V30 10 O 7.041920 2.622745 0.184380 0
M  V30 11 C 7.270272 2.665810 1.578051 0
M  V30 12 C 5.529238 1.085701 2.612252 0
M  V30 13 C -0.258548 0.831030 3.295236 0
M  V30 14 C -1.293163 1.733997 3.417205 0
M  V30 15 C -2.505642 1.580504 2.734897 0
M  V30 16 C -2.698467 0.482236 1.894960 0
M  V30 17 C -1.639153 -0.398900 1.799569 0
M  V30 18 C -0.439590 -0.257142 2.467791 0
M  V30 19 C -1.635752 -1.622798 0.966083 0
M  V30 20 O -0.806722 -2.506916 1.329711 0
M  V30 21 C -2.498333 -1.874139 -0.213930 0
M  V30 22 C -2.173890 -3.097373 -0.763158 0
M  V30 23 C -2.874791 -3.526553 -1.891452 0
M  V30 24 C -3.857742 -2.704428 -2.400588 0
M  V30 25 N -4.597425 -3.101128 -3.547915 0
M  V30 26 C -4.455603 -4.331063 -4.246092 0
M  V30 27 C -4.080129 -4.192582 -5.583961 0
M  V30 28 C -3.904416 -5.315724 -6.393342 0
M  V30 29 C -4.098176 -6.580735 -5.887306 0
M  V30 30 F -3.933570 -7.689685 -6.652745 0
M  V30 31 C -4.467738 -6.702862 -4.568669 0
M  V30 32 C -4.651368 -5.602885 -3.734414 0
M  V30 33 F -5.016340 -5.673072 -2.434201 0
M  V30 34 C -4.163275 -1.486512 -1.833797 0
M  V30 35 C -3.486017 -1.035605 -0.716362 0
M  V30 36 C -3.957809 0.298125 -0.255635 0
M  V30 37 C -4.031348 0.447144 1.236916 0
M  V30 38 H 2.004273 -0.573983 3.426033 0
M  V30 39 H 3.205892 0.419009 5.862254 0
M  V30 40 H 4.058522 -0.306192 4.491531 0
M  V30 41 H 3.239012 2.583483 4.565088 0
M  V30 42 H 4.848975 2.022343 5.014209 0
M  V30 43 H 4.321080 3.759431 1.978963 0
M  V30 44 H 5.435517 3.631602 3.381630 0
M  V30 45 H 4.984907 2.923534 -0.085001 0
M  V30 46 H 5.543168 1.179181 -0.160309 0
M  V30 47 H 7.456210 3.722605 1.854745 0
M  V30 48 H 8.074410 1.973100 1.906761 0
M  V30 49 H 5.294495 0.205022 2.013171 0
M  V30 50 H 6.230152 0.988299 3.443547 0
M  V30 51 H -1.266266 2.634559 4.043629 0
M  V30 52 H -3.318220 2.307994 2.843213 0
M  V30 53 H 0.337626 -0.973198 2.350507 0
M  V30 54 H -1.392079 -3.707503 -0.324857 0
M  V30 55 H -2.613004 -4.471876 -2.305338 0
M  V30 56 H -5.327504 -2.496065 -3.979077 0
M  V30 57 H -3.902325 -3.247267 -6.080715 0
M  V30 58 H -3.611795 -5.234822 -7.439878 0
M  V30 59 H -4.630684 -7.686136 -4.130162 0
M  V30 60 H -4.947306 -0.872273 -2.271094 0
M  V30 61 H -3.155520 1.010784 -0.608521 0
M  V30 62 H -4.931155 0.513557 -0.693902 0
M  V30 63 H -4.661699 -0.390955 1.616412 0
M  V30 64 H -4.558900 1.378529 1.450140 0
M  V30 END ATOM
M  V30 BEGIN BOND
M  V30 1 2 1 2
M  V30 2 1 2 3
M  V30 3 1 3 4
M  V30 4 1 4 5
M  V30 5 1 5 6
M  V30 6 1 6 7
M  V30 7 1 7 8
M  V30 8 1 8 9
M  V30 9 1 9 10
M  V30 10 1 10 11
M  V30 11 1 8 12
M  V30 12 1 2 13
M  V30 13 2 13 14
M  V30 14 1 14 15
M  V30 15 2 15 16
M  V30 16 1 16 17
M  V30 17 2 17 18
M  V30 18 1 17 19
M  V30 19 2 19 20
M  V30 20 1 19 21
M  V30 21 2 21 22
M  V30 22 1 22 23
M  V30 23 2 23 24
M  V30 24 1 24 25
M  V30 25 1 25 26
M  V30 26 2 26 27
M  V30 27 1 27 28
M  V30 28 2 28 29
M  V30 29 1 29 30
M  V30 30 1 29 31
M  V30 31 2 31 32
M  V30 32 1 32 33
M  V30 33 1 24 34
M  V30 34 2 34 35
M  V30 35 1 35 36
M  V30 36 1 36 37
M  V30 37 1 12 6
M  V30 38 1 18 13
M  V30 39 1 35 21
M  V30 40 1 11 8
M  V30 41 1 37 16
M  V30 42 1 32 26
M  V30 43 1 3 38
M  V30 44 1 4 39
M  V30 45 1 4 40
M  V30 46 1 5 41
M  V30 47 1 5 42
M  V30 48 1 7 43
M  V30 49 1 7 44
M  V30 50 1 9 45
M  V30 51 1 9 46
M  V30 52 1 11 47
M  V30 53 1 11 48
M  V30 54 1 12 49
M  V30 55 1 12 50
M  V30 56 1 14 51
M  V30 57 1 15 52
M  V30 58 1 18 53
M  V30 59 1 22 54
M  V30 60 1 23 55
M  V30 61 1 25 56
M  V30 62 1 27 57
M  V30 63 1 28 58
M  V30 64 1 31 59
M  V30 65 1 34 60
M  V30 66 1 36 61
M  V30 67 1 36 62
M  V30 68 1 37 63
M  V30 69 1 37 64
M  V30 END BOND
M  V30 END CTAB
M  END
>  <Dataset>  (731) 
ChEMBL_Kinases

>  <Ligand_Instance>  (731) 
nan

>  <PDB_ID>  (731) 
nan

>  <Standardized_SMILES>  (731) 
O=C(NCCN1CC2(COC2)C1)c1ccc2c(c1)C(=O)c1ccc(Nc3ccc(F)cc3F)cc1CC2

>  <Name>  (731) 
nan

>  <Pocket>  (731) 
nan

>  <ATP_Site>  (731) 
nan

>  <Peripheral>  (731) 
nan

>  <Num_H_Atoms_ProtBoundConf>  (731) 
nan

>  <Num_Resolved_Atoms>  (731) 
nan

>  <Num_Not_Resolved_Atoms>  (731) 
nan

$$$$
CHEMBL5077689
     RDKit          3D

  0  0  0  0  0  0  0  0  0  0999 V3000
M  V30 BEGIN CTAB
M  V30 COUNTS 61 65 0 0 0
M  V30 BEGIN ATOM
M  V30 1 C -1.385852 -3.488202 4.403250 0
M  V30 2 C -1.090037 -2.073012 4.058553 0
M  V30 3 C -1.380564 -1.000818 4.878180 0
M  V30 4 C -1.092231 0.308782 4.525556 0
M  V30 5 C -0.484179 0.554750 3.293630 0
M  V30 6 N -0.151610 1.865027 2.848245 0
M  V30 7 C 1.024372 2.649135 3.005247 0
M  V30 8 O 2.029161 2.217615 3.634908 0
M  V30 9 C 0.982198 3.974756 2.390711 0
M  V30 10 C 2.106778 4.762630 2.523464 0
M  V30 11 C 2.173663 6.039101 1.978197 0
M  V30 12 C 3.372837 6.895073 2.112970 0
M  V30 13 F 4.120910 6.706405 0.955030 0
M  V30 14 F 4.085048 6.485149 3.223923 0
M  V30 15 F 2.952417 8.213576 2.210995 0
M  V30 16 C 1.048425 6.481616 1.291611 0
M  V30 17 C -0.091219 5.684927 1.156319 0
M  V30 18 N -0.078086 4.469584 1.708780 0
M  V30 19 C -0.205617 -0.540390 2.494817 0
M  V30 20 C -0.489203 -1.869404 2.833580 0
M  V30 21 C -0.113697 -2.879387 1.848994 0
M  V30 22 C 0.529827 -4.076273 2.067429 0
M  V30 23 C 0.814400 -4.927705 1.020514 0
M  V30 24 C 0.465184 -4.609753 -0.274642 0
M  V30 25 C -0.181014 -3.416175 -0.522869 0
M  V30 26 C -0.463037 -2.568224 0.529096 0
M  V30 27 O -0.604920 -2.933846 -1.752947 0
M  V30 28 C -0.555518 -3.417961 -3.055066 0
M  V30 29 C -1.714994 -4.293749 -3.454013 0
M  V30 30 C -2.998159 -3.523698 -3.296135 0
M  V30 31 O -2.785890 -2.158369 -3.117263 0
M  V30 32 C -1.977568 -1.626426 -4.120349 0
M  V30 33 C -0.596550 -2.190885 -3.974093 0
M  V30 34 C 0.722323 -4.150915 -3.405145 0
M  V30 35 C 0.814040 -5.457579 -2.681296 0
M  V30 36 O 0.888758 -6.607005 -3.234447 0
M  V30 37 N 0.830884 -5.601503 -1.255536 0
M  V30 38 H -0.577195 -3.952898 5.028400 0
M  V30 39 H -2.312025 -3.580231 5.008710 0
M  V30 40 H -1.575341 -4.090368 3.491845 0
M  V30 41 H -1.851607 -1.194119 5.832147 0
M  V30 42 H -1.323193 1.145283 5.174518 0
M  V30 43 H -1.023218 2.143627 2.345105 0
M  V30 44 H 2.991395 4.451747 3.046503 0
M  V30 45 H 1.038624 7.461803 0.846535 0
M  V30 46 H -0.965614 6.031965 0.621385 0
M  V30 47 H 0.273569 -0.319753 1.529129 0
M  V30 48 H 0.779197 -4.277625 3.078676 0
M  V30 49 H 1.311235 -5.850433 1.193707 0
M  V30 50 H -0.972182 -1.643603 0.277803 0
M  V30 51 H -1.541242 -4.575861 -4.519026 0
M  V30 52 H -1.680684 -5.200130 -2.797871 0
M  V30 53 H -3.526434 -3.902014 -2.398684 0
M  V30 54 H -3.687647 -3.662242 -4.177271 0
M  V30 55 H -1.954674 -0.522948 -3.958476 0
M  V30 56 H -2.369567 -1.815449 -5.143208 0
M  V30 57 H -0.222650 -2.480602 -4.972483 0
M  V30 58 H 0.130455 -1.417187 -3.592034 0
M  V30 59 H 1.562327 -3.520604 -3.022107 0
M  V30 60 H 0.810328 -4.269857 -4.482629 0
M  V30 61 H 1.137043 -6.515963 -0.825442 0
M  V30 END ATOM
M  V30 BEGIN BOND
M  V30 1 1 1 2
M  V30 2 2 2 3
M  V30 3 1 3 4
M  V30 4 2 4 5
M  V30 5 1 5 6
M  V30 6 1 6 7
M  V30 7 2 7 8
M  V30 8 1 7 9
M  V30 9 2 9 10
M  V30 10 1 10 11
M  V30 11 1 11 12
M  V30 12 1 12 13
M  V30 13 1 12 14
M  V30 14 1 12 15
M  V30 15 2 11 16
M  V30 16 1 16 17
M  V30 17 2 17 18
M  V30 18 1 5 19
M  V30 19 2 19 20
M  V30 20 1 20 21
M  V30 21 2 21 22
M  V30 22 1 22 23
M  V30 23 2 23 24
M  V30 24 1 24 25
M  V30 25 2 25 26
M  V30 26 1 25 27
M  V30 27 1 27 28
M  V30 28 1 28 29
M  V30 29 1 29 30
M  V30 30 1 30 31
M  V30 31 1 31 32
M  V30 32 1 32 33
M  V30 33 1 28 34
M  V30 34 1 34 35
M  V30 35 2 35 36
M  V30 36 1 35 37
M  V30 37 1 20 2
M  V30 38 1 26 21
M  V30 39 1 33 28
M  V30 40 1 18 9
M  V30 41 1 37 24
M  V30 42 1 1 38
M  V30 43 1 1 39
M  V30 44 1 1 40
M  V30 45 1 3 41
M  V30 46 1 4 42
M  V30 47 1 6 43
M  V30 48 1 10 44
M  V30 49 1 16 45
M  V30 50 1 17 46
M  V30 51 1 19 47
M  V30 52 1 22 48
M  V30 53 1 23 49
M  V30 54 1 26 50
M  V30 55 1 29 51
M  V30 56 1 29 52
M  V30 57 1 30 53
M  V30 58 1 30 54
M  V30 59 1 32 55
M  V30 60 1 32 56
M  V30 61 1 33 57
M  V30 62 1 33 58
M  V30 63 1 34 59
M  V30 64 1 34 60
M  V30 65 1 37 61
M  V30 END BOND
M  V30 END CTAB
M  END
>  <Dataset>  (732) 
ChEMBL_Kinases

>  <Ligand_Instance>  (732) 
nan

>  <PDB_ID>  (732) 
nan

>  <Standardized_SMILES>  (732) 
Cc1ccc(NC(=O)c2cc(C(F)(F)F)ccn2)cc1-c1ccc2c(c1)OC1(CCOCC1)CC(=O)N2

>  <Name>  (732) 
nan

>  <Pocket>  (732) 
nan

>  <ATP_Site>  (732) 
nan

>  <Peripheral>  (732) 
nan

>  <Num_H_Atoms_ProtBoundConf>  (732) 
nan

>  <Num_Resolved_Atoms>  (732) 
nan

>  <Num_Not_Resolved_Atoms>  (732) 
nan

$$$$
CHEMBL5077690
     RDKit          3D

  0  0  0  0  0  0  0  0  0  0999 V3000
M  V30 BEGIN CTAB
M  V30 COUNTS 67 71 0 0 0
M  V30 BEGIN ATOM
M  V30 1 C 2.279310 -4.763229 2.385457 0
M  V30 2 C 2.468506 -3.321338 2.149976 0
M  V30 3 C 3.549219 -2.624118 2.646422 0
M  V30 4 C 3.706706 -1.273145 2.413791 0
M  V30 5 C 2.747263 -0.611804 1.660535 0
M  V30 6 N 2.881315 0.800293 1.398278 0
M  V30 7 C 3.612258 1.010318 0.196038 0
M  V30 8 O 4.091237 0.130175 -0.560756 0
M  V30 9 N 3.864550 2.350494 -0.257571 0
M  V30 10 C 4.604814 2.581114 -1.476252 0
M  V30 11 C 3.659030 3.218083 -2.456658 0
M  V30 12 C 3.043493 4.481757 -1.957369 0
M  V30 13 C 2.520629 4.367079 -0.548415 0
M  V30 14 C 2.218458 5.721756 0.052608 0
M  V30 15 F 1.750752 5.533036 1.325928 0
M  V30 16 F 3.324563 6.549095 0.031153 0
M  V30 17 F 1.275250 6.328245 -0.762824 0
M  V30 18 C 3.475894 3.597021 0.340659 0
M  V30 19 C 1.674998 -1.330777 1.174610 0
M  V30 20 C 1.503193 -2.684816 1.399141 0
M  V30 21 C 0.313118 -3.296795 0.813940 0
M  V30 22 C 0.249333 -4.493204 0.127247 0
M  V30 23 C -0.949998 -4.955090 -0.375228 0
M  V30 24 C -2.108854 -4.227818 -0.199809 0
M  V30 25 C -2.078116 -3.028725 0.481716 0
M  V30 26 C -0.865895 -2.582418 0.978028 0
M  V30 27 O -3.153820 -2.215470 0.722338 0
M  V30 28 C -4.518554 -2.248987 0.419787 0
M  V30 29 C -4.963346 -0.793261 0.421234 0
M  V30 30 C -4.968015 -0.335152 1.877662 0
M  V30 31 O -6.017812 -1.017366 2.489347 0
M  V30 32 C -5.674559 -2.335651 2.660424 0
M  V30 33 C -5.291943 -3.068578 1.415114 0
M  V30 34 C -4.844145 -2.781470 -0.954133 0
M  V30 35 C -4.484558 -4.226440 -1.098443 0
M  V30 36 O -5.364409 -5.015716 -1.539977 0
M  V30 37 N -3.237655 -4.888166 -0.799813 0
M  V30 38 H 2.888161 -5.372290 1.674200 0
M  V30 39 H 2.697504 -4.995188 3.403847 0
M  V30 40 H 1.226773 -5.084799 2.418649 0
M  V30 41 H 4.293138 -3.146734 3.232901 0
M  V30 42 H 4.560675 -0.733971 2.808967 0
M  V30 43 H 2.520674 1.600122 1.963898 0
M  V30 44 H 5.466427 3.236506 -1.231586 0
M  V30 45 H 4.922759 1.604540 -1.889474 0
M  V30 46 H 2.877055 2.438433 -2.674275 0
M  V30 47 H 4.208481 3.433147 -3.395354 0
M  V30 48 H 2.226771 4.745656 -2.659395 0
M  V30 49 H 3.802087 5.284388 -1.973695 0
M  V30 50 H 1.562167 3.808590 -0.565996 0
M  V30 51 H 4.389074 4.214854 0.470124 0
M  V30 52 H 3.023688 3.475507 1.341749 0
M  V30 53 H 0.953088 -0.765320 0.591274 0
M  V30 54 H 1.186026 -5.019034 0.020292 0
M  V30 55 H -0.973479 -5.898272 -0.911130 0
M  V30 56 H -0.897899 -1.634121 1.505592 0
M  V30 57 H -5.975448 -0.652543 0.003481 0
M  V30 58 H -4.233584 -0.234317 -0.188724 0
M  V30 59 H -5.126199 0.770014 1.894432 0
M  V30 60 H -3.985074 -0.569882 2.343263 0
M  V30 61 H -6.597571 -2.853022 3.047324 0
M  V30 62 H -4.935233 -2.441265 3.478924 0
M  V30 63 H -4.658822 -3.940120 1.714616 0
M  V30 64 H -6.193014 -3.527404 0.917259 0
M  V30 65 H -5.949296 -2.729451 -1.043115 0
M  V30 66 H -4.431684 -2.162511 -1.763818 0
M  V30 67 H -3.128692 -5.900660 -1.023636 0
M  V30 END ATOM
M  V30 BEGIN BOND
M  V30 1 1 1 2
M  V30 2 2 2 3
M  V30 3 1 3 4
M  V30 4 2 4 5
M  V30 5 1 5 6
M  V30 6 1 6 7
M  V30 7 2 7 8
M  V30 8 1 7 9
M  V30 9 1 9 10
M  V30 10 1 10 11
M  V30 11 1 11 12
M  V30 12 1 12 13
M  V30 13 1 13 14
M  V30 14 1 14 15
M  V30 15 1 14 16
M  V30 16 1 14 17
M  V30 17 1 13 18
M  V30 18 1 5 19
M  V30 19 2 19 20
M  V30 20 1 20 21
M  V30 21 2 21 22
M  V30 22 1 22 23
M  V30 23 2 23 24
M  V30 24 1 24 25
M  V30 25 2 25 26
M  V30 26 1 25 27
M  V30 27 1 27 28
M  V30 28 1 28 29
M  V30 29 1 29 30
M  V30 30 1 30 31
M  V30 31 1 31 32
M  V30 32 1 32 33
M  V30 33 1 28 34
M  V30 34 1 34 35
M  V30 35 2 35 36
M  V30 36 1 35 37
M  V30 37 1 20 2
M  V30 38 1 26 21
M  V30 39 1 33 28
M  V30 40 1 18 9
M  V30 41 1 37 24
M  V30 42 1 1 38
M  V30 43 1 1 39
M  V30 44 1 1 40
M  V30 45 1 3 41
M  V30 46 1 4 42
M  V30 47 1 6 43
M  V30 48 1 10 44
M  V30 49 1 10 45
M  V30 50 1 11 46
M  V30 51 1 11 47
M  V30 52 1 12 48
M  V30 53 1 12 49
M  V30 54 1 13 50
M  V30 55 1 18 51
M  V30 56 1 18 52
M  V30 57 1 19 53
M  V30 58 1 22 54
M  V30 59 1 23 55
M  V30 60 1 26 56
M  V30 61 1 29 57
M  V30 62 1 29 58
M  V30 63 1 30 59
M  V30 64 1 30 60
M  V30 65 1 32 61
M  V30 66 1 32 62
M  V30 67 1 33 63
M  V30 68 1 33 64
M  V30 69 1 34 65
M  V30 70 1 34 66
M  V30 71 1 37 67
M  V30 END BOND
M  V30 END CTAB
M  END
>  <Dataset>  (733) 
ChEMBL_Kinases

>  <Ligand_Instance>  (733) 
nan

>  <PDB_ID>  (733) 
nan

>  <Standardized_SMILES>  (733) 
Cc1ccc(NC(=O)N2CCCC(C(F)(F)F)C2)cc1-c1ccc2c(c1)OC1(CCOCC1)CC(=O)N2

>  <Name>  (733) 
nan

>  <Pocket>  (733) 
nan

>  <ATP_Site>  (733) 
nan

>  <Peripheral>  (733) 
nan

>  <Num_H_Atoms_ProtBoundConf>  (733) 
nan

>  <Num_Resolved_Atoms>  (733) 
nan

>  <Num_Not_Resolved_Atoms>  (733) 
nan

$$$$
CHEMBL5077769
     RDKit          3D

  0  0  0  0  0  0  0  0  0  0999 V3000
M  V30 BEGIN CTAB
M  V30 COUNTS 69 72 0 0 0
M  V30 BEGIN ATOM
M  V30 1 C -1.525691 3.990888 6.011596 0
M  V30 2 O -0.960202 4.807227 5.020953 0
M  V30 3 C 0.078437 4.505564 4.184147 0
M  V30 4 O 0.359312 3.341307 4.548069 0
M  V30 5 C 1.192910 4.211963 3.269860 0 CFG=1
M  V30 6 N 1.699184 2.884644 3.515337 0
M  V30 7 C 0.776719 4.276768 1.797650 0
M  V30 8 C 0.266253 5.648502 1.460374 0
M  V30 9 C -0.188163 5.835610 0.065248 0
M  V30 10 C 0.820599 5.624634 -1.020706 0
M  V30 11 N 1.379014 4.297277 -1.074172 0
M  V30 12 C 0.575840 3.154416 -1.270944 0
M  V30 13 O -0.681799 3.338934 -1.401561 0
M  V30 14 C 1.127878 1.802550 -1.327932 0
M  V30 15 C 2.469762 1.491847 -1.217589 0
M  V30 16 C 2.954998 0.202177 -1.275101 0
M  V30 17 C 2.094546 -0.855599 -1.449890 0
M  V30 18 C 0.749738 -0.554369 -1.561361 0
M  V30 19 C 0.266527 0.736859 -1.503563 0
M  V30 20 C -0.326219 -1.538650 -1.749597 0
M  V30 21 O -1.380952 -1.078479 -2.289777 0
M  V30 22 C -0.260222 -2.972010 -1.364868 0
M  V30 23 C -1.515802 -3.501736 -1.587999 0
M  V30 24 C -1.650877 -4.860653 -1.278678 0
M  V30 25 C -0.590578 -5.596205 -0.787451 0
M  V30 26 N -0.787139 -6.978399 -0.483530 0
M  V30 27 C -2.043698 -7.596703 -0.538522 0
M  V30 28 C -2.503042 -8.650955 -1.303426 0
M  V30 29 C -3.800335 -9.105470 -1.186095 0
M  V30 30 C -4.680187 -8.518368 -0.298343 0
M  V30 31 C -4.248399 -7.458292 0.483174 0
M  V30 32 C -2.939059 -7.012979 0.352761 0
M  V30 33 N -2.678623 -5.915125 1.243505 0
M  V30 34 C 0.636914 -5.002958 -0.588710 0
M  V30 35 C 0.842225 -3.651047 -0.876151 0
M  V30 36 C 2.215949 -3.210435 -0.594869 0
M  V30 37 C 2.774451 -2.159773 -1.489819 0
M  V30 38 H -2.625380 3.901098 5.878075 0
M  V30 39 H -1.086847 3.002436 6.102830 0
M  V30 40 H -1.337097 4.513234 6.995845 0
M  V30 41 H 2.040959 4.918237 3.384879 0
M  V30 42 H 2.045687 2.394325 2.665866 0
M  V30 43 H 2.277611 2.788613 4.359280 0
M  V30 44 H 1.700326 3.985361 1.250300 0
M  V30 45 H -0.020130 3.543176 1.610553 0
M  V30 46 H -0.600285 5.829388 2.165028 0
M  V30 47 H 0.995992 6.445905 1.746350 0
M  V30 48 H -0.584740 6.889118 -0.034642 0
M  V30 49 H -1.102975 5.212515 -0.083567 0
M  V30 50 H 0.298727 5.852220 -1.983830 0
M  V30 51 H 1.613381 6.398374 -0.916561 0
M  V30 52 H 2.431541 4.204150 -0.968825 0
M  V30 53 H 3.166157 2.307686 -1.079507 0
M  V30 54 H 4.006061 -0.006169 -1.185774 0
M  V30 55 H -0.808308 0.840321 -1.604318 0
M  V30 56 H -2.321856 -2.901580 -1.972037 0
M  V30 57 H -2.651522 -5.263277 -1.464782 0
M  V30 58 H 0.041930 -7.554882 -0.207453 0
M  V30 59 H -1.734164 -9.037834 -1.965728 0
M  V30 60 H -4.077331 -9.932503 -1.819911 0
M  V30 61 H -5.691006 -8.904245 -0.235216 0
M  V30 62 H -4.992691 -7.060133 1.145098 0
M  V30 63 H -3.242572 -5.036830 1.292487 0
M  V30 64 H -1.877608 -5.897002 1.942613 0
M  V30 65 H 1.454645 -5.622386 -0.196622 0
M  V30 66 H 2.868985 -4.095343 -0.684684 0
M  V30 67 H 2.293406 -2.893571 0.473638 0
M  V30 68 H 2.784363 -2.545991 -2.538895 0
M  V30 69 H 3.823311 -2.013150 -1.198181 0
M  V30 END ATOM
M  V30 BEGIN BOND
M  V30 1 1 1 2
M  V30 2 1 2 3
M  V30 3 2 3 4
M  V30 4 1 3 5
M  V30 5 1 5 6
M  V30 6 1 5 7
M  V30 7 1 7 8
M  V30 8 1 8 9
M  V30 9 1 9 10
M  V30 10 1 10 11
M  V30 11 1 11 12
M  V30 12 2 12 13
M  V30 13 1 12 14
M  V30 14 2 14 15
M  V30 15 1 15 16
M  V30 16 2 16 17
M  V30 17 1 17 18
M  V30 18 2 18 19
M  V30 19 1 18 20
M  V30 20 2 20 21
M  V30 21 1 20 22
M  V30 22 2 22 23
M  V30 23 1 23 24
M  V30 24 2 24 25
M  V30 25 1 25 26
M  V30 26 1 26 27
M  V30 27 2 27 28
M  V30 28 1 28 29
M  V30 29 2 29 30
M  V30 30 1 30 31
M  V30 31 2 31 32
M  V30 32 1 32 33
M  V30 33 1 25 34
M  V30 34 2 34 35
M  V30 35 1 35 36
M  V30 36 1 36 37
M  V30 37 1 19 14
M  V30 38 1 35 22
M  V30 39 1 37 17
M  V30 40 1 32 27
M  V30 41 1 1 38
M  V30 42 1 1 39
M  V30 43 1 1 40
M  V30 44 1 5 41 CFG=3
M  V30 45 1 6 42
M  V30 46 1 6 43
M  V30 47 1 7 44
M  V30 48 1 7 45
M  V30 49 1 8 46
M  V30 50 1 8 47
M  V30 51 1 9 48
M  V30 52 1 9 49
M  V30 53 1 10 50
M  V30 54 1 10 51
M  V30 55 1 11 52
M  V30 56 1 15 53
M  V30 57 1 16 54
M  V30 58 1 19 55
M  V30 59 1 23 56
M  V30 60 1 24 57
M  V30 61 1 26 58
M  V30 62 1 28 59
M  V30 63 1 29 60
M  V30 64 1 30 61
M  V30 65 1 31 62
M  V30 66 1 33 63
M  V30 67 1 33 64
M  V30 68 1 34 65
M  V30 69 1 36 66
M  V30 70 1 36 67
M  V30 71 1 37 68
M  V30 72 1 37 69
M  V30 END BOND
M  V30 END CTAB
M  END
>  <Dataset>  (734) 
ChEMBL_Kinases

>  <Ligand_Instance>  (734) 
nan

>  <PDB_ID>  (734) 
nan

>  <Standardized_SMILES>  (734) 
COC(=O)[C@@H](N)CCCCNC(=O)c1ccc2c(c1)C(=O)c1ccc(Nc3ccccc3N)cc1CC2

>  <Name>  (734) 
nan

>  <Pocket>  (734) 
nan

>  <ATP_Site>  (734) 
nan

>  <Peripheral>  (734) 
nan

>  <Num_H_Atoms_ProtBoundConf>  (734) 
nan

>  <Num_Resolved_Atoms>  (734) 
nan

>  <Num_Not_Resolved_Atoms>  (734) 
nan

$$$$
CHEMBL5077814
     RDKit          3D

  0  0  0  0  0  0  0  0  0  0999 V3000
M  V30 BEGIN CTAB
M  V30 COUNTS 50 54 0 0 0
M  V30 BEGIN ATOM
M  V30 1 C 1.794301 -0.949527 7.189797 0
M  V30 2 C 1.687775 -0.583573 6.049540 0
M  V30 3 C 1.553064 -0.164697 4.686710 0
M  V30 4 C 1.770539 -1.045556 3.622155 0
M  V30 5 C 1.615849 -0.555256 2.344697 0
M  V30 6 C 1.263866 0.738869 2.103281 0
M  V30 7 C 1.053366 1.591097 3.146744 0
M  V30 8 C 1.197137 1.142432 4.438113 0
M  V30 9 N 0.715057 2.792693 2.647196 0
M  V30 10 C 0.703236 2.733310 1.303723 0
M  V30 11 N 0.441638 3.599655 0.319780 0
M  V30 12 C 0.514248 3.220174 -0.983757 0
M  V30 13 N 0.855593 1.950974 -1.285698 0
M  V30 14 C 1.134180 1.020876 -0.321828 0
M  V30 15 N 1.486012 -0.211753 -0.904293 0
M  V30 16 C 2.699520 -0.944191 -0.942777 0
M  V30 17 C 2.236984 -2.371717 -1.060410 0
M  V30 18 C 0.744179 -2.352843 -1.301931 0
M  V30 19 C -0.050139 -2.912244 -0.163156 0
M  V30 20 C -1.283048 -2.098426 0.144827 0
M  V30 21 N -1.788085 -1.558439 -1.104240 0
M  V30 22 C -3.118090 -1.033831 -1.026275 0
M  V30 23 C -4.182265 -2.066869 -0.798402 0
M  V30 24 C -4.231003 -3.068842 -1.852408 0
M  V30 25 N -4.267813 -3.885956 -2.685088 0
M  V30 26 C -0.918397 -0.443163 -1.415676 0
M  V30 27 C 0.453969 -0.941586 -1.666187 0
M  V30 28 C 1.047344 1.448374 0.974524 0
M  V30 29 H 1.894132 -1.291845 8.202033 0
M  V30 30 H 2.046292 -2.053924 3.922091 0
M  V30 31 H 1.807810 -1.340231 1.642275 0
M  V30 32 H 1.030329 1.820230 5.259684 0
M  V30 33 H 0.496860 3.636697 3.218376 0
M  V30 34 H 0.291512 3.963583 -1.736582 0
M  V30 35 H 3.374128 -0.775055 -0.086969 0
M  V30 36 H 3.326266 -0.718057 -1.845543 0
M  V30 37 H 2.799316 -2.908252 -1.860656 0
M  V30 38 H 2.368325 -2.893062 -0.074769 0
M  V30 39 H 0.596272 -2.967165 -2.235248 0
M  V30 40 H -0.446641 -3.919551 -0.488689 0
M  V30 41 H 0.539299 -3.136750 0.741297 0
M  V30 42 H -2.020753 -2.670007 0.720922 0
M  V30 43 H -0.972602 -1.231190 0.762788 0
M  V30 44 H -3.217968 -0.239701 -0.263421 0
M  V30 45 H -3.331682 -0.551195 -2.022972 0
M  V30 46 H -4.106369 -2.490567 0.205570 0
M  V30 47 H -5.151848 -1.520648 -0.828654 0
M  V30 48 H -0.926941 0.225557 -0.510970 0
M  V30 49 H -1.336631 0.150711 -2.258712 0
M  V30 50 H 0.713398 -0.780996 -2.751550 0
M  V30 END ATOM
M  V30 BEGIN BOND
M  V30 1 3 1 2
M  V30 2 1 2 3
M  V30 3 2 3 4
M  V30 4 1 4 5
M  V30 5 2 5 6
M  V30 6 1 6 7
M  V30 7 2 7 8
M  V30 8 1 7 9
M  V30 9 1 9 10
M  V30 10 2 10 11
M  V30 11 1 11 12
M  V30 12 2 12 13
M  V30 13 1 13 14
M  V30 14 1 14 15
M  V30 15 1 15 16
M  V30 16 1 16 17
M  V30 17 1 17 18
M  V30 18 1 18 19
M  V30 19 1 19 20
M  V30 20 1 20 21
M  V30 21 1 21 22
M  V30 22 1 22 23
M  V30 23 1 23 24
M  V30 24 3 24 25
M  V30 25 1 21 26
M  V30 26 1 26 27
M  V30 27 2 14 28
M  V30 28 1 8 3
M  V30 29 1 28 10
M  V30 30 1 28 6
M  V30 31 1 27 15
M  V30 32 1 27 18
M  V30 33 1 1 29
M  V30 34 1 4 30
M  V30 35 1 5 31
M  V30 36 1 8 32
M  V30 37 1 9 33
M  V30 38 1 12 34
M  V30 39 1 16 35
M  V30 40 1 16 36
M  V30 41 1 17 37
M  V30 42 1 17 38
M  V30 43 1 18 39
M  V30 44 1 19 40
M  V30 45 1 19 41
M  V30 46 1 20 42
M  V30 47 1 20 43
M  V30 48 1 22 44
M  V30 49 1 22 45
M  V30 50 1 23 46
M  V30 51 1 23 47
M  V30 52 1 26 48
M  V30 53 1 26 49
M  V30 54 1 27 50
M  V30 END BOND
M  V30 END CTAB
M  END
>  <Dataset>  (735) 
ChEMBL_Kinases

>  <Ligand_Instance>  (735) 
nan

>  <PDB_ID>  (735) 
nan

>  <Standardized_SMILES>  (735) 
C#Cc1ccc2c(c1)[nH]c1ncnc(N3CCC4CCN(CCC#N)CC43)c12

>  <Name>  (735) 
nan

>  <Pocket>  (735) 
nan

>  <ATP_Site>  (735) 
nan

>  <Peripheral>  (735) 
nan

>  <Num_H_Atoms_ProtBoundConf>  (735) 
nan

>  <Num_Resolved_Atoms>  (735) 
nan

>  <Num_Not_Resolved_Atoms>  (735) 
nan

$$$$
CHEMBL5077848
     RDKit          3D

  0  0  0  0  0  0  0  0  0  0999 V3000
M  V30 BEGIN CTAB
M  V30 COUNTS 63 67 0 0 0
M  V30 BEGIN ATOM
M  V30 1 C -0.779938 -2.847676 3.045525 0
M  V30 2 C -1.905462 -2.243492 3.881743 0
M  V30 3 N -1.666358 -0.911620 4.201192 0
M  V30 4 C -0.629294 -0.554404 5.077289 0
M  V30 5 C 0.344244 0.425037 4.439175 0
M  V30 6 C -0.394319 1.141341 3.340379 0
M  V30 7 O 0.254377 2.274848 2.840047 0
M  V30 8 C 0.655914 2.434019 1.530480 0
M  V30 9 N 0.481564 1.528741 0.552941 0
M  V30 10 C 0.887958 1.720596 -0.716053 0
M  V30 11 C 0.652992 0.675803 -1.712356 0
M  V30 12 C 1.086379 0.904443 -2.998664 0
M  V30 13 C 0.865653 -0.079994 -3.932812 0
M  V30 14 C 0.224828 -1.284894 -3.615471 0
M  V30 15 N 0.053521 -2.290608 -4.596394 0
M  V30 16 S 0.383250 -3.947738 -4.900315 0
M  V30 17 O -0.087098 -4.267824 -6.306950 0
M  V30 18 O 1.882388 -4.166326 -4.916965 0
M  V30 19 C -0.362340 -5.040181 -3.772161 0
M  V30 20 C -1.371317 -5.870688 -4.206762 0
M  V30 21 C -2.060813 -6.768468 -3.385144 0
M  V30 22 Cl -3.335727 -7.795814 -4.006362 0
M  V30 23 C -1.716363 -6.839379 -2.035511 0
M  V30 24 C -0.707211 -5.999301 -1.634787 0
M  V30 25 C -0.018335 -5.107538 -2.440770 0
M  V30 26 F 0.975938 -4.345521 -1.947691 0
M  V30 27 C -0.161767 -1.394156 -2.297750 0
M  V30 28 C 0.005063 -0.487532 -1.293537 0
M  V30 29 N 1.501469 2.874035 -1.034363 0
M  V30 30 C 1.728273 3.856125 -0.124603 0
M  V30 31 N 2.307914 5.088667 -0.162086 0
M  V30 32 N 2.243630 5.606851 1.053485 0
M  V30 33 C 1.634733 4.739993 1.884037 0
M  V30 34 C 1.361865 4.928560 3.324738 0
M  V30 35 C 1.287511 3.604952 1.171854 0
M  V30 36 C -1.791912 1.435141 3.835973 0
M  V30 37 C -2.550971 0.102678 3.772763 0
M  V30 38 H 0.075108 -2.119301 3.055866 0
M  V30 39 H -0.442832 -3.828472 3.482344 0
M  V30 40 H -1.079574 -2.973989 1.987113 0
M  V30 41 H -2.819981 -2.309086 3.256704 0
M  V30 42 H -2.046067 -2.885646 4.759293 0
M  V30 43 H -0.085788 -1.462751 5.404804 0
M  V30 44 H -1.077126 -0.119114 6.009227 0
M  V30 45 H 0.624295 1.152009 5.257276 0
M  V30 46 H 1.251580 -0.106724 4.068031 0
M  V30 47 H -0.511040 0.408633 2.496088 0
M  V30 48 H 1.580930 1.840976 -3.230429 0
M  V30 49 H 1.213264 0.109468 -4.957524 0
M  V30 50 H -0.468499 -1.769298 -5.368406 0
M  V30 51 H -1.708938 -5.881926 -5.254502 0
M  V30 52 H -2.191453 -7.494205 -1.342177 0
M  V30 53 H -0.403256 -6.021850 -0.580552 0
M  V30 54 H -0.685590 -2.309658 -1.982258 0
M  V30 55 H -0.326011 -0.649876 -0.288906 0
M  V30 56 H 2.706126 5.457536 -1.071361 0
M  V30 57 H 1.567830 5.960641 3.652301 0
M  V30 58 H 1.988021 4.230501 3.932328 0
M  V30 59 H 0.288015 4.745558 3.565165 0
M  V30 60 H -1.760059 1.728185 4.905758 0
M  V30 61 H -2.334451 2.190847 3.269251 0
M  V30 62 H -2.808760 -0.076246 2.702752 0
M  V30 63 H -3.481446 0.152544 4.377996 0
M  V30 END ATOM
M  V30 BEGIN BOND
M  V30 1 1 1 2
M  V30 2 1 2 3
M  V30 3 1 3 4
M  V30 4 1 4 5
M  V30 5 1 5 6
M  V30 6 1 6 7
M  V30 7 1 7 8
M  V30 8 2 8 9
M  V30 9 1 9 10
M  V30 10 1 10 11
M  V30 11 2 11 12
M  V30 12 1 12 13
M  V30 13 2 13 14
M  V30 14 1 14 15
M  V30 15 1 15 16
M  V30 16 2 16 17
M  V30 17 2 16 18
M  V30 18 1 16 19
M  V30 19 2 19 20
M  V30 20 1 20 21
M  V30 21 1 21 22
M  V30 22 2 21 23
M  V30 23 1 23 24
M  V30 24 2 24 25
M  V30 25 1 25 26
M  V30 26 1 14 27
M  V30 27 2 27 28
M  V30 28 2 10 29
M  V30 29 1 29 30
M  V30 30 1 30 31
M  V30 31 1 31 32
M  V30 32 2 32 33
M  V30 33 1 33 34
M  V30 34 1 33 35
M  V30 35 1 6 36
M  V30 36 1 36 37
M  V30 37 1 37 3
M  V30 38 1 35 8
M  V30 39 1 28 11
M  V30 40 2 35 30
M  V30 41 1 25 19
M  V30 42 1 1 38
M  V30 43 1 1 39
M  V30 44 1 1 40
M  V30 45 1 2 41
M  V30 46 1 2 42
M  V30 47 1 4 43
M  V30 48 1 4 44
M  V30 49 1 5 45
M  V30 50 1 5 46
M  V30 51 1 6 47
M  V30 52 1 12 48
M  V30 53 1 13 49
M  V30 54 1 15 50
M  V30 55 1 20 51
M  V30 56 1 23 52
M  V30 57 1 24 53
M  V30 58 1 27 54
M  V30 59 1 28 55
M  V30 60 1 31 56
M  V30 61 1 34 57
M  V30 62 1 34 58
M  V30 63 1 34 59
M  V30 64 1 36 60
M  V30 65 1 36 61
M  V30 66 1 37 62
M  V30 67 1 37 63
M  V30 END BOND
M  V30 END CTAB
M  END
>  <Dataset>  (736) 
ChEMBL_Kinases

>  <Ligand_Instance>  (736) 
nan

>  <PDB_ID>  (736) 
nan

>  <Standardized_SMILES>  (736) 
CCN1CCC(Oc2nc(-c3ccc(NS(=O)(=O)c4cc(Cl)ccc4F)cc3)nc3[nH]nc(C)c23)CC1

>  <Name>  (736) 
nan

>  <Pocket>  (736) 
nan

>  <ATP_Site>  (736) 
nan

>  <Peripheral>  (736) 
nan

>  <Num_H_Atoms_ProtBoundConf>  (736) 
nan

>  <Num_Resolved_Atoms>  (736) 
nan

>  <Num_Not_Resolved_Atoms>  (736) 
nan

$$$$
CHEMBL5077895
     RDKit          3D

  0  0  0  0  0  0  0  0  0  0999 V3000
M  V30 BEGIN CTAB
M  V30 COUNTS 68 72 0 0 0
M  V30 BEGIN ATOM
M  V30 1 C 6.234025 -4.362724 2.793485 0
M  V30 2 C 4.832540 -4.588217 2.304722 0
M  V30 3 C 3.898000 -4.403708 3.488999 0
M  V30 4 C 4.738302 -6.069848 1.937559 0
M  V30 5 O 4.465727 -3.840737 1.187457 0
M  V30 6 C 4.476922 -2.453289 1.209427 0
M  V30 7 O 4.812080 -1.781899 2.217897 0
M  V30 8 N 4.069869 -1.865210 -0.026980 0
M  V30 9 C 3.672863 -2.580050 -1.229920 0
M  V30 10 C 2.320521 -2.180355 -1.748955 0
M  V30 11 C 2.204176 -0.722708 -2.067181 0
M  V30 12 N 2.319263 0.058812 -0.845958 0
M  V30 13 C 1.924469 1.415188 -1.005524 0
M  V30 14 C 1.388746 1.903379 0.331398 0
M  V30 15 N 0.254627 1.093858 0.734311 0
M  V30 16 C -0.962722 0.936256 0.021071 0
M  V30 17 N -1.045971 -0.060453 -0.852926 0
M  V30 18 C -2.159236 -0.297286 -1.579355 0
M  V30 19 C -3.268932 0.530619 -1.412693 0
M  V30 20 C -3.170678 1.557484 -0.506540 0
M  V30 21 C -4.326011 2.427537 -0.326714 0
M  V30 22 C -5.449755 1.819411 0.171534 0
M  V30 23 C -5.921971 0.517804 0.614366 0
M  V30 24 C -6.953845 -0.251442 0.105466 0
M  V30 25 C -7.254828 -1.470085 0.665740 0
M  V30 26 C -6.538035 -1.949610 1.742351 0
M  V30 27 C -5.494482 -1.184814 2.266422 0
M  V30 28 O -4.821330 -1.730347 3.344966 0
M  V30 29 C -5.202498 0.034978 1.695939 0
M  V30 30 N -6.414655 2.707705 0.284220 0
M  V30 31 C -5.932333 3.935406 -0.145440 0
M  V30 32 S -6.101805 5.765369 -0.499278 0
M  V30 33 C -4.362278 5.996352 -1.111442 0
M  V30 34 C -3.805209 4.668797 -0.994960 0
M  V30 35 N -4.606787 3.723214 -0.525536 0
M  V30 36 N -2.028008 1.753236 0.199636 0
M  V30 37 S 3.964611 -0.148832 -0.342354 0
M  V30 38 O 4.920705 0.159282 -1.447639 0
M  V30 39 O 4.320162 0.644534 0.863250 0
M  V30 40 H 6.340998 -3.419702 3.377245 0
M  V30 41 H 6.437376 -5.181804 3.538375 0
M  V30 42 H 7.002180 -4.484694 2.008202 0
M  V30 43 H 3.525488 -3.362764 3.587913 0
M  V30 44 H 3.052832 -5.122735 3.450511 0
M  V30 45 H 4.441852 -4.639198 4.435493 0
M  V30 46 H 4.574132 -6.698890 2.845790 0
M  V30 47 H 5.715521 -6.383883 1.502050 0
M  V30 48 H 3.903316 -6.287251 1.265288 0
M  V30 49 H 3.614746 -3.669252 -0.998562 0
M  V30 50 H 4.445079 -2.388609 -1.975465 0
M  V30 51 H 1.499015 -2.492958 -1.092543 0
M  V30 52 H 2.198731 -2.724830 -2.712864 0
M  V30 53 H 1.195148 -0.548658 -2.478846 0
M  V30 54 H 2.937294 -0.407259 -2.824617 0
M  V30 55 H 1.058050 1.426270 -1.700933 0
M  V30 56 H 2.669399 2.089576 -1.429442 0
M  V30 57 H 0.997269 2.941749 0.250907 0
M  V30 58 H 2.149442 1.916884 1.113029 0
M  V30 59 H 0.158953 0.507163 1.602719 0
M  V30 60 H -2.265709 -1.105490 -2.307702 0
M  V30 61 H -4.182607 0.369185 -1.980732 0
M  V30 62 H -7.445562 0.214188 -0.729393 0
M  V30 63 H -8.084985 -2.033164 0.216648 0
M  V30 64 H -6.784387 -2.921400 2.183116 0
M  V30 65 H -3.819996 -1.662529 3.456357 0
M  V30 66 H -4.371242 0.531161 2.195085 0
M  V30 67 H -3.986733 6.951511 -1.444985 0
M  V30 68 H -2.789059 4.698912 -1.328699 0
M  V30 END ATOM
M  V30 BEGIN BOND
M  V30 1 1 1 2
M  V30 2 1 2 3
M  V30 3 1 2 4
M  V30 4 1 2 5
M  V30 5 1 5 6
M  V30 6 2 6 7
M  V30 7 1 6 8
M  V30 8 1 8 9
M  V30 9 1 9 10
M  V30 10 1 10 11
M  V30 11 1 11 12
M  V30 12 1 12 13
M  V30 13 1 13 14
M  V30 14 1 14 15
M  V30 15 1 15 16
M  V30 16 2 16 17
M  V30 17 1 17 18
M  V30 18 2 18 19
M  V30 19 1 19 20
M  V30 20 1 20 21
M  V30 21 2 21 22
M  V30 22 1 22 23
M  V30 23 2 23 24
M  V30 24 1 24 25
M  V30 25 2 25 26
M  V30 26 1 26 27
M  V30 27 1 27 28
M  V30 28 2 27 29
M  V30 29 1 22 30
M  V30 30 2 30 31
M  V30 31 1 31 32
M  V30 32 1 32 33
M  V30 33 2 33 34
M  V30 34 1 34 35
M  V30 35 2 20 36
M  V30 36 1 12 37
M  V30 37 2 37 38
M  V30 38 2 37 39
M  V30 39 1 37 8
M  V30 40 1 36 16
M  V30 41 1 35 21
M  V30 42 1 29 23
M  V30 43 1 35 31
M  V30 44 1 1 40
M  V30 45 1 1 41
M  V30 46 1 1 42
M  V30 47 1 3 43
M  V30 48 1 3 44
M  V30 49 1 3 45
M  V30 50 1 4 46
M  V30 51 1 4 47
M  V30 52 1 4 48
M  V30 53 1 9 49
M  V30 54 1 9 50
M  V30 55 1 10 51
M  V30 56 1 10 52
M  V30 57 1 11 53
M  V30 58 1 11 54
M  V30 59 1 13 55
M  V30 60 1 13 56
M  V30 61 1 14 57
M  V30 62 1 14 58
M  V30 63 1 15 59
M  V30 64 1 18 60
M  V30 65 1 19 61
M  V30 66 1 24 62
M  V30 67 1 25 63
M  V30 68 1 26 64
M  V30 69 1 28 65
M  V30 70 1 29 66
M  V30 71 1 33 67
M  V30 72 1 34 68
M  V30 END BOND
M  V30 END CTAB
M  END
>  <Dataset>  (737) 
ChEMBL_Kinases

>  <Ligand_Instance>  (737) 
nan

>  <PDB_ID>  (737) 
nan

>  <Standardized_SMILES>  (737) 
CC(C)(C)OC(=O)N1CCCN(CCNc2nccc(-c3c(-c4cccc(O)c4)nc4sccn34)n2)S1(=O)=O

>  <Name>  (737) 
nan

>  <Pocket>  (737) 
nan

>  <ATP_Site>  (737) 
nan

>  <Peripheral>  (737) 
nan

>  <Num_H_Atoms_ProtBoundConf>  (737) 
nan

>  <Num_Resolved_Atoms>  (737) 
nan

>  <Num_Not_Resolved_Atoms>  (737) 
nan

$$$$
CHEMBL5077971
     RDKit          3D

  0  0  0  0  0  0  0  0  0  0999 V3000
M  V30 BEGIN CTAB
M  V30 COUNTS 69 73 0 0 0
M  V30 BEGIN ATOM
M  V30 1 C 2.534601 -5.760368 0.644087 0
M  V30 2 C 3.142776 -4.459232 1.003505 0
M  V30 3 N 4.347476 -4.277230 1.584687 0
M  V30 4 N 4.546294 -2.973258 1.748812 0
M  V30 5 C 3.467543 -2.310971 1.272772 0
M  V30 6 N 3.088131 -1.030073 1.160996 0
M  V30 7 C 1.921149 -0.634315 0.628089 0
M  V30 8 C 1.629627 0.799885 0.567957 0
M  V30 9 C 0.419072 1.158105 0.000856 0
M  V30 10 C 0.187546 2.520183 -0.037292 0
M  V30 11 C 1.036630 3.503663 0.427766 0
M  V30 12 N 0.660117 4.844160 0.317954 0
M  V30 13 S 0.786391 6.042827 1.521280 0
M  V30 14 O 2.213336 6.239205 1.970997 0
M  V30 15 O 0.314934 7.370828 1.015282 0
M  V30 16 C -0.163276 5.682410 2.955133 0
M  V30 17 C 0.288189 5.522662 4.248678 0
M  V30 18 C -0.595566 5.243368 5.257311 0
M  V30 19 Cl 0.082338 5.061396 6.855840 0
M  V30 20 C -1.922078 5.129699 4.944717 0
M  V30 21 C -2.429953 5.278967 3.671898 0
M  V30 22 C -1.514301 5.563489 2.654952 0
M  V30 23 F -2.082636 5.698187 1.429611 0
M  V30 24 C 2.225968 3.045023 0.979160 0
M  V30 25 C 2.556368 1.691289 1.065623 0
M  V30 26 N 1.097252 -1.577055 0.186677 0
M  V30 27 C 1.353629 -2.918428 0.237015 0
M  V30 28 O 0.436098 -3.663476 -0.238059 0
M  V30 29 C -0.418906 -4.544088 -0.690284 0
M  V30 30 C -0.559982 -4.436286 -2.211369 0
M  V30 31 C -1.373739 -3.237219 -2.600601 0
M  V30 32 C -0.457145 -2.288965 -3.351402 0
M  V30 33 C -2.418668 -3.677233 -3.614851 0
M  V30 34 N -1.923863 -2.521840 -1.486119 0
M  V30 35 C -2.602056 -3.333801 -0.507152 0
M  V30 36 C -4.010470 -3.716904 -0.952152 0
M  V30 37 C -2.799215 -2.430767 0.699786 0
M  V30 38 C -1.811056 -4.539920 -0.063471 0
M  V30 39 C 2.571389 -3.240500 0.797864 0
M  V30 40 H 3.266123 -6.568373 0.823818 0
M  V30 41 H 1.576879 -5.930665 1.171637 0
M  V30 42 H 2.317833 -5.818541 -0.456718 0
M  V30 43 H 5.385870 -2.528781 2.170564 0
M  V30 44 H -0.292849 0.463512 -0.382430 0
M  V30 45 H -0.759447 2.832775 -0.478951 0
M  V30 46 H 0.257225 5.105319 -0.627791 0
M  V30 47 H 1.359909 5.646961 4.303813 0
M  V30 48 H -2.568657 4.905699 5.800631 0
M  V30 49 H -3.495163 5.169766 3.524400 0
M  V30 50 H 2.917214 3.775323 1.352914 0
M  V30 51 H 3.494800 1.368739 1.502847 0
M  V30 52 H -0.063593 -5.612103 -0.547142 0
M  V30 53 H -1.042382 -5.360517 -2.554941 0
M  V30 54 H 0.470891 -4.421546 -2.617920 0
M  V30 55 H -0.951824 -1.362471 -3.648026 0
M  V30 56 H -0.175457 -2.825307 -4.304230 0
M  V30 57 H 0.494459 -2.148481 -2.790128 0
M  V30 58 H -3.292140 -3.002926 -3.662455 0
M  V30 59 H -2.692092 -4.747972 -3.453224 0
M  V30 60 H -1.982529 -3.655840 -4.650458 0
M  V30 61 H -2.595451 -1.821985 -1.828988 0
M  V30 62 H -4.655237 -3.792346 -0.051945 0
M  V30 63 H -4.043178 -4.690892 -1.455230 0
M  V30 64 H -4.441494 -2.892363 -1.556520 0
M  V30 65 H -3.028341 -1.391015 0.377741 0
M  V30 66 H -3.686149 -2.784754 1.260940 0
M  V30 67 H -1.946307 -2.458327 1.404299 0
M  V30 68 H -1.719156 -4.634805 1.022296 0
M  V30 69 H -2.324862 -5.447278 -0.441029 0
M  V30 END ATOM
M  V30 BEGIN BOND
M  V30 1 1 1 2
M  V30 2 2 2 3
M  V30 3 1 3 4
M  V30 4 1 4 5
M  V30 5 2 5 6
M  V30 6 1 6 7
M  V30 7 1 7 8
M  V30 8 2 8 9
M  V30 9 1 9 10
M  V30 10 2 10 11
M  V30 11 1 11 12
M  V30 12 1 12 13
M  V30 13 2 13 14
M  V30 14 2 13 15
M  V30 15 1 13 16
M  V30 16 2 16 17
M  V30 17 1 17 18
M  V30 18 1 18 19
M  V30 19 2 18 20
M  V30 20 1 20 21
M  V30 21 2 21 22
M  V30 22 1 22 23
M  V30 23 1 11 24
M  V30 24 2 24 25
M  V30 25 2 7 26
M  V30 26 1 26 27
M  V30 27 1 27 28
M  V30 28 1 28 29
M  V30 29 1 29 30
M  V30 30 1 30 31
M  V30 31 1 31 32
M  V30 32 1 31 33
M  V30 33 1 31 34
M  V30 34 1 34 35
M  V30 35 1 35 36
M  V30 36 1 35 37
M  V30 37 1 35 38
M  V30 38 2 27 39
M  V30 39 1 39 2
M  V30 40 1 39 5
M  V30 41 1 25 8
M  V30 42 1 38 29
M  V30 43 1 22 16
M  V30 44 1 1 40
M  V30 45 1 1 41
M  V30 46 1 1 42
M  V30 47 1 4 43
M  V30 48 1 9 44
M  V30 49 1 10 45
M  V30 50 1 12 46
M  V30 51 1 17 47
M  V30 52 1 20 48
M  V30 53 1 21 49
M  V30 54 1 24 50
M  V30 55 1 25 51
M  V30 56 1 29 52
M  V30 57 1 30 53
M  V30 58 1 30 54
M  V30 59 1 32 55
M  V30 60 1 32 56
M  V30 61 1 32 57
M  V30 62 1 33 58
M  V30 63 1 33 59
M  V30 64 1 33 60
M  V30 65 1 34 61
M  V30 66 1 36 62
M  V30 67 1 36 63
M  V30 68 1 36 64
M  V30 69 1 37 65
M  V30 70 1 37 66
M  V30 71 1 37 67
M  V30 72 1 38 68
M  V30 73 1 38 69
M  V30 END BOND
M  V30 END CTAB
M  END
>  <Dataset>  (738) 
ChEMBL_Kinases

>  <Ligand_Instance>  (738) 
nan

>  <PDB_ID>  (738) 
nan

>  <Standardized_SMILES>  (738) 
Cc1n[nH]c2nc(-c3ccc(NS(=O)(=O)c4cc(Cl)ccc4F)cc3)nc(OC3CC(C)(C)NC(C)(C)C3)c12

>  <Name>  (738) 
nan

>  <Pocket>  (738) 
nan

>  <ATP_Site>  (738) 
nan

>  <Peripheral>  (738) 
nan

>  <Num_H_Atoms_ProtBoundConf>  (738) 
nan

>  <Num_Resolved_Atoms>  (738) 
nan

>  <Num_Not_Resolved_Atoms>  (738) 
nan

$$$$
CHEMBL5078060
     RDKit          3D

  0  0  0  0  0  0  0  0  0  0999 V3000
M  V30 BEGIN CTAB
M  V30 COUNTS 167 169 0 0 0
M  V30 BEGIN ATOM
M  V30 1 C 2.775197 3.689665 5.837673 0
M  V30 2 O 3.435881 2.504453 6.101896 0
M  V30 3 C 2.855313 1.748922 7.099614 0
M  V30 4 C 3.612209 0.509188 7.421379 0
M  V30 5 O 3.807463 -0.433648 6.466436 0
M  V30 6 C 4.353875 -0.020523 5.259363 0
M  V30 7 C 4.765496 -1.126084 4.380612 0
M  V30 8 O 3.825072 -2.058284 3.971871 0
M  V30 9 C 4.472730 -2.990885 3.140903 0
M  V30 10 C 3.701928 -4.130700 2.654812 0
M  V30 11 O 3.165102 -4.984258 3.631119 0
M  V30 12 C 2.610593 -6.110707 3.049164 0
M  V30 13 C 1.480671 -5.958442 2.124139 0
M  V30 14 O 0.299390 -5.381411 2.664818 0
M  V30 15 C -0.829208 -5.225229 1.850113 0
M  V30 16 C -2.033358 -4.699250 2.243900 0
M  V30 17 C -3.090976 -4.576967 1.390852 0
M  V30 18 O -4.323963 -4.038345 1.819338 0
M  V30 19 C -5.345857 -3.972573 0.850791 0
M  V30 20 C -6.662337 -3.483782 1.280118 0
M  V30 21 O -6.700073 -2.214676 1.753737 0
M  V30 22 C -5.897203 -1.979183 2.816116 0
M  V30 23 C -6.166802 -0.550907 3.378765 0
M  V30 24 O -7.465259 -0.463028 3.774682 0
M  V30 25 C -7.933949 0.679250 4.341391 0
M  V30 26 C -7.864819 1.927078 3.535382 0
M  V30 27 O -6.567739 2.242525 3.209436 0
M  V30 28 C -6.515513 3.424984 2.462935 0
M  V30 29 C -5.088494 3.766248 2.179652 0
M  V30 30 O -5.035349 4.940472 1.427730 0
M  V30 31 C -3.799044 5.402402 1.115606 0
M  V30 32 C -3.003233 -4.979339 0.077508 0
M  V30 33 C -1.788029 -5.495361 -0.277199 0
M  V30 34 C -1.458227 -5.902256 -1.666385 0
M  V30 35 O -1.292246 -6.841986 -2.505808 0
M  V30 36 N -1.151055 -4.905584 -2.608280 0
M  V30 37 C -0.815426 -3.985052 -3.670347 0 CFG=1
M  V30 38 C -1.812438 -2.911788 -3.908469 0
M  V30 39 C -1.340560 -1.991676 -4.993846 0
M  V30 40 C -2.212201 -0.757886 -5.054557 0
M  V30 41 O -3.088942 0.129056 -4.951230 0
M  V30 42 N -1.678183 0.302951 -5.835408 0
M  V30 43 C -2.170363 1.629525 -6.128358 0
M  V30 44 C -1.225810 2.424589 -6.987686 0
M  V30 45 O 0.034271 2.611559 -6.503527 0
M  V30 46 C 0.097842 3.292713 -5.340840 0 CFG=2
M  V30 47 C 0.328813 4.790690 -5.525595 0
M  V30 48 C 0.665266 5.186498 -4.104673 0
M  V30 49 C 1.703359 4.105866 -3.776595 0 CFG=1
M  V30 50 C 1.676676 3.843619 -2.293299 0
M  V30 51 O 2.389180 4.295120 -1.317962 0
M  V30 52 N 0.738935 2.949712 -1.706586 0
M  V30 53 C 0.634260 2.590065 -0.301840 0 CFG=1
M  V30 54 C -0.056345 3.742297 0.474641 0
M  V30 55 C -0.136026 3.244283 1.899072 0
M  V30 56 C -0.758861 4.205583 2.867817 0
M  V30 57 C 1.140143 2.647156 2.384087 0
M  V30 58 C -0.278814 1.459040 -0.153348 0
M  V30 59 O -0.889152 0.531480 0.409972 0
M  V30 60 O -0.983868 1.079133 -1.318876 0
M  V30 61 C -1.880790 0.001513 -1.266807 0
M  V30 62 N 1.260494 2.950077 -4.536109 0
M  V30 63 C 2.080836 1.792673 -4.311181 0
M  V30 64 O 1.296601 1.148431 -5.018951 0
M  V30 65 C 3.344065 1.484509 -3.534295 0 CFG=2
M  V30 66 C 4.586644 1.933486 -4.190645 0 CFG=1
M  V30 67 C 5.733285 1.866417 -3.214250 0
M  V30 68 O 4.870145 1.225925 -5.373329 0
M  V30 69 P 4.755140 2.325736 -6.642355 0
M  V30 70 O 3.713809 3.363036 -6.318028 0
M  V30 71 O 4.262509 1.586591 -8.086112 0
M  V30 72 O 6.223184 3.121190 -6.911905 0
M  V30 73 N 3.359403 0.083603 -3.174940 0
M  V30 74 C 2.877150 -1.219175 -3.238288 0
M  V30 75 O 2.117990 -1.050527 -4.200369 0
M  V30 76 C 2.850560 -2.592168 -2.774562 0 CFG=2
M  V30 77 C 4.080402 -3.312917 -2.451156 0
M  V30 78 O 3.810597 -4.438977 -1.666422 0
M  V30 79 N 1.938047 -3.441447 -3.512126 0
M  V30 80 C 0.486073 -3.364291 -3.289761 0
M  V30 81 O 0.279507 -2.421355 -2.480858 0
M  V30 82 C -0.698203 -5.647160 0.513960 0
M  V30 83 H 1.721135 3.549870 5.538924 0
M  V30 84 H 3.299765 4.111638 4.923008 0
M  V30 85 H 2.832604 4.420039 6.675510 0
M  V30 86 H 1.785042 1.487586 6.845319 0
M  V30 87 H 2.816488 2.363233 8.016183 0
M  V30 88 H 2.998479 -0.010453 8.237957 0
M  V30 89 H 4.547284 0.781451 7.973480 0
M  V30 90 H 5.217158 0.625902 5.521155 0
M  V30 91 H 3.656597 0.693662 4.728624 0
M  V30 92 H 5.643281 -1.673702 4.860614 0
M  V30 93 H 5.245083 -0.702024 3.436938 0
M  V30 94 H 5.463259 -3.257205 3.606702 0
M  V30 95 H 4.787302 -2.388059 2.221100 0
M  V30 96 H 2.806256 -3.753498 2.082731 0
M  V30 97 H 4.274444 -4.784101 1.966258 0
M  V30 98 H 2.418083 -6.907545 3.832348 0
M  V30 99 H 3.475188 -6.568761 2.467732 0
M  V30 100 H 1.166625 -6.972378 1.747954 0
M  V30 101 H 1.814470 -5.399903 1.208176 0
M  V30 102 H -2.106099 -4.395375 3.272786 0
M  V30 103 H -5.450160 -5.023894 0.431723 0
M  V30 104 H -4.918153 -3.416443 -0.013448 0
M  V30 105 H -7.160814 -4.205584 2.009689 0
M  V30 106 H -7.356498 -3.510891 0.382303 0
M  V30 107 H -4.831386 -1.923183 2.514335 0
M  V30 108 H -6.011709 -2.735388 3.584347 0
M  V30 109 H -5.874475 0.124050 2.577075 0
M  V30 110 H -5.509467 -0.483337 4.284227 0
M  V30 111 H -7.294651 0.863489 5.271293 0
M  V30 112 H -8.999259 0.496826 4.686161 0
M  V30 113 H -8.310760 2.755282 4.140598 0
M  V30 114 H -8.428737 1.807401 2.569643 0
M  V30 115 H -7.050642 3.285288 1.511408 0
M  V30 116 H -6.973280 4.229730 3.069066 0
M  V30 117 H -4.491771 3.948473 3.117210 0
M  V30 118 H -4.571741 3.002717 1.597074 0
M  V30 119 H -3.163351 5.660343 1.984807 0
M  V30 120 H -3.266585 4.602280 0.539186 0
M  V30 121 H -3.876074 6.281756 0.425765 0
M  V30 122 H -3.784010 -4.937073 -0.684419 0
M  V30 123 H -1.286565 -4.001995 -1.983479 0
M  V30 124 H -0.667366 -4.561314 -4.601510 0
M  V30 125 H -2.021258 -2.381503 -2.946689 0
M  V30 126 H -2.789707 -3.255514 -4.271377 0
M  V30 127 H -1.458768 -2.440927 -6.009613 0
M  V30 128 H -0.326105 -1.645084 -4.921688 0
M  V30 129 H -0.770188 0.138929 -6.326003 0
M  V30 130 H -3.128291 1.567587 -6.732727 0
M  V30 131 H -2.470083 2.205680 -5.234321 0
M  V30 132 H -1.784041 3.378817 -7.193742 0
M  V30 133 H -1.208483 1.922938 -8.006612 0
M  V30 134 H -0.812153 3.147207 -4.738432 0
M  V30 135 H -0.551222 5.293477 -5.909400 0
M  V30 136 H 1.257571 4.891789 -6.151623 0
M  V30 137 H -0.265876 5.054637 -3.527000 0
M  V30 138 H 1.096399 6.188897 -4.057645 0
M  V30 139 H 2.668424 4.515480 -4.012827 0
M  V30 140 H 0.047798 2.520822 -2.397600 0
M  V30 141 H 1.591070 2.517177 0.197646 0
M  V30 142 H 0.491312 4.679379 0.357795 0
M  V30 143 H -1.078632 3.817202 0.082463 0
M  V30 144 H -0.871670 2.379564 1.848533 0
M  V30 145 H -0.485685 5.263991 2.730902 0
M  V30 146 H -1.816752 3.979887 2.993772 0
M  V30 147 H -0.309336 3.951531 3.889953 0
M  V30 148 H 2.006495 3.251708 2.084688 0
M  V30 149 H 1.308229 1.622524 1.943133 0
M  V30 150 H 1.046026 2.452001 3.481534 0
M  V30 151 H -2.331372 -0.060373 -2.297342 0
M  V30 152 H -1.484196 -0.970510 -0.942567 0
M  V30 153 H -2.703036 0.274535 -0.540471 0
M  V30 154 H 3.209681 2.022369 -2.583843 0
M  V30 155 H 4.438009 2.989625 -4.480733 0
M  V30 156 H 5.808202 0.875461 -2.698102 0
M  V30 157 H 6.699770 2.166446 -3.669727 0
M  V30 158 H 5.519123 2.601343 -2.407144 0
M  V30 159 H 4.888502 1.698698 -8.813500 0
M  V30 160 H 6.988635 2.479962 -6.872754 0
M  V30 161 H 4.085514 -0.186929 -2.492619 0
M  V30 162 H 2.282688 -2.472790 -1.742820 0
M  V30 163 H 4.842142 -2.721329 -1.900921 0
M  V30 164 H 4.594015 -3.692829 -3.380620 0
M  V30 165 H 3.342550 -4.132392 -0.831196 0
M  V30 166 H 1.697436 -4.172940 -4.197000 0
M  V30 167 H 0.227075 -6.066666 0.180716 0
M  V30 END ATOM
M  V30 BEGIN BOND
M  V30 1 1 1 2
M  V30 2 1 2 3
M  V30 3 1 3 4
M  V30 4 1 4 5
M  V30 5 1 5 6
M  V30 6 1 6 7
M  V30 7 1 7 8
M  V30 8 1 8 9
M  V30 9 1 9 10
M  V30 10 1 10 11
M  V30 11 1 11 12
M  V30 12 1 12 13
M  V30 13 1 13 14
M  V30 14 1 14 15
M  V30 15 2 15 16
M  V30 16 1 16 17
M  V30 17 1 17 18
M  V30 18 1 18 19
M  V30 19 1 19 20
M  V30 20 1 20 21
M  V30 21 1 21 22
M  V30 22 1 22 23
M  V30 23 1 23 24
M  V30 24 1 24 25
M  V30 25 1 25 26
M  V30 26 1 26 27
M  V30 27 1 27 28
M  V30 28 1 28 29
M  V30 29 1 29 30
M  V30 30 1 30 31
M  V30 31 2 17 32
M  V30 32 1 32 33
M  V30 33 1 33 34
M  V30 34 2 34 35
M  V30 35 1 34 36
M  V30 36 1 36 37
M  V30 37 1 37 38
M  V30 38 1 38 39
M  V30 39 1 39 40
M  V30 40 2 40 41
M  V30 41 1 40 42
M  V30 42 1 42 43
M  V30 43 1 43 44
M  V30 44 1 44 45
M  V30 45 1 45 46
M  V30 46 1 46 47
M  V30 47 1 47 48
M  V30 48 1 48 49
M  V30 49 1 49 50
M  V30 50 2 50 51
M  V30 51 1 50 52
M  V30 52 1 52 53
M  V30 53 1 53 54
M  V30 54 1 54 55
M  V30 55 1 55 56
M  V30 56 1 55 57
M  V30 57 1 53 58
M  V30 58 2 58 59
M  V30 59 1 58 60
M  V30 60 1 60 61
M  V30 61 1 49 62
M  V30 62 1 62 63
M  V30 63 2 63 64
M  V30 64 1 63 65
M  V30 65 1 65 66
M  V30 66 1 66 67
M  V30 67 1 66 68
M  V30 68 1 68 69
M  V30 69 2 69 70
M  V30 70 1 69 71
M  V30 71 1 69 72
M  V30 72 1 65 73
M  V30 73 1 73 74
M  V30 74 2 74 75
M  V30 75 1 74 76
M  V30 76 1 76 77
M  V30 77 1 77 78
M  V30 78 1 76 79
M  V30 79 1 79 80
M  V30 80 2 80 81
M  V30 81 2 33 82
M  V30 82 1 82 15
M  V30 83 1 80 37
M  V30 84 1 62 46
M  V30 85 1 1 83
M  V30 86 1 1 84
M  V30 87 1 1 85
M  V30 88 1 3 86
M  V30 89 1 3 87
M  V30 90 1 4 88
M  V30 91 1 4 89
M  V30 92 1 6 90
M  V30 93 1 6 91
M  V30 94 1 7 92
M  V30 95 1 7 93
M  V30 96 1 9 94
M  V30 97 1 9 95
M  V30 98 1 10 96
M  V30 99 1 10 97
M  V30 100 1 12 98
M  V30 101 1 12 99
M  V30 102 1 13 100
M  V30 103 1 13 101
M  V30 104 1 16 102
M  V30 105 1 19 103
M  V30 106 1 19 104
M  V30 107 1 20 105
M  V30 108 1 20 106
M  V30 109 1 22 107
M  V30 110 1 22 108
M  V30 111 1 23 109
M  V30 112 1 23 110
M  V30 113 1 25 111
M  V30 114 1 25 112
M  V30 115 1 26 113
M  V30 116 1 26 114
M  V30 117 1 28 115
M  V30 118 1 28 116
M  V30 119 1 29 117
M  V30 120 1 29 118
M  V30 121 1 31 119
M  V30 122 1 31 120
M  V30 123 1 31 121
M  V30 124 1 32 122
M  V30 125 1 36 123
M  V30 126 1 37 124 CFG=3
M  V30 127 1 38 125
M  V30 128 1 38 126
M  V30 129 1 39 127
M  V30 130 1 39 128
M  V30 131 1 42 129
M  V30 132 1 43 130
M  V30 133 1 43 131
M  V30 134 1 44 132
M  V30 135 1 44 133
M  V30 136 1 46 134 CFG=1
M  V30 137 1 47 135
M  V30 138 1 47 136
M  V30 139 1 48 137
M  V30 140 1 48 138
M  V30 141 1 49 139 CFG=3
M  V30 142 1 52 140
M  V30 143 1 53 141 CFG=1
M  V30 144 1 54 142
M  V30 145 1 54 143
M  V30 146 1 55 144
M  V30 147 1 56 145
M  V30 148 1 56 146
M  V30 149 1 56 147
M  V30 150 1 57 148
M  V30 151 1 57 149
M  V30 152 1 57 150
M  V30 153 1 61 151
M  V30 154 1 61 152
M  V30 155 1 61 153
M  V30 156 1 65 154 CFG=1
M  V30 157 1 66 155 CFG=3
M  V30 158 1 67 156
M  V30 159 1 67 157
M  V30 160 1 67 158
M  V30 161 1 71 159
M  V30 162 1 72 160
M  V30 163 1 73 161
M  V30 164 1 76 162 CFG=1
M  V30 165 1 77 163
M  V30 166 1 77 164
M  V30 167 1 78 165
M  V30 168 1 79 166
M  V30 169 1 82 167
M  V30 END BOND
M  V30 END CTAB
M  END
>  <Dataset>  (739) 
ChEMBL_Kinases

>  <Ligand_Instance>  (739) 
nan

>  <PDB_ID>  (739) 
nan

>  <Standardized_SMILES>  (739) 
COCCOCCOCCOCCOc1cc(OCCOCCOCCOCCOC)cc(C(=O)N[C@H]2CCC(=O)NCCO[C@@H]3CC[C@@H](C(=O)N[C@@H](CC(C)C)C(=O)OC)N3C(=O)[C@H]([C@@H](C)OP(=O)(O)O)NC(=O)[C@H](CO)NC2=O)c1

>  <Name>  (739) 
nan

>  <Pocket>  (739) 
nan

>  <ATP_Site>  (739) 
nan

>  <Peripheral>  (739) 
nan

>  <Num_H_Atoms_ProtBoundConf>  (739) 
nan

>  <Num_Resolved_Atoms>  (739) 
nan

>  <Num_Not_Resolved_Atoms>  (739) 
nan

$$$$
CHEMBL3702295
     RDKit          3D

  0  0  0  0  0  0  0  0  0  0999 V3000
M  V30 BEGIN CTAB
M  V30 COUNTS 45 47 0 0 0
M  V30 BEGIN ATOM
M  V30 1 C 1.034799 -1.992991 1.409330 0
M  V30 2 C 1.909425 -0.991569 0.761498 0
M  V30 3 C 2.559778 -1.492151 -0.321343 0
M  V30 4 C 2.727125 -2.681111 -1.108458 0
M  V30 5 O 3.513347 -2.676016 -2.119535 0
M  V30 6 N 2.189058 -3.990268 -1.043684 0
M  V30 7 C 2.750626 -4.776624 -2.148249 0
M  V30 8 C 2.380390 -4.127490 -3.423791 0
M  V30 9 N 2.082526 -3.598913 -4.424665 0
M  V30 10 S 3.532933 -0.148108 -0.925257 0
M  V30 11 C 3.018089 1.067293 0.330295 0
M  V30 12 N 3.290843 2.371135 0.627578 0
M  V30 13 C 2.737808 2.989122 1.656472 0
M  V30 14 N 1.891516 2.263049 2.395783 0
M  V30 15 C 1.589915 0.984075 2.148791 0
M  V30 16 N 0.676765 0.562793 3.144517 0
M  V30 17 C -0.663364 0.982848 3.090391 0
M  V30 18 C -0.930744 1.699709 4.260904 0
M  V30 19 C -2.185581 2.273433 4.511427 0
M  V30 20 C -3.179449 2.111413 3.550899 0
M  V30 21 N -2.898161 1.421321 2.440150 0
M  V30 22 C -1.695181 0.870996 2.200522 0
M  V30 23 O -1.339505 0.147673 1.076349 0
M  V30 24 C -2.299593 -0.027796 0.059807 0
M  V30 25 C -1.699460 0.409770 -1.250148 0
M  V30 26 C -2.821686 -1.457630 -0.018257 0
M  V30 27 C 2.134932 0.303985 1.099638 0
M  V30 28 H 1.629160 -2.892376 1.750575 0
M  V30 29 H 0.543332 -1.646982 2.338398 0
M  V30 30 H 0.284461 -2.412290 0.691304 0
M  V30 31 H 1.525471 -4.138539 -0.254000 0
M  V30 32 H 2.241543 -5.764004 -2.181326 0
M  V30 33 H 3.830462 -4.862963 -2.019046 0
M  V30 34 H 3.065043 4.012149 1.739766 0
M  V30 35 H 1.006172 -0.059435 3.944878 0
M  V30 36 H -0.283347 1.922539 5.105868 0
M  V30 37 H -2.481897 2.832958 5.367515 0
M  V30 38 H -4.175082 2.537684 3.692813 0
M  V30 39 H -3.194700 0.595459 0.283814 0
M  V30 40 H -1.431632 -0.512914 -1.812677 0
M  V30 41 H -0.785182 0.991330 -1.041207 0
M  V30 42 H -2.438440 1.013133 -1.811136 0
M  V30 43 H -2.030028 -2.115301 0.372324 0
M  V30 44 H -3.051343 -1.785408 -1.041231 0
M  V30 45 H -3.732311 -1.585993 0.612551 0
M  V30 END ATOM
M  V30 BEGIN BOND
M  V30 1 1 1 2
M  V30 2 2 2 3
M  V30 3 1 3 4
M  V30 4 2 4 5
M  V30 5 1 4 6
M  V30 6 1 6 7
M  V30 7 1 7 8
M  V30 8 3 8 9
M  V30 9 1 3 10
M  V30 10 1 10 11
M  V30 11 2 11 12
M  V30 12 1 12 13
M  V30 13 2 13 14
M  V30 14 1 14 15
M  V30 15 1 15 16
M  V30 16 1 16 17
M  V30 17 2 17 18
M  V30 18 1 18 19
M  V30 19 2 19 20
M  V30 20 1 20 21
M  V30 21 2 21 22
M  V30 22 1 22 23
M  V30 23 1 23 24
M  V30 24 1 24 25
M  V30 25 1 24 26
M  V30 26 2 15 27
M  V30 27 1 27 2
M  V30 28 1 27 11
M  V30 29 1 22 17
M  V30 30 1 1 28
M  V30 31 1 1 29
M  V30 32 1 1 30
M  V30 33 1 6 31
M  V30 34 1 7 32
M  V30 35 1 7 33
M  V30 36 1 13 34
M  V30 37 1 16 35
M  V30 38 1 18 36
M  V30 39 1 19 37
M  V30 40 1 20 38
M  V30 41 1 24 39
M  V30 42 1 25 40
M  V30 43 1 25 41
M  V30 44 1 25 42
M  V30 45 1 26 43
M  V30 46 1 26 44
M  V30 47 1 26 45
M  V30 END BOND
M  V30 END CTAB
M  END
>  <Dataset>  (740) 
ChEMBL_Kinases

>  <Ligand_Instance>  (740) 
nan

>  <PDB_ID>  (740) 
nan

>  <Standardized_SMILES>  (740) 
Cc1c(C(=O)NCC#N)sc2ncnc(Nc3cccnc3OC(C)C)c12

>  <Name>  (740) 
nan

>  <Pocket>  (740) 
nan

>  <ATP_Site>  (740) 
nan

>  <Peripheral>  (740) 
nan

>  <Num_H_Atoms_ProtBoundConf>  (740) 
nan

>  <Num_Resolved_Atoms>  (740) 
nan

>  <Num_Not_Resolved_Atoms>  (740) 
nan

$$$$
CHEMBL5078146
     RDKit          3D

  0  0  0  0  0  0  0  0  0  0999 V3000
M  V30 BEGIN CTAB
M  V30 COUNTS 69 71 0 0 0
M  V30 BEGIN ATOM
M  V30 1 C -2.043394 -1.953853 6.781066 0
M  V30 2 C -0.999343 -1.337666 5.910272 0
M  V30 3 C -0.152146 -0.376424 6.416187 0
M  V30 4 C 0.834063 0.222596 5.638317 0
M  V30 5 C 0.927833 -0.191301 4.326626 0
M  V30 6 C 1.941760 0.399128 3.460069 0
M  V30 7 C 2.167025 0.098412 2.132295 0
M  V30 8 N 3.204557 0.877371 1.705085 0
M  V30 9 C 3.797540 0.913633 0.385961 0
M  V30 10 C 3.138308 1.917165 -0.520089 0
M  V30 11 C 3.228745 3.324873 0.026120 0
M  V30 12 O 2.604252 4.168478 -0.893365 0
M  V30 13 C 1.713915 1.590821 -0.859861 0
M  V30 14 C 1.836590 0.701976 -2.019558 0
M  V30 15 C 0.830474 -0.018647 -2.540210 0
M  V30 16 C -0.553554 -0.003968 -1.996584 0
M  V30 17 C -1.018170 -1.355451 -1.544042 0
M  V30 18 C -1.070383 -2.427266 -2.514370 0
M  V30 19 C -1.856906 -2.435990 -3.741085 0
M  V30 20 C -3.334897 -2.321840 -3.686761 0
M  V30 21 C -1.257893 -1.592692 -4.876422 0
M  V30 22 C -2.215438 -1.177995 -0.652971 0
M  V30 23 C -2.799388 -2.454416 -0.113592 0
M  V30 24 C -3.981875 -2.065806 0.748516 0
M  V30 25 C -1.813304 -3.188343 0.781878 0
M  V30 26 C 3.225138 0.770754 -2.460407 0
M  V30 27 O 3.732378 -0.021830 -3.299069 0
M  V30 28 O 3.788705 1.839781 -1.776583 0
M  V30 29 N 3.590849 1.625264 2.749589 0
M  V30 30 N 2.837993 1.343028 3.803456 0
M  V30 31 C 0.080536 -1.154073 3.816927 0
M  V30 32 C -0.892097 -1.741716 4.592315 0
M  V30 33 H -2.783689 -2.476045 6.137234 0
M  V30 34 H -1.558112 -2.685153 7.450570 0
M  V30 35 H -2.532334 -1.126463 7.369310 0
M  V30 36 H -0.219981 -0.049387 7.437775 0
M  V30 37 H 1.486462 0.973307 6.055445 0
M  V30 38 H 1.636164 -0.617075 1.517793 0
M  V30 39 H 3.702799 -0.075884 -0.120127 0
M  V30 40 H 4.847955 1.214508 0.499880 0
M  V30 41 H 2.659281 3.350583 0.979508 0
M  V30 42 H 4.278531 3.621345 0.181665 0
M  V30 43 H 1.854558 4.658029 -0.464651 0
M  V30 44 H 1.257508 2.542295 -1.237782 0
M  V30 45 H 1.147566 1.166436 -0.012050 0
M  V30 46 H 1.112170 -0.615431 -3.394501 0
M  V30 47 H -0.503899 0.636429 -1.088206 0
M  V30 48 H -1.245244 0.531155 -2.668665 0
M  V30 49 H -0.201806 -1.646233 -0.792417 0
M  V30 50 H -0.020110 -2.733225 -2.822952 0
M  V30 51 H -1.394018 -3.359969 -1.946398 0
M  V30 52 H -1.676932 -3.481474 -4.158611 0
M  V30 53 H -3.765649 -1.888782 -2.768664 0
M  V30 54 H -3.879146 -3.314299 -3.773567 0
M  V30 55 H -3.757333 -1.779298 -4.589749 0
M  V30 56 H -1.496091 -0.534683 -4.804242 0
M  V30 57 H -1.712088 -1.940751 -5.852498 0
M  V30 58 H -0.198010 -1.862216 -4.972034 0
M  V30 59 H -1.841880 -0.629509 0.271077 0
M  V30 60 H -2.992350 -0.495500 -1.040515 0
M  V30 61 H -3.136734 -3.176254 -0.850946 0
M  V30 62 H -3.699946 -2.019046 1.829586 0
M  V30 63 H -4.371901 -1.051086 0.484907 0
M  V30 64 H -4.824887 -2.758352 0.688078 0
M  V30 65 H -2.279995 -3.466488 1.747628 0
M  V30 66 H -1.486052 -4.166179 0.324602 0
M  V30 67 H -0.906386 -2.563539 0.941115 0
M  V30 68 H 0.169409 -1.465993 2.784931 0
M  V30 69 H -1.550864 -2.495554 4.182084 0
M  V30 END ATOM
M  V30 BEGIN BOND
M  V30 1 1 1 2
M  V30 2 2 2 3
M  V30 3 1 3 4
M  V30 4 2 4 5
M  V30 5 1 5 6
M  V30 6 2 6 7
M  V30 7 1 7 8
M  V30 8 1 8 9
M  V30 9 1 9 10
M  V30 10 1 10 11
M  V30 11 1 11 12
M  V30 12 1 10 13
M  V30 13 1 13 14
M  V30 14 2 14 15
M  V30 15 1 15 16
M  V30 16 1 16 17
M  V30 17 1 17 18
M  V30 18 1 18 19
M  V30 19 1 19 20
M  V30 20 1 19 21
M  V30 21 1 17 22
M  V30 22 1 22 23
M  V30 23 1 23 24
M  V30 24 1 23 25
M  V30 25 1 14 26
M  V30 26 2 26 27
M  V30 27 1 26 28
M  V30 28 1 8 29
M  V30 29 2 29 30
M  V30 30 1 5 31
M  V30 31 2 31 32
M  V30 32 1 32 2
M  V30 33 1 30 6
M  V30 34 1 28 10
M  V30 35 1 1 33
M  V30 36 1 1 34
M  V30 37 1 1 35
M  V30 38 1 3 36
M  V30 39 1 4 37
M  V30 40 1 7 38
M  V30 41 1 9 39
M  V30 42 1 9 40
M  V30 43 1 11 41
M  V30 44 1 11 42
M  V30 45 1 12 43
M  V30 46 1 13 44
M  V30 47 1 13 45
M  V30 48 1 15 46
M  V30 49 1 16 47
M  V30 50 1 16 48
M  V30 51 1 17 49
M  V30 52 1 18 50
M  V30 53 1 18 51
M  V30 54 1 19 52
M  V30 55 1 20 53
M  V30 56 1 20 54
M  V30 57 1 20 55
M  V30 58 1 21 56
M  V30 59 1 21 57
M  V30 60 1 21 58
M  V30 61 1 22 59
M  V30 62 1 22 60
M  V30 63 1 23 61
M  V30 64 1 24 62
M  V30 65 1 24 63
M  V30 66 1 24 64
M  V30 67 1 25 65
M  V30 68 1 25 66
M  V30 69 1 25 67
M  V30 70 1 31 68
M  V30 71 1 32 69
M  V30 END BOND
M  V30 END CTAB
M  END
>  <Dataset>  (741) 
ChEMBL_Kinases

>  <Ligand_Instance>  (741) 
nan

>  <PDB_ID>  (741) 
nan

>  <Standardized_SMILES>  (741) 
Cc1ccc(-c2cn(CC3(CO)C/C(=C\CC(CC(C)C)CC(C)C)C(=O)O3)nn2)cc1

>  <Name>  (741) 
nan

>  <Pocket>  (741) 
nan

>  <ATP_Site>  (741) 
nan

>  <Peripheral>  (741) 
nan

>  <Num_H_Atoms_ProtBoundConf>  (741) 
nan

>  <Num_Resolved_Atoms>  (741) 
nan

>  <Num_Not_Resolved_Atoms>  (741) 
nan

$$$$
CHEMBL5077668
     RDKit          3D

  0  0  0  0  0  0  0  0  0  0999 V3000
M  V30 BEGIN CTAB
M  V30 COUNTS 102 108 0 0 0
M  V30 BEGIN ATOM
M  V30 1 C 1.951841 -0.376982 0.956010 0
M  V30 2 C 3.100743 0.599123 1.099353 0
M  V30 3 C 3.807116 0.310684 2.376468 0
M  V30 4 C 5.031291 -0.352013 2.428512 0
M  V30 5 C 5.565398 -0.553475 3.669396 0
M  V30 6 C 4.992640 -0.156734 4.842570 0
M  V30 7 C 3.768994 0.503502 4.746824 0
M  V30 8 C 3.129586 0.947202 6.028468 0
M  V30 9 C 3.300105 2.442737 6.225602 0
M  V30 10 C 3.162952 0.742767 3.506185 0
M  V30 11 N 1.921829 1.416856 3.591167 0
M  V30 12 C 1.343293 2.704240 3.618289 0
M  V30 13 O 2.022720 3.782148 3.553096 0
M  V30 14 C -0.102010 2.732596 3.728599 0
M  V30 15 C -1.031731 1.727977 3.765431 0
M  V30 16 C -2.331906 2.226997 3.896878 0
M  V30 17 C -3.433118 1.277916 3.939937 0
M  V30 18 N -3.456135 0.333665 2.980887 0
M  V30 19 C -4.348371 -0.630971 2.840818 0
M  V30 20 N -4.362097 -1.602108 1.815460 0
M  V30 21 C -3.534866 -1.714560 0.687118 0
M  V30 22 C -2.554387 -0.794799 0.353966 0
M  V30 23 C -1.743914 -0.875645 -0.753782 0
M  V30 24 C -1.876768 -1.928535 -1.626756 0
M  V30 25 N -1.100298 -2.081609 -2.814721 0
M  V30 26 C -0.913136 -3.269823 -3.590311 0
M  V30 27 C 0.500689 -3.639279 -3.900403 0
M  V30 28 C 1.505152 -2.552119 -3.917005 0
M  V30 29 O 2.551144 -3.056871 -3.054245 0
M  V30 30 C 2.239888 -2.300908 -5.191949 0
M  V30 31 N 1.576106 -1.750448 -6.307748 0
M  V30 32 C 2.596587 -1.482041 -7.361132 0
M  V30 33 C 2.019479 -0.427384 -8.295954 0
M  V30 34 N 0.586775 -0.675509 -8.460867 0
M  V30 35 C -0.120125 0.105262 -7.502327 0
M  V30 36 C 0.326458 -2.100611 -8.342154 0
M  V30 37 C 0.589866 -2.566242 -6.948653 0
M  V30 38 C 1.072089 -1.273871 -3.234275 0
M  V30 39 C -0.378680 -0.980475 -3.426597 0
M  V30 40 C -2.845445 -2.866667 -1.326991 0
M  V30 41 C -3.650264 -2.774872 -0.215811 0
M  V30 42 O -4.627827 -3.744942 0.063183 0
M  V30 43 C -4.878742 -4.866734 -0.728051 0
M  V30 44 N -5.308166 -0.629104 3.770612 0
M  V30 45 C -5.426932 0.224147 4.772648 0
M  V30 46 N -6.267183 0.428628 5.805393 0
M  V30 47 C -5.857991 1.485888 6.515747 0
M  V30 48 C -4.695399 2.012512 5.933991 0
M  V30 49 C -4.458964 1.198520 4.848865 0
M  V30 50 N -2.122062 3.555813 3.933557 0
M  V30 51 C -3.255685 4.448252 4.059876 0
M  V30 52 N -0.841781 3.847519 3.836576 0
M  V30 53 H 1.936993 -1.090975 1.804090 0
M  V30 54 H 2.082956 -0.983794 0.047892 0
M  V30 55 H 0.986981 0.184520 0.881303 0
M  V30 56 H 2.692379 1.646660 1.120724 0
M  V30 57 H 3.787571 0.464584 0.241007 0
M  V30 58 H 5.484293 -0.664495 1.501396 0
M  V30 59 H 6.524510 -1.071761 3.695154 0
M  V30 60 H 5.416114 -0.317243 5.822156 0
M  V30 61 H 3.559091 0.355223 6.859598 0
M  V30 62 H 2.032950 0.726483 6.009311 0
M  V30 63 H 3.899446 2.661884 7.146985 0
M  V30 64 H 2.318662 2.938757 6.353392 0
M  V30 65 H 3.856243 2.901680 5.386317 0
M  V30 66 H 1.329371 0.545125 3.643864 0
M  V30 67 H -0.695118 0.679464 3.694856 0
M  V30 68 H -5.101002 -2.365230 1.896759 0
M  V30 69 H -2.366516 0.060094 0.961999 0
M  V30 70 H -0.989525 -0.125123 -0.964022 0
M  V30 71 H -1.370947 -4.104223 -2.971660 0
M  V30 72 H -1.592383 -3.198019 -4.457308 0
M  V30 73 H 0.775596 -4.438830 -3.122155 0
M  V30 74 H 0.545301 -4.220037 -4.841136 0
M  V30 75 H 2.274687 -2.861485 -2.112163 0
M  V30 76 H 3.112549 -1.609643 -4.945550 0
M  V30 77 H 2.766615 -3.279147 -5.445019 0
M  V30 78 H 3.567611 -1.226107 -6.940882 0
M  V30 79 H 2.677438 -2.418157 -7.936624 0
M  V30 80 H 2.119567 0.561748 -7.823995 0
M  V30 81 H 2.469178 -0.415578 -9.287946 0
M  V30 82 H -0.475600 1.048283 -8.007204 0
M  V30 83 H -1.020841 -0.390076 -7.086922 0
M  V30 84 H 0.573873 0.424518 -6.705939 0
M  V30 85 H -0.726921 -2.338367 -8.610779 0
M  V30 86 H 0.945275 -2.670312 -9.068130 0
M  V30 87 H 1.003412 -3.613434 -7.051227 0
M  V30 88 H -0.345013 -2.664103 -6.355822 0
M  V30 89 H 1.221902 -1.403624 -2.144026 0
M  V30 90 H 1.744423 -0.474233 -3.564691 0
M  V30 91 H -0.677115 -0.901633 -4.494528 0
M  V30 92 H -0.579606 -0.005572 -2.940080 0
M  V30 93 H -3.057004 -3.743491 -1.934815 0
M  V30 94 H -5.489088 -4.659957 -1.638518 0
M  V30 95 H -5.511133 -5.557296 -0.099119 0
M  V30 96 H -3.962783 -5.426480 -0.996197 0
M  V30 97 H -7.115591 -0.162797 6.010684 0
M  V30 98 H -6.275273 1.940967 7.401473 0
M  V30 99 H -4.123288 2.858520 6.267169 0
M  V30 100 H -3.027671 5.383430 3.477234 0
M  V30 101 H -3.352724 4.811061 5.116413 0
M  V30 102 H -4.193493 4.024297 3.705354 0
M  V30 END ATOM
M  V30 BEGIN BOND
M  V30 1 1 1 2
M  V30 2 1 2 3
M  V30 3 2 3 4
M  V30 4 1 4 5
M  V30 5 2 5 6
M  V30 6 1 6 7
M  V30 7 1 7 8
M  V30 8 1 8 9
M  V30 9 2 7 10
M  V30 10 1 10 11
M  V30 11 1 11 12
M  V30 12 2 12 13
M  V30 13 1 12 14
M  V30 14 1 14 15
M  V30 15 2 15 16
M  V30 16 1 16 17
M  V30 17 2 17 18
M  V30 18 1 18 19
M  V30 19 1 19 20
M  V30 20 1 20 21
M  V30 21 2 21 22
M  V30 22 1 22 23
M  V30 23 2 23 24
M  V30 24 1 24 25
M  V30 25 1 25 26
M  V30 26 1 26 27
M  V30 27 1 27 28
M  V30 28 1 28 29
M  V30 29 1 28 30
M  V30 30 1 30 31
M  V30 31 1 31 32
M  V30 32 1 32 33
M  V30 33 1 33 34
M  V30 34 1 34 35
M  V30 35 1 34 36
M  V30 36 1 36 37
M  V30 37 1 28 38
M  V30 38 1 38 39
M  V30 39 1 24 40
M  V30 40 2 40 41
M  V30 41 1 41 42
M  V30 42 1 42 43
M  V30 43 2 19 44
M  V30 44 1 44 45
M  V30 45 1 45 46
M  V30 46 1 46 47
M  V30 47 2 47 48
M  V30 48 1 48 49
M  V30 49 1 16 50
M  V30 50 1 50 51
M  V30 51 1 50 52
M  V30 52 1 10 3
M  V30 53 2 52 14
M  V30 54 1 49 17
M  V30 55 1 41 21
M  V30 56 2 49 45
M  V30 57 1 39 25
M  V30 58 1 37 31
M  V30 59 1 1 53
M  V30 60 1 1 54
M  V30 61 1 1 55
M  V30 62 1 2 56
M  V30 63 1 2 57
M  V30 64 1 4 58
M  V30 65 1 5 59
M  V30 66 1 6 60
M  V30 67 1 8 61
M  V30 68 1 8 62
M  V30 69 1 9 63
M  V30 70 1 9 64
M  V30 71 1 9 65
M  V30 72 1 11 66
M  V30 73 1 15 67
M  V30 74 1 20 68
M  V30 75 1 22 69
M  V30 76 1 23 70
M  V30 77 1 26 71
M  V30 78 1 26 72
M  V30 79 1 27 73
M  V30 80 1 27 74
M  V30 81 1 29 75
M  V30 82 1 30 76
M  V30 83 1 30 77
M  V30 84 1 32 78
M  V30 85 1 32 79
M  V30 86 1 33 80
M  V30 87 1 33 81
M  V30 88 1 35 82
M  V30 89 1 35 83
M  V30 90 1 35 84
M  V30 91 1 36 85
M  V30 92 1 36 86
M  V30 93 1 37 87
M  V30 94 1 37 88
M  V30 95 1 38 89
M  V30 96 1 38 90
M  V30 97 1 39 91
M  V30 98 1 39 92
M  V30 99 1 40 93
M  V30 100 1 43 94
M  V30 101 1 43 95
M  V30 102 1 43 96
M  V30 103 1 46 97
M  V30 104 1 47 98
M  V30 105 1 48 99
M  V30 106 1 51 100
M  V30 107 1 51 101
M  V30 108 1 51 102
M  V30 END BOND
M  V30 END CTAB
M  END
>  <Dataset>  (742) 
ChEMBL_Kinases

>  <Ligand_Instance>  (742) 
nan

>  <PDB_ID>  (742) 
nan

>  <Standardized_SMILES>  (742) 
CCc1cccc(CC)c1NC(=O)c1cc(-c2nc(Nc3ccc(N4CCC(O)(CN5CCN(C)CC5)CC4)cc3OC)nc3[nH]ccc23)n(C)n1

>  <Name>  (742) 
nan

>  <Pocket>  (742) 
nan

>  <ATP_Site>  (742) 
nan

>  <Peripheral>  (742) 
nan

>  <Num_H_Atoms_ProtBoundConf>  (742) 
nan

>  <Num_Resolved_Atoms>  (742) 
nan

>  <Num_Not_Resolved_Atoms>  (742) 
nan

$$$$
CHEMBL5074152
     RDKit          3D

  0  0  0  0  0  0  0  0  0  0999 V3000
M  V30 BEGIN CTAB
M  V30 COUNTS 65 68 0 0 0
M  V30 BEGIN ATOM
M  V30 1 C 5.078000 -1.606313 7.555277 0
M  V30 2 O 4.722939 -0.475875 6.757604 0
M  V30 3 C 3.836860 -0.614259 5.694983 0
M  V30 4 O 3.292267 -1.718291 5.361445 0
M  V30 5 C 3.569901 0.663276 4.961245 0 CFG=2
M  V30 6 C 3.127222 1.675807 5.973705 0
M  V30 7 C 1.894486 1.230032 6.700901 0
M  V30 8 S 0.447758 0.988417 5.654345 0
M  V30 9 C -0.949912 0.457802 6.647214 0
M  V30 10 N 2.659028 0.522839 3.861361 0
M  V30 11 C 3.126130 0.923683 2.560452 0
M  V30 12 O 4.308554 1.383557 2.414658 0
M  V30 13 C 2.368315 0.866213 1.308011 0
M  V30 14 C 2.974267 1.291502 0.148462 0
M  V30 15 C 2.269495 1.245653 -1.061569 0
M  V30 16 C 0.975089 0.787368 -1.151523 0
M  V30 17 C 0.369050 0.361314 0.012761 0
M  V30 18 C 1.071177 0.410633 1.197607 0
M  V30 19 C -0.984573 -0.162276 0.172244 0
M  V30 20 O -1.418930 -0.238506 1.348651 0
M  V30 21 C -1.860092 -0.598173 -0.914122 0
M  V30 22 C -3.136080 -0.869899 -0.468269 0
M  V30 23 C -4.138894 -1.299106 -1.316927 0
M  V30 24 C -3.802439 -1.446107 -2.650046 0
M  V30 25 N -4.764351 -1.881629 -3.609437 0
M  V30 26 C -4.619966 -2.153498 -4.999126 0
M  V30 27 C -5.266938 -1.540594 -6.050819 0
M  V30 28 C -5.015591 -1.925422 -7.351067 0
M  V30 29 C -4.114848 -2.930151 -7.650478 0
M  V30 30 C -3.454936 -3.556542 -6.591643 0
M  V30 31 C -3.703464 -3.173942 -5.280406 0
M  V30 32 N -2.926494 -3.943713 -4.367835 0
M  V30 33 C -2.530703 -1.179676 -3.119262 0
M  V30 34 C -1.528305 -0.749612 -2.265333 0
M  V30 35 C -0.210090 -0.501084 -2.908976 0
M  V30 36 C 0.403691 0.816505 -2.519262 0
M  V30 37 H 5.477580 -2.438225 6.913503 0
M  V30 38 H 4.233518 -1.954661 8.186002 0
M  V30 39 H 5.903482 -1.274735 8.214582 0
M  V30 40 H 4.581830 0.975946 4.528299 0
M  V30 41 H 3.002257 2.687232 5.525086 0
M  V30 42 H 3.947982 1.716960 6.753815 0
M  V30 43 H 1.652225 1.926538 7.546335 0
M  V30 44 H 2.061439 0.248393 7.223876 0
M  V30 45 H -1.166394 -0.600097 6.382787 0
M  V30 46 H -0.679580 0.474458 7.706760 0
M  V30 47 H -1.797708 1.132741 6.395579 0
M  V30 48 H 1.693120 0.181049 3.721380 0
M  V30 49 H 3.983265 1.673452 0.078228 0
M  V30 50 H 2.731315 1.573771 -1.968103 0
M  V30 51 H 0.552722 0.068352 2.066499 0
M  V30 52 H -3.366567 -0.743323 0.587925 0
M  V30 53 H -5.142654 -1.516558 -0.985708 0
M  V30 54 H -5.756666 -2.049113 -3.317762 0
M  V30 55 H -5.954067 -0.767123 -5.744651 0
M  V30 56 H -5.549838 -1.411654 -8.130518 0
M  V30 57 H -3.956217 -3.191628 -8.687292 0
M  V30 58 H -2.777747 -4.320934 -6.920947 0
M  V30 59 H -1.904515 -3.945301 -4.147008 0
M  V30 60 H -3.097824 -4.708363 -3.663843 0
M  V30 61 H -2.179438 -1.264058 -4.135277 0
M  V30 62 H -0.425996 -0.428096 -4.000205 0
M  V30 63 H 0.441980 -1.368401 -2.762100 0
M  V30 64 H 1.145395 1.090369 -3.265974 0
M  V30 65 H -0.401585 1.565274 -2.551297 0
M  V30 END ATOM
M  V30 BEGIN BOND
M  V30 1 1 1 2
M  V30 2 1 2 3
M  V30 3 2 3 4
M  V30 4 1 3 5
M  V30 5 1 5 6
M  V30 6 1 6 7
M  V30 7 1 7 8
M  V30 8 1 8 9
M  V30 9 1 5 10
M  V30 10 1 10 11
M  V30 11 2 11 12
M  V30 12 1 11 13
M  V30 13 2 13 14
M  V30 14 1 14 15
M  V30 15 2 15 16
M  V30 16 1 16 17
M  V30 17 2 17 18
M  V30 18 1 17 19
M  V30 19 2 19 20
M  V30 20 1 19 21
M  V30 21 2 21 22
M  V30 22 1 22 23
M  V30 23 2 23 24
M  V30 24 1 24 25
M  V30 25 1 25 26
M  V30 26 2 26 27
M  V30 27 1 27 28
M  V30 28 2 28 29
M  V30 29 1 29 30
M  V30 30 2 30 31
M  V30 31 1 31 32
M  V30 32 1 24 33
M  V30 33 2 33 34
M  V30 34 1 34 35
M  V30 35 1 35 36
M  V30 36 1 18 13
M  V30 37 1 34 21
M  V30 38 1 36 16
M  V30 39 1 31 26
M  V30 40 1 1 37
M  V30 41 1 1 38
M  V30 42 1 1 39
M  V30 43 1 5 40 CFG=3
M  V30 44 1 6 41
M  V30 45 1 6 42
M  V30 46 1 7 43
M  V30 47 1 7 44
M  V30 48 1 9 45
M  V30 49 1 9 46
M  V30 50 1 9 47
M  V30 51 1 10 48
M  V30 52 1 14 49
M  V30 53 1 15 50
M  V30 54 1 18 51
M  V30 55 1 22 52
M  V30 56 1 23 53
M  V30 57 1 25 54
M  V30 58 1 27 55
M  V30 59 1 28 56
M  V30 60 1 29 57
M  V30 61 1 30 58
M  V30 62 1 32 59
M  V30 63 1 32 60
M  V30 64 1 33 61
M  V30 65 1 35 62
M  V30 66 1 35 63
M  V30 67 1 36 64
M  V30 68 1 36 65
M  V30 END BOND
M  V30 END CTAB
M  END
>  <Dataset>  (743) 
ChEMBL_Kinases

>  <Ligand_Instance>  (743) 
nan

>  <PDB_ID>  (743) 
nan

>  <Standardized_SMILES>  (743) 
COC(=O)[C@H](CCSC)NC(=O)c1ccc2c(c1)C(=O)c1ccc(Nc3ccccc3N)cc1CC2

>  <Name>  (743) 
nan

>  <Pocket>  (743) 
nan

>  <ATP_Site>  (743) 
nan

>  <Peripheral>  (743) 
nan

>  <Num_H_Atoms_ProtBoundConf>  (743) 
nan

>  <Num_Resolved_Atoms>  (743) 
nan

>  <Num_Not_Resolved_Atoms>  (743) 
nan

$$$$
CHEMBL3792435
     RDKit          3D

  0  0  0  0  0  0  0  0  0  0999 V3000
M  V30 BEGIN CTAB
M  V30 COUNTS 47 49 0 0 0
M  V30 BEGIN ATOM
M  V30 1 N 2.934354 -5.368792 0.067922 0
M  V30 2 C 4.312603 -4.990093 -0.213242 0
M  V30 3 C 4.418994 -3.521231 -0.399744 0
M  V30 4 O 3.206579 -3.748233 -0.158140 0
M  V30 5 O 4.803692 -2.213466 -0.617392 0
M  V30 6 C 3.854751 -1.202445 -0.563682 0
M  V30 7 C 3.577978 -0.549246 0.615797 0
M  V30 8 C 2.620614 0.452462 0.610017 0
M  V30 9 C 1.909949 0.857244 -0.493208 0
M  V30 10 C 0.896786 1.906545 -0.496452 0
M  V30 11 C 1.313634 3.195562 0.130215 0
M  V30 12 N 1.692491 3.146250 1.499050 0
M  V30 13 C -0.432877 1.422440 -0.046451 0
M  V30 14 O -1.444409 1.476694 -0.834954 0
M  V30 15 N -0.723335 0.885019 1.208315 0
M  V30 16 C -1.905561 0.382468 1.799136 0
M  V30 17 C -1.882888 -0.091587 3.096930 0
M  V30 18 C -2.990031 -0.593277 3.733775 0
M  V30 19 C -4.187848 -0.642972 3.087785 0
M  V30 20 C -5.288351 -1.150658 3.744542 0
M  V30 21 N -6.467183 -1.207313 3.129271 0
M  V30 22 C -6.580572 -0.762241 1.850589 0
M  V30 23 C -5.485485 -0.248608 1.174368 0
M  V30 24 C -4.278089 -0.189721 1.802094 0
M  V30 25 C -3.144079 0.304526 1.203214 0
M  V30 26 C 2.268705 0.129208 -1.637144 0
M  V30 27 C 3.197298 -0.880453 -1.756444 0
M  V30 28 H 2.872275 -5.735209 1.057496 0
M  V30 29 H 2.628677 -6.167083 -0.537676 0
M  V30 30 H 4.981697 -5.340947 0.620458 0
M  V30 31 H 4.637020 -5.542767 -1.106771 0
M  V30 32 H 4.125010 -0.852255 1.494198 0
M  V30 33 H 2.477285 0.904739 1.558599 0
M  V30 34 H 0.766259 2.145232 -1.599103 0
M  V30 35 H 0.505691 3.953406 0.055778 0
M  V30 36 H 2.161329 3.635773 -0.426963 0
M  V30 37 H 0.912429 3.194071 2.189993 0
M  V30 38 H 2.472157 3.739725 1.797501 0
M  V30 39 H 0.137775 0.866208 1.816338 0
M  V30 40 H -0.947351 -0.077515 3.667485 0
M  V30 41 H -2.905307 -0.947817 4.748438 0
M  V30 42 H -5.159163 -1.495587 4.762085 0
M  V30 43 H -7.541646 -0.826667 1.398756 0
M  V30 44 H -5.553347 0.109612 0.159768 0
M  V30 45 H -3.276007 0.639877 0.208252 0
M  V30 46 H 1.736269 0.402265 -2.564060 0
M  V30 47 H 3.361314 -1.347414 -2.715144 0
M  V30 END ATOM
M  V30 BEGIN BOND
M  V30 1 1 1 2
M  V30 2 1 2 3
M  V30 3 2 3 4
M  V30 4 1 3 5
M  V30 5 1 5 6
M  V30 6 2 6 7
M  V30 7 1 7 8
M  V30 8 2 8 9
M  V30 9 1 9 10
M  V30 10 1 10 11
M  V30 11 1 11 12
M  V30 12 1 10 13
M  V30 13 2 13 14
M  V30 14 1 13 15
M  V30 15 1 15 16
M  V30 16 2 16 17
M  V30 17 1 17 18
M  V30 18 2 18 19
M  V30 19 1 19 20
M  V30 20 2 20 21
M  V30 21 1 21 22
M  V30 22 2 22 23
M  V30 23 1 23 24
M  V30 24 2 24 25
M  V30 25 1 9 26
M  V30 26 2 26 27
M  V30 27 1 27 6
M  V30 28 1 25 16
M  V30 29 1 24 19
M  V30 30 1 1 28
M  V30 31 1 1 29
M  V30 32 1 2 30
M  V30 33 1 2 31
M  V30 34 1 7 32
M  V30 35 1 8 33
M  V30 36 1 10 34
M  V30 37 1 11 35
M  V30 38 1 11 36
M  V30 39 1 12 37
M  V30 40 1 12 38
M  V30 41 1 15 39
M  V30 42 1 17 40
M  V30 43 1 18 41
M  V30 44 1 20 42
M  V30 45 1 22 43
M  V30 46 1 23 44
M  V30 47 1 25 45
M  V30 48 1 26 46
M  V30 49 1 27 47
M  V30 END BOND
M  V30 END CTAB
M  END
>  <Dataset>  (744) 
ChEMBL_Kinases

>  <Ligand_Instance>  (744) 
nan

>  <PDB_ID>  (744) 
nan

>  <Standardized_SMILES>  (744) 
NCC(=O)Oc1ccc(C(CN)C(=O)Nc2ccc3cnccc3c2)cc1

>  <Name>  (744) 
nan

>  <Pocket>  (744) 
nan

>  <ATP_Site>  (744) 
nan

>  <Peripheral>  (744) 
nan

>  <Num_H_Atoms_ProtBoundConf>  (744) 
nan

>  <Num_Resolved_Atoms>  (744) 
nan

>  <Num_Not_Resolved_Atoms>  (744) 
nan

$$$$
CHEMBL5074274
     RDKit          3D

  0  0  0  0  0  0  0  0  0  0999 V3000
M  V30 BEGIN CTAB
M  V30 COUNTS 61 65 0 0 0
M  V30 BEGIN ATOM
M  V30 1 O 2.114034 0.254472 0.207745 0
M  V30 2 C 1.765861 -0.769794 0.854601 0
M  V30 3 N 1.692350 -0.568624 2.275413 0
M  V30 4 C 2.044617 0.782671 2.594908 0
M  V30 5 C 3.289850 1.268718 2.876244 0
M  V30 6 C 3.469922 2.599044 3.165522 0
M  V30 7 C 4.839270 3.107534 3.469652 0
M  V30 8 F 5.268463 2.618219 4.694879 0
M  V30 9 F 4.873401 4.485375 3.458925 0
M  V30 10 F 5.691251 2.599648 2.500545 0
M  V30 11 C 2.397637 3.490280 3.181677 0
M  V30 12 C 1.147866 2.973154 2.893499 0
M  V30 13 C 0.954264 1.628411 2.599367 0
M  V30 14 N -0.420310 1.363016 2.342027 0
M  V30 15 C -1.137637 0.413714 3.173310 0
M  V30 16 C -2.642618 0.521181 2.921486 0
M  V30 17 N -2.976729 0.248216 1.561114 0
M  V30 18 C -3.026766 -1.140048 1.302914 0
M  V30 19 C -3.354323 -1.560134 -0.060991 0
M  V30 20 C -2.454994 -1.805643 -1.079939 0
M  V30 21 C -2.949311 -2.195648 -2.320375 0
M  V30 22 C -4.310454 -2.335848 -2.533244 0
M  V30 23 C -5.181421 -2.083072 -1.494624 0
M  V30 24 N -4.670146 -1.707331 -0.306649 0
M  V30 25 C -2.247575 1.084487 0.685803 0
M  V30 26 C -1.209229 1.968589 1.292819 0
M  V30 27 C 1.439187 -2.106319 0.305799 0
M  V30 28 C 1.054107 -3.287380 0.907189 0
M  V30 29 C 0.890404 -4.195895 -0.122400 0
M  V30 30 C 1.181306 -3.531259 -1.296587 0
M  V30 31 C 1.145033 -4.087545 -2.646989 0
M  V30 32 C 1.478814 -3.225090 -3.676988 0
M  V30 33 C 1.460727 -3.705191 -4.991043 0
M  V30 34 N 1.123250 -4.980138 -5.223290 0
M  V30 35 C 0.808560 -5.775867 -4.196901 0
M  V30 36 C 0.793740 -5.405489 -2.859336 0
M  V30 37 O 1.501325 -2.298360 -1.001342 0
M  V30 38 H 1.406330 -1.392220 2.857596 0
M  V30 39 H 4.085466 0.554197 2.853901 0
M  V30 40 H 2.597282 4.526498 3.415889 0
M  V30 41 H 0.377063 3.752577 2.932349 0
M  V30 42 H -0.865425 -0.630553 2.983077 0
M  V30 43 H -0.993516 0.676120 4.249142 0
M  V30 44 H -3.157717 -0.229384 3.548749 0
M  V30 45 H -3.003662 1.535812 3.207991 0
M  V30 46 H -3.754292 -1.569889 2.046737 0
M  V30 47 H -2.046280 -1.596748 1.629075 0
M  V30 48 H -1.404803 -1.681809 -0.854318 0
M  V30 49 H -2.241703 -2.389173 -3.123839 0
M  V30 50 H -4.700325 -2.640385 -3.500775 0
M  V30 51 H -6.259143 -2.184017 -1.628632 0
M  V30 52 H -1.854254 0.581785 -0.243290 0
M  V30 53 H -3.010979 1.799463 0.246592 0
M  V30 54 H -0.513829 2.281748 0.484159 0
M  V30 55 H -1.625246 2.940847 1.688643 0
M  V30 56 H 0.937860 -3.362073 1.981013 0
M  V30 57 H 0.593750 -5.205735 0.024283 0
M  V30 58 H 1.757506 -2.181668 -3.516045 0
M  V30 59 H 1.727531 -3.009150 -5.794033 0
M  V30 60 H 0.540003 -6.811121 -4.446875 0
M  V30 61 H 0.536838 -6.067794 -2.060699 0
M  V30 END ATOM
M  V30 BEGIN BOND
M  V30 1 2 1 2
M  V30 2 1 2 3
M  V30 3 1 3 4
M  V30 4 2 4 5
M  V30 5 1 5 6
M  V30 6 1 6 7
M  V30 7 1 7 8
M  V30 8 1 7 9
M  V30 9 1 7 10
M  V30 10 2 6 11
M  V30 11 1 11 12
M  V30 12 2 12 13
M  V30 13 1 13 14
M  V30 14 1 14 15
M  V30 15 1 15 16
M  V30 16 1 16 17
M  V30 17 1 17 18
M  V30 18 1 18 19
M  V30 19 2 19 20
M  V30 20 1 20 21
M  V30 21 2 21 22
M  V30 22 1 22 23
M  V30 23 2 23 24
M  V30 24 1 17 25
M  V30 25 1 25 26
M  V30 26 1 2 27
M  V30 27 2 27 28
M  V30 28 1 28 29
M  V30 29 2 29 30
M  V30 30 1 30 31
M  V30 31 2 31 32
M  V30 32 1 32 33
M  V30 33 2 33 34
M  V30 34 1 34 35
M  V30 35 2 35 36
M  V30 36 1 30 37
M  V30 37 1 13 4
M  V30 38 1 26 14
M  V30 39 1 37 27
M  V30 40 1 24 19
M  V30 41 1 36 31
M  V30 42 1 3 38
M  V30 43 1 5 39
M  V30 44 1 11 40
M  V30 45 1 12 41
M  V30 46 1 15 42
M  V30 47 1 15 43
M  V30 48 1 16 44
M  V30 49 1 16 45
M  V30 50 1 18 46
M  V30 51 1 18 47
M  V30 52 1 20 48
M  V30 53 1 21 49
M  V30 54 1 22 50
M  V30 55 1 23 51
M  V30 56 1 25 52
M  V30 57 1 25 53
M  V30 58 1 26 54
M  V30 59 1 26 55
M  V30 60 1 28 56
M  V30 61 1 29 57
M  V30 62 1 32 58
M  V30 63 1 33 59
M  V30 64 1 35 60
M  V30 65 1 36 61
M  V30 END BOND
M  V30 END CTAB
M  END
>  <Dataset>  (745) 
ChEMBL_Kinases

>  <Ligand_Instance>  (745) 
nan

>  <PDB_ID>  (745) 
nan

>  <Standardized_SMILES>  (745) 
O=C(Nc1cc(C(F)(F)F)ccc1N1CCN(Cc2ccccn2)CC1)c1ccc(-c2ccncc2)o1

>  <Name>  (745) 
nan

>  <Pocket>  (745) 
nan

>  <ATP_Site>  (745) 
nan

>  <Peripheral>  (745) 
nan

>  <Num_H_Atoms_ProtBoundConf>  (745) 
nan

>  <Num_Resolved_Atoms>  (745) 
nan

>  <Num_Not_Resolved_Atoms>  (745) 
nan

$$$$
CHEMBL3792412
     RDKit          3D

  0  0  0  0  0  0  0  0  0  0999 V3000
M  V30 BEGIN CTAB
M  V30 COUNTS 61 64 0 0 0
M  V30 BEGIN ATOM
M  V30 1 C 6.703544 -0.158859 4.842176 0
M  V30 2 C 6.023393 0.876167 3.995314 0
M  V30 3 C 6.202862 2.231845 4.177862 0
M  V30 4 C 5.537830 3.108417 3.353667 0
M  V30 5 C 5.799811 4.542906 3.634299 0
M  V30 6 C 4.707496 2.647223 2.363371 0
M  V30 7 C 4.491367 1.305104 2.136359 0
M  V30 8 C 3.599688 0.821999 1.073832 0
M  V30 9 O 3.493919 -0.422091 0.977737 0
M  V30 10 O 2.977792 1.774434 0.300448 0
M  V30 11 C 2.106062 1.422263 -0.738316 0
M  V30 12 C 0.922620 0.646904 -0.296084 0
M  V30 13 C -0.073845 1.522084 0.115507 0
M  V30 14 C -1.310660 1.056145 0.576013 0
M  V30 15 C -1.559785 -0.309976 0.627398 0
M  V30 16 C -2.872694 -0.817054 1.113342 0
M  V30 17 C -2.597051 -1.460063 2.480640 0
M  V30 18 N -1.661401 -2.529289 2.351117 0
M  V30 19 C -3.438720 -1.868499 0.246844 0
M  V30 20 O -3.680327 -3.001483 0.683675 0
M  V30 21 N -3.728527 -1.639802 -1.101882 0
M  V30 22 C -4.266124 -2.483270 -2.107053 0
M  V30 23 C -4.457093 -2.010203 -3.390383 0
M  V30 24 C -4.975718 -2.785092 -4.404315 0
M  V30 25 C -5.336445 -4.095970 -4.183691 0
M  V30 26 C -5.858017 -4.894490 -5.179956 0
M  V30 27 N -6.213340 -6.190602 -4.955933 0
M  V30 28 C -6.040784 -6.695149 -3.703899 0
M  V30 29 C -5.518307 -5.919049 -2.677282 0
M  V30 30 C -5.162701 -4.609157 -2.916281 0
M  V30 31 C -4.640815 -3.796951 -1.934915 0
M  V30 32 C -0.554775 -1.150680 0.213164 0
M  V30 33 C 0.660086 -0.704227 -0.239646 0
M  V30 34 C 5.180385 0.457101 2.988742 0
M  V30 35 H 5.992146 -0.947980 5.166495 0
M  V30 36 H 7.552332 -0.631181 4.337535 0
M  V30 37 H 7.022252 0.361601 5.780226 0
M  V30 38 H 6.890082 2.460638 5.000713 0
M  V30 39 H 5.131022 4.822673 4.476021 0
M  V30 40 H 5.580727 5.178021 2.776217 0
M  V30 41 H 6.855203 4.708960 3.954566 0
M  V30 42 H 4.213954 3.375350 1.750043 0
M  V30 43 H 1.839908 2.268232 -1.389965 0
M  V30 44 H 2.700164 0.726158 -1.399046 0
M  V30 45 H -0.051057 2.623333 0.142370 0
M  V30 46 H -2.120918 1.689107 0.908160 0
M  V30 47 H -3.564273 0.027845 1.316642 0
M  V30 48 H -2.142519 -0.717137 3.165812 0
M  V30 49 H -3.535571 -1.873964 2.925282 0
M  V30 50 H -2.005188 -3.453722 2.682043 0
M  V30 51 H -0.699006 -2.294547 2.671985 0
M  V30 52 H -3.499034 -0.648571 -1.419422 0
M  V30 53 H -4.190219 -0.971705 -3.636979 0
M  V30 54 H -5.095913 -2.347978 -5.380250 0
M  V30 55 H -5.979124 -4.449209 -6.169211 0
M  V30 56 H -6.311844 -7.736123 -3.470363 0
M  V30 57 H -5.374687 -6.311829 -1.666766 0
M  V30 58 H -4.538512 -4.262912 -0.990075 0
M  V30 59 H -0.673812 -2.220468 0.222021 0
M  V30 60 H 1.478886 -1.291560 -0.583072 0
M  V30 61 H 5.037457 -0.614283 2.842573 0
M  V30 END ATOM
M  V30 BEGIN BOND
M  V30 1 1 1 2
M  V30 2 2 2 3
M  V30 3 1 3 4
M  V30 4 1 4 5
M  V30 5 2 4 6
M  V30 6 1 6 7
M  V30 7 1 7 8
M  V30 8 2 8 9
M  V30 9 1 8 10
M  V30 10 1 10 11
M  V30 11 1 11 12
M  V30 12 2 12 13
M  V30 13 1 13 14
M  V30 14 2 14 15
M  V30 15 1 15 16
M  V30 16 1 16 17
M  V30 17 1 17 18
M  V30 18 1 16 19
M  V30 19 2 19 20
M  V30 20 1 19 21
M  V30 21 1 21 22
M  V30 22 2 22 23
M  V30 23 1 23 24
M  V30 24 2 24 25
M  V30 25 1 25 26
M  V30 26 2 26 27
M  V30 27 1 27 28
M  V30 28 2 28 29
M  V30 29 1 29 30
M  V30 30 2 30 31
M  V30 31 1 15 32
M  V30 32 2 32 33
M  V30 33 2 7 34
M  V30 34 1 34 2
M  V30 35 1 33 12
M  V30 36 1 31 22
M  V30 37 1 30 25
M  V30 38 1 1 35
M  V30 39 1 1 36
M  V30 40 1 1 37
M  V30 41 1 3 38
M  V30 42 1 5 39
M  V30 43 1 5 40
M  V30 44 1 5 41
M  V30 45 1 6 42
M  V30 46 1 11 43
M  V30 47 1 11 44
M  V30 48 1 13 45
M  V30 49 1 14 46
M  V30 50 1 16 47
M  V30 51 1 17 48
M  V30 52 1 17 49
M  V30 53 1 18 50
M  V30 54 1 18 51
M  V30 55 1 21 52
M  V30 56 1 23 53
M  V30 57 1 24 54
M  V30 58 1 26 55
M  V30 59 1 28 56
M  V30 60 1 29 57
M  V30 61 1 31 58
M  V30 62 1 32 59
M  V30 63 1 33 60
M  V30 64 1 34 61
M  V30 END BOND
M  V30 END CTAB
M  END
>  <Dataset>  (746) 
ChEMBL_Kinases

>  <Ligand_Instance>  (746) 
nan

>  <PDB_ID>  (746) 
nan

>  <Standardized_SMILES>  (746) 
Cc1cc(C)cc(C(=O)OCc2ccc(C(CN)C(=O)Nc3ccc4cnccc4c3)cc2)c1

>  <Name>  (746) 
nan

>  <Pocket>  (746) 
nan

>  <ATP_Site>  (746) 
nan

>  <Peripheral>  (746) 
nan

>  <Num_H_Atoms_ProtBoundConf>  (746) 
nan

>  <Num_Resolved_Atoms>  (746) 
nan

>  <Num_Not_Resolved_Atoms>  (746) 
nan

$$$$
CHEMBL5074371
     RDKit          3D

  0  0  0  0  0  0  0  0  0  0999 V3000
M  V30 BEGIN CTAB
M  V30 COUNTS 55 58 0 0 0
M  V30 BEGIN ATOM
M  V30 1 N 4.380360 -0.466230 3.664947 0
M  V30 2 C 5.223368 0.618307 3.293227 0
M  V30 3 C 6.592729 0.417008 3.368830 0
M  V30 4 C 7.541404 1.384758 3.039573 0
M  V30 5 C 7.075284 2.590830 2.621733 0
M  V30 6 C 5.716413 2.826907 2.534153 0
M  V30 7 C 4.768806 1.859360 2.863314 0
M  V30 8 N 3.365402 2.065040 2.787849 0
M  V30 9 C 2.352593 1.425743 2.048060 0
M  V30 10 C 2.682919 0.409441 1.178255 0
M  V30 11 C 1.661989 -0.195661 0.470077 0
M  V30 12 C 0.366305 0.241958 0.664293 0
M  V30 13 C 0.047199 1.276977 1.552759 0
M  V30 14 C 1.074016 1.891359 2.270303 0
M  V30 15 C -1.258832 1.867117 1.883542 0
M  V30 16 C -2.139680 2.096363 0.686483 0
M  V30 17 C -2.671826 0.894904 0.050466 0
M  V30 18 C -4.040778 0.905026 -0.210913 0
M  V30 19 C -4.695338 -0.168562 -0.813902 0
M  V30 20 C -3.958219 -1.294882 -1.169962 0
M  V30 21 C -4.708681 -2.378070 -1.795728 0
M  V30 22 O -5.924942 -2.249070 -1.976212 0
M  V30 23 N -4.108062 -3.596557 -2.217421 0
M  V30 24 C -4.991408 -4.551269 -2.812300 0
M  V30 25 C -4.257269 -5.825084 -3.231904 0
M  V30 26 C -3.620248 -6.477674 -2.067916 0
M  V30 27 O -3.716906 -5.981855 -0.904144 0
M  V30 28 O -2.919921 -7.648098 -2.318318 0
M  V30 29 C -2.600518 -1.356787 -0.933715 0
M  V30 30 C -2.011585 -0.259640 -0.333045 0
M  V30 31 C -0.579701 -0.511415 -0.166462 0
M  V30 32 O -0.075338 -1.492988 -0.807457 0
M  V30 33 H 3.548506 -0.310707 4.305332 0
M  V30 34 H 4.607996 -1.429247 3.284298 0
M  V30 35 H 6.985018 -0.547302 3.703013 0
M  V30 36 H 8.588578 1.143119 3.127657 0
M  V30 37 H 7.777820 3.365579 2.357892 0
M  V30 38 H 5.346852 3.807199 2.194592 0
M  V30 39 H 3.230884 2.856682 3.452250 0
M  V30 40 H 3.686819 0.049409 1.007628 0
M  V30 41 H 1.822223 -1.006026 -0.239576 0
M  V30 42 H 0.859144 2.694211 2.964607 0
M  V30 43 H -1.829655 1.258436 2.607866 0
M  V30 44 H -1.080974 2.880085 2.323678 0
M  V30 45 H -1.483925 2.593799 -0.086313 0
M  V30 46 H -2.960317 2.782003 0.971534 0
M  V30 47 H -4.610703 1.801925 0.075966 0
M  V30 48 H -5.764250 -0.082860 -0.983494 0
M  V30 49 H -3.083893 -3.745610 -2.083359 0
M  V30 50 H -5.716132 -4.881944 -2.016814 0
M  V30 51 H -5.602778 -4.155381 -3.619876 0
M  V30 52 H -3.518498 -5.568528 -4.032864 0
M  V30 53 H -5.044730 -6.499578 -3.638649 0
M  V30 54 H -2.335107 -8.041534 -1.576775 0
M  V30 55 H -2.047333 -2.221921 -1.209807 0
M  V30 END ATOM
M  V30 BEGIN BOND
M  V30 1 1 1 2
M  V30 2 2 2 3
M  V30 3 1 3 4
M  V30 4 2 4 5
M  V30 5 1 5 6
M  V30 6 2 6 7
M  V30 7 1 7 8
M  V30 8 1 8 9
M  V30 9 2 9 10
M  V30 10 1 10 11
M  V30 11 2 11 12
M  V30 12 1 12 13
M  V30 13 2 13 14
M  V30 14 1 13 15
M  V30 15 1 15 16
M  V30 16 1 16 17
M  V30 17 2 17 18
M  V30 18 1 18 19
M  V30 19 2 19 20
M  V30 20 1 20 21
M  V30 21 2 21 22
M  V30 22 1 21 23
M  V30 23 1 23 24
M  V30 24 1 24 25
M  V30 25 1 25 26
M  V30 26 2 26 27
M  V30 27 1 26 28
M  V30 28 1 20 29
M  V30 29 2 29 30
M  V30 30 1 30 31
M  V30 31 2 31 32
M  V30 32 1 7 2
M  V30 33 1 14 9
M  V30 34 1 30 17
M  V30 35 1 31 12
M  V30 36 1 1 33
M  V30 37 1 1 34
M  V30 38 1 3 35
M  V30 39 1 4 36
M  V30 40 1 5 37
M  V30 41 1 6 38
M  V30 42 1 8 39
M  V30 43 1 10 40
M  V30 44 1 11 41
M  V30 45 1 14 42
M  V30 46 1 15 43
M  V30 47 1 15 44
M  V30 48 1 16 45
M  V30 49 1 16 46
M  V30 50 1 18 47
M  V30 51 1 19 48
M  V30 52 1 23 49
M  V30 53 1 24 50
M  V30 54 1 24 51
M  V30 55 1 25 52
M  V30 56 1 25 53
M  V30 57 1 28 54
M  V30 58 1 29 55
M  V30 END BOND
M  V30 END CTAB
M  END
>  <Dataset>  (747) 
ChEMBL_Kinases

>  <Ligand_Instance>  (747) 
nan

>  <PDB_ID>  (747) 
nan

>  <Standardized_SMILES>  (747) 
Nc1ccccc1Nc1ccc2c(c1)CCc1ccc(C(=O)NCCC(=O)O)cc1C2=O

>  <Name>  (747) 
nan

>  <Pocket>  (747) 
nan

>  <ATP_Site>  (747) 
nan

>  <Peripheral>  (747) 
nan

>  <Num_H_Atoms_ProtBoundConf>  (747) 
nan

>  <Num_Resolved_Atoms>  (747) 
nan

>  <Num_Not_Resolved_Atoms>  (747) 
nan

$$$$
CHEMBL379209
     RDKit          3D

  0  0  0  0  0  0  0  0  0  0999 V3000
M  V30 BEGIN CTAB
M  V30 COUNTS 53 57 0 0 0
M  V30 BEGIN ATOM
M  V30 1 N -2.337131 -4.708595 3.972757 0
M  V30 2 C -1.577203 -3.890386 3.661816 0
M  V30 3 C -0.620960 -2.864902 3.298574 0
M  V30 4 N -0.158077 -2.027375 4.245156 0
M  V30 5 C 0.749957 -1.062942 3.897671 0
M  V30 6 C 1.186256 -0.959202 2.567170 0
M  V30 7 O 2.036187 -0.028699 2.352910 0
M  V30 8 C 2.896364 0.938562 2.217247 0
M  V30 9 C 3.455536 1.090606 0.826831 0 CFG=1
M  V30 10 N 4.089268 -0.214887 0.518542 0
M  V30 11 C 2.390140 1.320087 -0.195998 0
M  V30 12 C 1.549126 2.525008 0.049294 0
M  V30 13 C 1.938644 3.811388 0.394114 0
M  V30 14 N 0.836119 4.574559 0.640067 0
M  V30 15 C -0.290719 3.857542 0.473763 0
M  V30 16 C -1.648646 4.084733 0.531475 0
M  V30 17 C -2.562445 3.083779 0.235432 0
M  V30 18 C -2.107697 1.816947 -0.126854 0
M  V30 19 C -0.741884 1.567792 -0.188283 0
M  V30 20 C 0.148304 2.602882 0.113281 0
M  V30 21 C 0.689074 -1.829956 1.638815 0
M  V30 22 C -0.212562 -2.796149 1.948427 0
M  V30 23 C -0.812285 -3.729966 1.005613 0
M  V30 24 C -0.948414 -5.094772 1.049147 0
M  V30 25 C -1.623395 -5.724195 0.032176 0
M  V30 26 C -2.136277 -4.956956 -0.992322 0
M  V30 27 C -2.842651 -5.555718 -2.035536 0
M  V30 28 N -3.387767 -4.894654 -3.071724 0
M  V30 29 C -3.247802 -3.552138 -3.116723 0
M  V30 30 C -2.570332 -2.848133 -2.138411 0
M  V30 31 C -2.027120 -3.594493 -1.085608 0
M  V30 32 C -1.332799 -2.946460 -0.043271 0
M  V30 33 H 1.112600 -0.392256 4.699536 0
M  V30 34 H 3.826142 0.822815 2.882502 0
M  V30 35 H 2.532599 1.978711 2.558893 0
M  V30 36 H 4.248072 1.888206 0.789198 0
M  V30 37 H 4.417101 -0.664412 1.429177 0
M  V30 38 H 3.232398 -0.817465 0.285860 0
M  V30 39 H 1.673207 0.438282 -0.005543 0
M  V30 40 H 2.696477 1.213386 -1.239115 0
M  V30 41 H 2.964330 4.182382 0.465104 0
M  V30 42 H 0.785707 5.586502 0.925392 0
M  V30 43 H -2.019487 5.054069 0.810286 0
M  V30 44 H -3.643062 3.292157 0.284855 0
M  V30 45 H -2.934257 1.126131 -0.341420 0
M  V30 46 H -0.487619 0.558372 -0.479570 0
M  V30 47 H 0.980040 -1.806862 0.606346 0
M  V30 48 H -0.501054 -5.533270 1.915443 0
M  V30 49 H -1.724031 -6.796175 0.085476 0
M  V30 50 H -2.983292 -6.634166 -2.034242 0
M  V30 51 H -3.641195 -2.890829 -3.895530 0
M  V30 52 H -2.445616 -1.750003 -2.163176 0
M  V30 53 H -1.281803 -1.862866 -0.187418 0
M  V30 END ATOM
M  V30 BEGIN BOND
M  V30 1 3 1 2
M  V30 2 1 2 3
M  V30 3 2 3 4
M  V30 4 1 4 5
M  V30 5 2 5 6
M  V30 6 1 6 7
M  V30 7 1 7 8
M  V30 8 1 8 9
M  V30 9 1 9 10
M  V30 10 1 9 11
M  V30 11 1 11 12
M  V30 12 2 12 13
M  V30 13 1 13 14
M  V30 14 1 14 15
M  V30 15 2 15 16
M  V30 16 1 16 17
M  V30 17 2 17 18
M  V30 18 1 18 19
M  V30 19 2 19 20
M  V30 20 1 6 21
M  V30 21 2 21 22
M  V30 22 1 22 23
M  V30 23 2 23 24
M  V30 24 1 24 25
M  V30 25 2 25 26
M  V30 26 1 26 27
M  V30 27 2 27 28
M  V30 28 1 28 29
M  V30 29 2 29 30
M  V30 30 1 30 31
M  V30 31 2 31 32
M  V30 32 1 22 3
M  V30 33 1 32 23
M  V30 34 1 20 12
M  V30 35 1 31 26
M  V30 36 1 20 15
M  V30 37 1 5 33
M  V30 38 1 8 34
M  V30 39 1 8 35
M  V30 40 1 9 36 CFG=1
M  V30 41 1 10 37
M  V30 42 1 10 38
M  V30 43 1 11 39
M  V30 44 1 11 40
M  V30 45 1 13 41
M  V30 46 1 14 42
M  V30 47 1 16 43
M  V30 48 1 17 44
M  V30 49 1 18 45
M  V30 50 1 19 46
M  V30 51 1 21 47
M  V30 52 1 24 48
M  V30 53 1 25 49
M  V30 54 1 27 50
M  V30 55 1 29 51
M  V30 56 1 30 52
M  V30 57 1 32 53
M  V30 END BOND
M  V30 END CTAB
M  END
>  <Dataset>  (748) 
ChEMBL_Kinases

>  <Ligand_Instance>  (748) 
nan

>  <PDB_ID>  (748) 
nan

>  <Standardized_SMILES>  (748) 
N#Cc1ncc(OC[C@@H](N)Cc2c[nH]c3ccccc23)cc1-c1ccc2cnccc2c1

>  <Name>  (748) 
nan

>  <Pocket>  (748) 
nan

>  <ATP_Site>  (748) 
nan

>  <Peripheral>  (748) 
nan

>  <Num_H_Atoms_ProtBoundConf>  (748) 
nan

>  <Num_Resolved_Atoms>  (748) 
nan

>  <Num_Not_Resolved_Atoms>  (748) 
nan

$$$$
CHEMBL3702285
     RDKit          3D

  0  0  0  0  0  0  0  0  0  0999 V3000
M  V30 BEGIN CTAB
M  V30 COUNTS 50 53 0 0 0
M  V30 BEGIN ATOM
M  V30 1 C 0.568547 -0.323809 0.199480 0
M  V30 2 C 0.750637 0.483715 1.434173 0
M  V30 3 C 1.948183 1.131459 1.642515 0
M  V30 4 C 3.135028 1.161040 0.809316 0
M  V30 5 O 3.376869 0.608788 -0.308032 0
M  V30 6 N 4.262999 1.910368 1.241543 0
M  V30 7 C 5.469805 1.969221 0.442519 0
M  V30 8 C 5.228776 2.549027 -0.914589 0
M  V30 9 C 5.313566 3.888101 -1.234641 0
M  V30 10 N 5.032669 4.033285 -2.542530 0
M  V30 11 C 4.784624 2.771748 -2.979299 0
M  V30 12 O 4.903162 1.911136 -2.014240 0
M  V30 13 S 1.794405 1.986138 3.208057 0
M  V30 14 C 0.076862 1.405659 3.501459 0
M  V30 15 N -0.760458 1.654163 4.550513 0
M  V30 16 C -1.978687 1.126122 4.565475 0
M  V30 17 N -2.275273 0.380373 3.520583 0
M  V30 18 C -1.475422 0.123169 2.484676 0
M  V30 19 N -2.093027 -0.719078 1.523016 0
M  V30 20 C -1.864518 -2.130245 1.726058 0
M  V30 21 C -1.098570 -2.577933 2.786297 0
M  V30 22 C -0.855306 -3.916309 3.017213 0
M  V30 23 C -1.384696 -4.856505 2.173942 0
M  V30 24 N -2.131710 -4.419091 1.140049 0
M  V30 25 C -2.376801 -3.116303 0.903300 0
M  V30 26 O -3.151205 -2.717907 -0.173488 0
M  V30 27 C -3.743981 -3.569273 -1.099768 0
M  V30 28 C -5.201435 -3.341924 -1.318997 0
M  V30 29 C -3.041325 -3.268120 -2.431160 0
M  V30 30 C -0.204067 0.636911 2.405431 0
M  V30 31 H -0.460912 -0.410286 -0.136834 0
M  V30 32 H 1.097993 -1.296074 0.253486 0
M  V30 33 H 1.098301 0.226336 -0.631884 0
M  V30 34 H 4.219048 2.435362 2.165814 0
M  V30 35 H 6.209620 2.626071 0.942695 0
M  V30 36 H 5.928027 0.954968 0.332865 0
M  V30 37 H 5.564562 4.690758 -0.547737 0
M  V30 38 H 4.523125 2.514042 -3.993991 0
M  V30 39 H -2.525321 1.399081 5.438542 0
M  V30 40 H -2.699869 -0.497733 0.675908 0
M  V30 41 H -0.650648 -1.879977 3.491034 0
M  V30 42 H -0.255205 -4.274492 3.847162 0
M  V30 43 H -1.197192 -5.921000 2.348920 0
M  V30 44 H -3.552162 -4.648016 -0.917725 0
M  V30 45 H -5.687788 -4.266639 -1.705640 0
M  V30 46 H -5.401985 -2.576742 -2.124650 0
M  V30 47 H -5.765503 -3.021104 -0.422307 0
M  V30 48 H -1.966923 -3.526503 -2.282663 0
M  V30 49 H -3.500224 -3.779768 -3.279994 0
M  V30 50 H -3.085069 -2.163648 -2.542611 0
M  V30 END ATOM
M  V30 BEGIN BOND
M  V30 1 1 1 2
M  V30 2 2 2 3
M  V30 3 1 3 4
M  V30 4 2 4 5
M  V30 5 1 4 6
M  V30 6 1 6 7
M  V30 7 1 7 8
M  V30 8 2 8 9
M  V30 9 1 9 10
M  V30 10 2 10 11
M  V30 11 1 11 12
M  V30 12 1 3 13
M  V30 13 1 13 14
M  V30 14 2 14 15
M  V30 15 1 15 16
M  V30 16 2 16 17
M  V30 17 1 17 18
M  V30 18 1 18 19
M  V30 19 1 19 20
M  V30 20 2 20 21
M  V30 21 1 21 22
M  V30 22 2 22 23
M  V30 23 1 23 24
M  V30 24 2 24 25
M  V30 25 1 25 26
M  V30 26 1 26 27
M  V30 27 1 27 28
M  V30 28 1 27 29
M  V30 29 2 18 30
M  V30 30 1 30 2
M  V30 31 1 12 8
M  V30 32 1 30 14
M  V30 33 1 25 20
M  V30 34 1 1 31
M  V30 35 1 1 32
M  V30 36 1 1 33
M  V30 37 1 6 34
M  V30 38 1 7 35
M  V30 39 1 7 36
M  V30 40 1 9 37
M  V30 41 1 11 38
M  V30 42 1 16 39
M  V30 43 1 19 40
M  V30 44 1 21 41
M  V30 45 1 22 42
M  V30 46 1 23 43
M  V30 47 1 27 44
M  V30 48 1 28 45
M  V30 49 1 28 46
M  V30 50 1 28 47
M  V30 51 1 29 48
M  V30 52 1 29 49
M  V30 53 1 29 50
M  V30 END BOND
M  V30 END CTAB
M  END
>  <Dataset>  (749) 
ChEMBL_Kinases

>  <Ligand_Instance>  (749) 
nan

>  <PDB_ID>  (749) 
nan

>  <Standardized_SMILES>  (749) 
Cc1c(C(=O)NCc2cnco2)sc2ncnc(Nc3cccnc3OC(C)C)c12

>  <Name>  (749) 
nan

>  <Pocket>  (749) 
nan

>  <ATP_Site>  (749) 
nan

>  <Peripheral>  (749) 
nan

>  <Num_H_Atoms_ProtBoundConf>  (749) 
nan

>  <Num_Resolved_Atoms>  (749) 
nan

>  <Num_Not_Resolved_Atoms>  (749) 
nan

$$$$
CHEMBL3702286
     RDKit          3D

  0  0  0  0  0  0  0  0  0  0999 V3000
M  V30 BEGIN CTAB
M  V30 COUNTS 62 65 0 0 0
M  V30 BEGIN ATOM
M  V30 1 C -2.029114 0.593787 1.900888 0
M  V30 2 C -1.276838 -0.563526 2.486939 0
M  V30 3 C 0.110963 -0.602807 2.429552 0
M  V30 4 C 1.040048 0.368928 1.831585 0
M  V30 5 O 0.888908 1.480216 1.216767 0
M  V30 6 N 2.427322 0.092048 1.908066 0
M  V30 7 C 3.501352 0.897103 1.392715 0
M  V30 8 C 3.462366 1.105096 -0.104379 0
M  V30 9 N 4.535684 1.899892 -0.608662 0
M  V30 10 C 5.830261 1.332984 -0.561881 0
M  V30 11 C 6.301312 0.767759 -1.879806 0
M  V30 12 C 5.211881 0.586838 -2.882990 0
M  V30 13 C 4.461559 1.861995 -3.063899 0
M  V30 14 C 4.245127 2.648220 -1.800776 0
M  V30 15 S 0.587944 -2.104598 3.247354 0
M  V30 16 C -1.099052 -2.609499 3.627891 0
M  V30 17 N -1.494851 -3.723262 4.280801 0
M  V30 18 C -2.805564 -3.927253 4.473574 0
M  V30 19 N -3.607005 -2.975166 3.982162 0
M  V30 20 C -3.198336 -1.883229 3.340517 0
M  V30 21 N -4.296305 -1.076086 2.939883 0
M  V30 22 C -5.144466 -1.759022 1.990375 0
M  V30 23 C -6.498741 -1.970112 2.269092 0
M  V30 24 C -7.400495 -2.615449 1.453526 0
M  V30 25 C -6.867768 -3.073339 0.271114 0
M  V30 26 N -5.577935 -2.909369 -0.067704 0
M  V30 27 C -4.750915 -2.270722 0.773324 0
M  V30 28 O -3.423172 -2.109282 0.414855 0
M  V30 29 C -3.013178 -2.644055 -0.828428 0
M  V30 30 C -1.902433 -3.659262 -0.656056 0
M  V30 31 C -2.589841 -1.502992 -1.712242 0
M  V30 32 C -1.864133 -1.612197 3.109712 0
M  V30 33 H -2.788991 0.974415 2.618899 0
M  V30 34 H -1.321246 1.450733 1.789034 0
M  V30 35 H -2.495335 0.386014 0.942502 0
M  V30 36 H 2.722442 -0.809627 2.399073 0
M  V30 37 H 4.476111 0.424540 1.627750 0
M  V30 38 H 3.550109 1.893199 1.924630 0
M  V30 39 H 2.476960 1.499332 -0.411912 0
M  V30 40 H 3.607306 0.065588 -0.529195 0
M  V30 41 H 5.856566 0.503621 0.169252 0
M  V30 42 H 6.522909 2.120647 -0.162327 0
M  V30 43 H 7.038928 1.479415 -2.303299 0
M  V30 44 H 6.873245 -0.192304 -1.715616 0
M  V30 45 H 4.577958 -0.305787 -2.703337 0
M  V30 46 H 5.720337 0.367257 -3.862533 0
M  V30 47 H 3.482278 1.718006 -3.608144 0
M  V30 48 H 5.047951 2.514610 -3.755598 0
M  V30 49 H 3.192860 2.982825 -1.767721 0
M  V30 50 H 4.876461 3.577056 -1.760349 0
M  V30 51 H -3.026416 -4.834714 5.000440 0
M  V30 52 H -4.781170 -0.158077 3.044976 0
M  V30 53 H -6.887891 -1.588715 3.224749 0
M  V30 54 H -8.429741 -2.739035 1.737103 0
M  V30 55 H -7.511532 -3.601027 -0.444649 0
M  V30 56 H -3.896642 -3.128636 -1.311379 0
M  V30 57 H -1.418344 -3.908941 -1.619964 0
M  V30 58 H -1.143415 -3.304181 0.082688 0
M  V30 59 H -2.316661 -4.605130 -0.250853 0
M  V30 60 H -2.837354 -1.723905 -2.777583 0
M  V30 61 H -1.505942 -1.296460 -1.639460 0
M  V30 62 H -3.227512 -0.626596 -1.427337 0
M  V30 END ATOM
M  V30 BEGIN BOND
M  V30 1 1 1 2
M  V30 2 2 2 3
M  V30 3 1 3 4
M  V30 4 2 4 5
M  V30 5 1 4 6
M  V30 6 1 6 7
M  V30 7 1 7 8
M  V30 8 1 8 9
M  V30 9 1 9 10
M  V30 10 1 10 11
M  V30 11 1 11 12
M  V30 12 1 12 13
M  V30 13 1 13 14
M  V30 14 1 3 15
M  V30 15 1 15 16
M  V30 16 2 16 17
M  V30 17 1 17 18
M  V30 18 2 18 19
M  V30 19 1 19 20
M  V30 20 1 20 21
M  V30 21 1 21 22
M  V30 22 2 22 23
M  V30 23 1 23 24
M  V30 24 2 24 25
M  V30 25 1 25 26
M  V30 26 2 26 27
M  V30 27 1 27 28
M  V30 28 1 28 29
M  V30 29 1 29 30
M  V30 30 1 29 31
M  V30 31 2 20 32
M  V30 32 1 32 2
M  V30 33 1 14 9
M  V30 34 1 32 16
M  V30 35 1 27 22
M  V30 36 1 1 33
M  V30 37 1 1 34
M  V30 38 1 1 35
M  V30 39 1 6 36
M  V30 40 1 7 37
M  V30 41 1 7 38
M  V30 42 1 8 39
M  V30 43 1 8 40
M  V30 44 1 10 41
M  V30 45 1 10 42
M  V30 46 1 11 43
M  V30 47 1 11 44
M  V30 48 1 12 45
M  V30 49 1 12 46
M  V30 50 1 13 47
M  V30 51 1 13 48
M  V30 52 1 14 49
M  V30 53 1 14 50
M  V30 54 1 18 51
M  V30 55 1 21 52
M  V30 56 1 23 53
M  V30 57 1 24 54
M  V30 58 1 25 55
M  V30 59 1 29 56
M  V30 60 1 30 57
M  V30 61 1 30 58
M  V30 62 1 30 59
M  V30 63 1 31 60
M  V30 64 1 31 61
M  V30 65 1 31 62
M  V30 END BOND
M  V30 END CTAB
M  END
>  <Dataset>  (750) 
ChEMBL_Kinases

>  <Ligand_Instance>  (750) 
nan

>  <PDB_ID>  (750) 
nan

>  <Standardized_SMILES>  (750) 
Cc1c(C(=O)NCCN2CCCCC2)sc2ncnc(Nc3cccnc3OC(C)C)c12

>  <Name>  (750) 
nan

>  <Pocket>  (750) 
nan

>  <ATP_Site>  (750) 
nan

>  <Peripheral>  (750) 
nan

>  <Num_H_Atoms_ProtBoundConf>  (750) 
nan

>  <Num_Resolved_Atoms>  (750) 
nan

>  <Num_Not_Resolved_Atoms>  (750) 
nan

$$$$
CHEMBL3702287
     RDKit          3D

  0  0  0  0  0  0  0  0  0  0999 V3000
M  V30 BEGIN CTAB
M  V30 COUNTS 59 62 0 0 0
M  V30 BEGIN ATOM
M  V30 1 C -1.930286 -0.308013 1.643354 0
M  V30 2 C -1.002155 -0.371307 0.475530 0
M  V30 3 C -0.147839 0.669168 0.297533 0
M  V30 4 C 0.054984 1.882394 1.062282 0
M  V30 5 O -0.508344 2.298767 2.097104 0
M  V30 6 N 1.052900 2.808459 0.616324 0
M  V30 7 C 1.332925 4.050361 1.307416 0
M  V30 8 C 1.007511 5.260623 0.470744 0
M  V30 9 C 1.838279 5.213230 -0.788601 0
M  V30 10 N 3.220681 5.297795 -0.440333 0
M  V30 11 C 4.092905 4.547063 -1.288936 0
M  V30 12 C 3.519373 5.220986 0.955476 0
M  V30 13 C 2.802255 4.077895 1.643604 0
M  V30 14 S 0.771368 0.242778 -1.182462 0
M  V30 15 C -0.050481 -1.308692 -1.469537 0
M  V30 16 N 0.077933 -2.258597 -2.417841 0
M  V30 17 C -0.671058 -3.369972 -2.426300 0
M  V30 18 N -1.542306 -3.461422 -1.434844 0
M  V30 19 C -1.700499 -2.557794 -0.488183 0
M  V30 20 N -2.712598 -2.975135 0.418664 0
M  V30 21 C -2.475664 -3.794992 1.555967 0
M  V30 22 C -2.722899 -3.469761 2.874566 0
M  V30 23 C -2.466019 -4.322637 3.919908 0
M  V30 24 C -1.941019 -5.564807 3.708424 0
M  V30 25 N -1.681649 -5.927906 2.427833 0
M  V30 26 C -1.941851 -5.073853 1.414038 0
M  V30 27 O -1.623525 -5.592292 0.177659 0
M  V30 28 C -1.089866 -6.862488 -0.032381 0
M  V30 29 C 0.237386 -6.737477 -0.738101 0
M  V30 30 C -2.011742 -7.736365 -0.883820 0
M  V30 31 C -0.964570 -1.400292 -0.426850 0
M  V30 32 H -2.857705 -0.843325 1.412024 0
M  V30 33 H -1.451363 -0.673009 2.573441 0
M  V30 34 H -2.220492 0.742057 1.872492 0
M  V30 35 H 1.619684 2.592814 -0.247271 0
M  V30 36 H 0.695758 4.142716 2.221304 0
M  V30 37 H -0.079102 5.343905 0.241740 0
M  V30 38 H 1.279646 6.146622 1.095279 0
M  V30 39 H 1.575044 6.061524 -1.462766 0
M  V30 40 H 1.553072 4.284881 -1.342255 0
M  V30 41 H 3.619753 3.634623 -1.708967 0
M  V30 42 H 5.053234 4.287504 -0.797436 0
M  V30 43 H 4.369478 5.205144 -2.146379 0
M  V30 44 H 4.606725 5.030750 1.065894 0
M  V30 45 H 3.323822 6.202142 1.472432 0
M  V30 46 H 3.338569 3.147941 1.360187 0
M  V30 47 H 2.979869 4.218399 2.735497 0
M  V30 48 H -0.414866 -3.996968 -3.262643 0
M  V30 49 H -3.764301 -2.839275 0.513342 0
M  V30 50 H -3.134632 -2.510266 3.085214 0
M  V30 51 H -2.683821 -4.001048 4.915685 0
M  V30 52 H -1.734912 -6.242941 4.519662 0
M  V30 53 H -0.938355 -7.440103 0.908751 0
M  V30 54 H 1.037809 -6.378152 -0.047928 0
M  V30 55 H 0.201390 -5.984597 -1.549867 0
M  V30 56 H 0.514689 -7.690966 -1.239570 0
M  V30 57 H -1.353424 -8.468812 -1.396070 0
M  V30 58 H -2.702767 -8.311941 -0.211207 0
M  V30 59 H -2.588065 -7.150270 -1.619278 0
M  V30 END ATOM
M  V30 BEGIN BOND
M  V30 1 1 1 2
M  V30 2 2 2 3
M  V30 3 1 3 4
M  V30 4 2 4 5
M  V30 5 1 4 6
M  V30 6 1 6 7
M  V30 7 1 7 8
M  V30 8 1 8 9
M  V30 9 1 9 10
M  V30 10 1 10 11
M  V30 11 1 10 12
M  V30 12 1 12 13
M  V30 13 1 3 14
M  V30 14 1 14 15
M  V30 15 2 15 16
M  V30 16 1 16 17
M  V30 17 2 17 18
M  V30 18 1 18 19
M  V30 19 1 19 20
M  V30 20 1 20 21
M  V30 21 2 21 22
M  V30 22 1 22 23
M  V30 23 2 23 24
M  V30 24 1 24 25
M  V30 25 2 25 26
M  V30 26 1 26 27
M  V30 27 1 27 28
M  V30 28 1 28 29
M  V30 29 1 28 30
M  V30 30 2 19 31
M  V30 31 1 31 2
M  V30 32 1 13 7
M  V30 33 1 31 15
M  V30 34 1 26 21
M  V30 35 1 1 32
M  V30 36 1 1 33
M  V30 37 1 1 34
M  V30 38 1 6 35
M  V30 39 1 7 36
M  V30 40 1 8 37
M  V30 41 1 8 38
M  V30 42 1 9 39
M  V30 43 1 9 40
M  V30 44 1 11 41
M  V30 45 1 11 42
M  V30 46 1 11 43
M  V30 47 1 12 44
M  V30 48 1 12 45
M  V30 49 1 13 46
M  V30 50 1 13 47
M  V30 51 1 17 48
M  V30 52 1 20 49
M  V30 53 1 22 50
M  V30 54 1 23 51
M  V30 55 1 24 52
M  V30 56 1 28 53
M  V30 57 1 29 54
M  V30 58 1 29 55
M  V30 59 1 29 56
M  V30 60 1 30 57
M  V30 61 1 30 58
M  V30 62 1 30 59
M  V30 END BOND
M  V30 END CTAB
M  END
>  <Dataset>  (751) 
ChEMBL_Kinases

>  <Ligand_Instance>  (751) 
nan

>  <PDB_ID>  (751) 
nan

>  <Standardized_SMILES>  (751) 
Cc1c(C(=O)NC2CCN(C)CC2)sc2ncnc(Nc3cccnc3OC(C)C)c12

>  <Name>  (751) 
nan

>  <Pocket>  (751) 
nan

>  <ATP_Site>  (751) 
nan

>  <Peripheral>  (751) 
nan

>  <Num_H_Atoms_ProtBoundConf>  (751) 
nan

>  <Num_Resolved_Atoms>  (751) 
nan

>  <Num_Not_Resolved_Atoms>  (751) 
nan

$$$$
CHEMBL3702288
     RDKit          3D

  0  0  0  0  0  0  0  0  0  0999 V3000
M  V30 BEGIN CTAB
M  V30 COUNTS 51 53 0 0 0
M  V30 BEGIN ATOM
M  V30 1 C 0.692960 -1.234519 -0.029348 0
M  V30 2 C 0.867769 0.160794 0.506874 0
M  V30 3 C 1.661472 1.095605 -0.112819 0
M  V30 4 C 2.486516 0.978619 -1.332608 0
M  V30 5 O 2.638309 -0.018747 -2.123196 0
M  V30 6 N 3.239803 2.099926 -1.730115 0
M  V30 7 C 4.107731 2.208340 -2.876280 0
M  V30 8 C 4.756938 3.562966 -2.901120 0
M  V30 9 C 5.651217 3.855396 -1.726030 0
M  V30 10 O 5.075637 3.833730 -0.495206 0
M  V30 11 S 1.574424 2.592652 0.869736 0
M  V30 12 C 0.413000 1.805462 2.108144 0
M  V30 13 N -0.127539 2.386616 3.253908 0
M  V30 14 C -0.927418 1.632961 4.020676 0
M  V30 15 N -1.131041 0.395822 3.614408 0
M  V30 16 C -0.603521 -0.136885 2.512748 0
M  V30 17 N -1.001196 -1.488986 2.345382 0
M  V30 18 C -2.377614 -1.587282 1.996144 0
M  V30 19 C -3.211191 -0.507614 1.797708 0
M  V30 20 C -4.535476 -0.718257 1.495069 0
M  V30 21 C -5.129518 -1.955447 1.368433 0
M  V30 22 N -4.301151 -2.997629 1.566065 0
M  V30 23 C -2.979365 -2.815890 1.867086 0
M  V30 24 O -2.336502 -4.017558 2.027344 0
M  V30 25 C -2.935077 -5.272372 1.922213 0
M  V30 26 C -2.384657 -6.152873 0.825617 0
M  V30 27 C -2.871509 -6.044109 3.210635 0
M  V30 28 C 0.225214 0.511042 1.641788 0
M  V30 29 H 1.213567 -1.969581 0.615276 0
M  V30 30 H 1.091294 -1.323973 -1.040509 0
M  V30 31 H -0.374265 -1.522342 -0.059620 0
M  V30 32 H 3.147316 2.952644 -1.140649 0
M  V30 33 H 4.874647 1.389697 -2.821024 0
M  V30 34 H 3.536550 2.106754 -3.837356 0
M  V30 35 H 3.894308 4.297678 -2.889926 0
M  V30 36 H 5.301419 3.744195 -3.866641 0
M  V30 37 H 6.545552 3.188488 -1.708727 0
M  V30 38 H 6.039624 4.907705 -1.881484 0
M  V30 39 H 5.780716 3.679083 0.193117 0
M  V30 40 H -1.240326 2.230832 4.844308 0
M  V30 41 H -0.436725 -2.334013 2.441560 0
M  V30 42 H -2.804850 0.490657 1.883161 0
M  V30 43 H -5.212318 0.131962 1.335190 0
M  V30 44 H -6.171239 -2.054775 1.130185 0
M  V30 45 H -4.037155 -5.159793 1.683948 0
M  V30 46 H -2.865415 -5.937634 -0.154447 0
M  V30 47 H -2.729536 -7.205080 1.062320 0
M  V30 48 H -1.290753 -6.207015 0.793597 0
M  V30 49 H -3.589688 -6.890791 3.190142 0
M  V30 50 H -1.862933 -6.486933 3.295308 0
M  V30 51 H -3.100302 -5.326236 4.033677 0
M  V30 END ATOM
M  V30 BEGIN BOND
M  V30 1 1 1 2
M  V30 2 2 2 3
M  V30 3 1 3 4
M  V30 4 2 4 5
M  V30 5 1 4 6
M  V30 6 1 6 7
M  V30 7 1 7 8
M  V30 8 1 8 9
M  V30 9 1 9 10
M  V30 10 1 3 11
M  V30 11 1 11 12
M  V30 12 2 12 13
M  V30 13 1 13 14
M  V30 14 2 14 15
M  V30 15 1 15 16
M  V30 16 1 16 17
M  V30 17 1 17 18
M  V30 18 2 18 19
M  V30 19 1 19 20
M  V30 20 2 20 21
M  V30 21 1 21 22
M  V30 22 2 22 23
M  V30 23 1 23 24
M  V30 24 1 24 25
M  V30 25 1 25 26
M  V30 26 1 25 27
M  V30 27 2 16 28
M  V30 28 1 28 2
M  V30 29 1 28 12
M  V30 30 1 23 18
M  V30 31 1 1 29
M  V30 32 1 1 30
M  V30 33 1 1 31
M  V30 34 1 6 32
M  V30 35 1 7 33
M  V30 36 1 7 34
M  V30 37 1 8 35
M  V30 38 1 8 36
M  V30 39 1 9 37
M  V30 40 1 9 38
M  V30 41 1 10 39
M  V30 42 1 14 40
M  V30 43 1 17 41
M  V30 44 1 19 42
M  V30 45 1 20 43
M  V30 46 1 21 44
M  V30 47 1 25 45
M  V30 48 1 26 46
M  V30 49 1 26 47
M  V30 50 1 26 48
M  V30 51 1 27 49
M  V30 52 1 27 50
M  V30 53 1 27 51
M  V30 END BOND
M  V30 END CTAB
M  END
>  <Dataset>  (752) 
ChEMBL_Kinases

>  <Ligand_Instance>  (752) 
nan

>  <PDB_ID>  (752) 
nan

>  <Standardized_SMILES>  (752) 
Cc1c(C(=O)NCCCO)sc2ncnc(Nc3cccnc3OC(C)C)c12

>  <Name>  (752) 
nan

>  <Pocket>  (752) 
nan

>  <ATP_Site>  (752) 
nan

>  <Peripheral>  (752) 
nan

>  <Num_H_Atoms_ProtBoundConf>  (752) 
nan

>  <Num_Resolved_Atoms>  (752) 
nan

>  <Num_Not_Resolved_Atoms>  (752) 
nan

$$$$
CHEMBL5075362
     RDKit          3D

  0  0  0  0  0  0  0  0  0  0999 V3000
M  V30 BEGIN CTAB
M  V30 COUNTS 52 56 0 0 0
M  V30 BEGIN ATOM
M  V30 1 O 5.564391 -0.205006 -0.255177 0
M  V30 2 C 4.545322 -0.925733 -0.097887 0
M  V30 3 N 4.468782 -2.004532 0.850727 0
M  V30 4 C 5.632954 -2.262247 1.659166 0
M  V30 5 C 5.922118 -1.023483 2.449632 0
M  V30 6 N 6.688120 0.045413 2.164179 0
M  V30 7 C 6.616970 0.892747 3.209507 0
M  V30 8 N 5.809180 0.375977 4.167331 0
M  V30 9 N 5.403431 -0.789125 3.673914 0
M  V30 10 C 3.355441 -0.683145 -0.905545 0
M  V30 11 C 2.128852 -0.344497 -0.350588 0
M  V30 12 C 0.982879 -0.107459 -1.079965 0
M  V30 13 C -0.295265 0.247814 -0.467771 0
M  V30 14 C -0.452049 0.373210 0.896261 0
M  V30 15 C -1.650318 0.708433 1.491060 0
M  V30 16 C -2.734466 0.925219 0.667128 0
M  V30 17 N -4.023865 1.258153 1.139769 0
M  V30 18 S -5.675333 0.801663 1.004687 0
M  V30 19 O -5.992675 0.911452 -0.493778 0
M  V30 20 O -6.554130 1.826495 1.648697 0
M  V30 21 C -6.029066 -0.802699 1.528384 0
M  V30 22 C -6.882895 -0.905381 2.628061 0
M  V30 23 C -7.289904 -2.080368 3.221867 0
M  V30 24 C -6.828743 -3.265060 2.704457 0
M  V30 25 C -5.982189 -3.225768 1.617571 0
M  V30 26 Cl -5.340517 -4.673176 0.884845 0
M  V30 27 C -5.614766 -2.023586 1.072456 0
M  V30 28 Cl -4.557858 -1.958984 -0.314536 0
M  V30 29 C -2.555966 0.793684 -0.711322 0
M  V30 30 C -1.362063 0.459024 -1.315932 0
M  V30 31 N 1.122193 -0.226614 -2.412852 0
M  V30 32 C 2.255446 -0.547226 -3.046941 0
M  V30 33 N 2.560197 -0.705218 -4.348752 0
M  V30 34 N 3.843998 -1.027445 -4.423064 0
M  V30 35 C 4.386670 -1.083101 -3.185386 0
M  V30 36 C 3.377609 -0.776111 -2.280785 0
M  V30 37 H 3.586453 -2.571148 0.934485 0
M  V30 38 H 6.512835 -2.564017 1.054694 0
M  V30 39 H 5.416586 -3.102716 2.350651 0
M  V30 40 H 7.111989 1.868458 3.332089 0
M  V30 41 H 4.755342 -1.352622 4.282056 0
M  V30 42 H 2.122322 -0.274467 0.725803 0
M  V30 43 H 0.358780 0.214940 1.575236 0
M  V30 44 H -1.778354 0.808019 2.556954 0
M  V30 45 H -3.846886 2.081183 1.797055 0
M  V30 46 H -7.307740 -0.016434 3.117434 0
M  V30 47 H -7.944167 -2.127674 4.062676 0
M  V30 48 H -7.053494 -4.262149 3.053463 0
M  V30 49 H -3.401927 0.960452 -1.390524 0
M  V30 50 H -1.286973 0.372387 -2.390523 0
M  V30 51 H 1.861984 -0.582045 -5.126486 0
M  V30 52 H 5.415109 -1.322032 -2.940792 0
M  V30 END ATOM
M  V30 BEGIN BOND
M  V30 1 2 1 2
M  V30 2 1 2 3
M  V30 3 1 3 4
M  V30 4 1 4 5
M  V30 5 2 5 6
M  V30 6 1 6 7
M  V30 7 2 7 8
M  V30 8 1 8 9
M  V30 9 1 2 10
M  V30 10 2 10 11
M  V30 11 1 11 12
M  V30 12 1 12 13
M  V30 13 2 13 14
M  V30 14 1 14 15
M  V30 15 2 15 16
M  V30 16 1 16 17
M  V30 17 1 17 18
M  V30 18 2 18 19
M  V30 19 2 18 20
M  V30 20 1 18 21
M  V30 21 2 21 22
M  V30 22 1 22 23
M  V30 23 2 23 24
M  V30 24 1 24 25
M  V30 25 1 25 26
M  V30 26 2 25 27
M  V30 27 1 27 28
M  V30 28 1 16 29
M  V30 29 2 29 30
M  V30 30 2 12 31
M  V30 31 1 31 32
M  V30 32 1 32 33
M  V30 33 1 33 34
M  V30 34 2 34 35
M  V30 35 1 35 36
M  V30 36 1 9 5
M  V30 37 1 36 10
M  V30 38 1 30 13
M  V30 39 2 36 32
M  V30 40 1 27 21
M  V30 41 1 3 37
M  V30 42 1 4 38
M  V30 43 1 4 39
M  V30 44 1 7 40
M  V30 45 1 9 41
M  V30 46 1 11 42
M  V30 47 1 14 43
M  V30 48 1 15 44
M  V30 49 1 17 45
M  V30 50 1 22 46
M  V30 51 1 23 47
M  V30 52 1 24 48
M  V30 53 1 29 49
M  V30 54 1 30 50
M  V30 55 1 33 51
M  V30 56 1 35 52
M  V30 END BOND
M  V30 END CTAB
M  END
>  <Dataset>  (753) 
ChEMBL_Kinases

>  <Ligand_Instance>  (753) 
nan

>  <PDB_ID>  (753) 
nan

>  <Standardized_SMILES>  (753) 
O=C(NCc1ncn[nH]1)c1cc(-c2ccc(NS(=O)(=O)c3cccc(Cl)c3Cl)cc2)nc2[nH]ncc12

>  <Name>  (753) 
nan

>  <Pocket>  (753) 
nan

>  <ATP_Site>  (753) 
nan

>  <Peripheral>  (753) 
nan

>  <Num_H_Atoms_ProtBoundConf>  (753) 
nan

>  <Num_Resolved_Atoms>  (753) 
nan

>  <Num_Not_Resolved_Atoms>  (753) 
nan

$$$$
CHEMBL507453
     RDKit          3D

  0  0  0  0  0  0  0  0  0  0999 V3000
M  V30 BEGIN CTAB
M  V30 COUNTS 30 33 0 0 0
M  V30 BEGIN ATOM
M  V30 1 Cl -0.179937 -4.053827 5.506870 0
M  V30 2 C 0.279180 -3.573671 3.897895 0
M  V30 3 C -0.084649 -4.233041 2.742519 0
M  V30 4 C 0.332612 -3.772618 1.486929 0
M  V30 5 C 1.133183 -2.628122 1.355974 0
M  V30 6 O 1.390284 -2.407463 0.042838 0
M  V30 7 C 0.635619 -1.747331 -0.896503 0
M  V30 8 C 0.247226 -2.506764 -1.981792 0
M  V30 9 N -0.495187 -2.133363 -3.057027 0
M  V30 10 C -0.919750 -0.876004 -3.100393 0
M  V30 11 C -0.542883 -0.040521 -1.993438 0
M  V30 12 S -0.903073 1.742718 -1.639753 0
M  V30 13 C -0.035912 1.777180 -0.126991 0
M  V30 14 C 0.025495 3.016207 0.655679 0
M  V30 15 N 0.263029 4.233433 0.113673 0
M  V30 16 N 0.250955 5.124581 1.092642 0
M  V30 17 N 0.013318 4.518316 2.245330 0
M  V30 18 N -0.124733 3.221416 1.971846 0
M  V30 19 C 0.447031 0.543715 0.031191 0
M  V30 20 C 0.226209 -0.437486 -0.885163 0
M  V30 21 C 1.480906 -1.990887 2.527446 0
M  V30 22 C 1.065855 -2.450733 3.757506 0
M  V30 23 H -0.700866 -5.108438 2.891404 0
M  V30 24 H -0.052801 -4.422132 0.690387 0
M  V30 25 H 0.538025 -3.568723 -2.062020 0
M  V30 26 H -1.505528 -0.391299 -3.844642 0
M  V30 27 H -0.094729 4.736497 3.262521 0
M  V30 28 H 1.015907 0.411162 0.937171 0
M  V30 29 H 2.096173 -1.134400 2.343867 0
M  V30 30 H 1.401919 -1.865539 4.616940 0
M  V30 END ATOM
M  V30 BEGIN BOND
M  V30 1 1 1 2
M  V30 2 2 2 3
M  V30 3 1 3 4
M  V30 4 2 4 5
M  V30 5 1 5 6
M  V30 6 1 6 7
M  V30 7 2 7 8
M  V30 8 1 8 9
M  V30 9 2 9 10
M  V30 10 1 10 11
M  V30 11 1 11 12
M  V30 12 1 12 13
M  V30 13 1 13 14
M  V30 14 1 14 15
M  V30 15 2 15 16
M  V30 16 1 16 17
M  V30 17 1 17 18
M  V30 18 2 13 19
M  V30 19 1 19 20
M  V30 20 1 5 21
M  V30 21 2 21 22
M  V30 22 1 22 2
M  V30 23 1 20 7
M  V30 24 2 20 11
M  V30 25 2 18 14
M  V30 26 1 3 23
M  V30 27 1 4 24
M  V30 28 1 8 25
M  V30 29 1 10 26
M  V30 30 1 17 27
M  V30 31 1 19 28
M  V30 32 1 21 29
M  V30 33 1 22 30
M  V30 END BOND
M  V30 END CTAB
M  END
>  <Dataset>  (754) 
ChEMBL_Kinases

>  <Ligand_Instance>  (754) 
nan

>  <PDB_ID>  (754) 
nan

>  <Standardized_SMILES>  (754) 
Clc1ccc(Oc2cncc3sc(-c4nn[nH]n4)cc23)cc1

>  <Name>  (754) 
nan

>  <Pocket>  (754) 
nan

>  <ATP_Site>  (754) 
nan

>  <Peripheral>  (754) 
nan

>  <Num_H_Atoms_ProtBoundConf>  (754) 
nan

>  <Num_Resolved_Atoms>  (754) 
nan

>  <Num_Not_Resolved_Atoms>  (754) 
nan

$$$$
CHEMBL379112
     RDKit          3D

  0  0  0  0  0  0  0  0  0  0999 V3000
M  V30 BEGIN CTAB
M  V30 COUNTS 39 42 0 0 0
M  V30 BEGIN ATOM
M  V30 1 C -0.311088 -3.601925 1.542646 0
M  V30 2 C 0.649366 -3.860076 0.377580 0
M  V30 3 C -0.084059 -3.714360 -0.877434 0
M  V30 4 C 1.886614 -3.079176 0.538769 0
M  V30 5 N 3.109508 -3.602676 0.857342 0
M  V30 6 N 3.982021 -2.616851 0.916189 0
M  V30 7 C 3.340627 -1.464785 0.640320 0
M  V30 8 C 3.829119 -0.172581 0.580241 0
M  V30 9 C 2.899586 0.787958 0.266584 0
M  V30 10 C 1.542412 0.550527 0.013854 0
M  V30 11 C 0.716701 1.701342 -0.311792 0
M  V30 12 O 1.081729 2.386287 -1.360564 0
M  V30 13 C 0.293053 3.404652 -1.591232 0
M  V30 14 N -0.652606 3.369789 -0.612405 0
M  V30 15 C -0.391577 2.300601 0.195704 0
M  V30 16 C -1.073314 1.815186 1.362365 0
M  V30 17 C -0.673946 1.722367 2.682145 0
M  V30 18 C -1.557276 1.211566 3.580976 0
M  V30 19 F -1.120513 1.139880 4.863225 0
M  V30 20 C -2.827229 0.770916 3.307021 0
M  V30 21 C -3.230476 0.864136 1.975526 0
M  V30 22 F -4.478861 0.428083 1.721540 0
M  V30 23 C -2.364185 1.378661 1.021612 0
M  V30 24 F -2.924410 1.393896 -0.220864 0
M  V30 25 C 1.163507 -0.773360 0.101172 0
M  V30 26 N 2.040026 -1.734903 0.403973 0
M  V30 27 H -0.638952 -4.550332 2.036033 0
M  V30 28 H 0.197439 -3.032916 2.347072 0
M  V30 29 H -1.235460 -3.090255 1.211187 0
M  V30 30 H 0.953212 -4.920325 0.500247 0
M  V30 31 H -1.089324 -3.205262 -0.778183 0
M  V30 32 H 0.493679 -3.289025 -1.728111 0
M  V30 33 H -0.382978 -4.721510 -1.240382 0
M  V30 34 H 4.860003 0.099002 0.761222 0
M  V30 35 H 3.269196 1.812118 0.215679 0
M  V30 36 H 0.327803 4.151757 -2.372768 0
M  V30 37 H 0.328930 2.082763 2.828752 0
M  V30 38 H -3.469414 0.377677 4.081369 0
M  V30 39 H 0.128101 -0.959650 -0.090497 0
M  V30 END ATOM
M  V30 BEGIN BOND
M  V30 1 1 1 2
M  V30 2 1 2 3
M  V30 3 1 2 4
M  V30 4 2 4 5
M  V30 5 1 5 6
M  V30 6 2 6 7
M  V30 7 1 7 8
M  V30 8 2 8 9
M  V30 9 1 9 10
M  V30 10 1 10 11
M  V30 11 1 11 12
M  V30 12 1 12 13
M  V30 13 2 13 14
M  V30 14 1 14 15
M  V30 15 1 15 16
M  V30 16 2 16 17
M  V30 17 1 17 18
M  V30 18 1 18 19
M  V30 19 2 18 20
M  V30 20 1 20 21
M  V30 21 1 21 22
M  V30 22 2 21 23
M  V30 23 1 23 24
M  V30 24 2 10 25
M  V30 25 1 25 26
M  V30 26 1 26 4
M  V30 27 1 26 7
M  V30 28 2 15 11
M  V30 29 1 23 16
M  V30 30 1 1 27
M  V30 31 1 1 28
M  V30 32 1 1 29
M  V30 33 1 2 30
M  V30 34 1 3 31
M  V30 35 1 3 32
M  V30 36 1 3 33
M  V30 37 1 8 34
M  V30 38 1 9 35
M  V30 39 1 13 36
M  V30 40 1 17 37
M  V30 41 1 20 38
M  V30 42 1 25 39
M  V30 END BOND
M  V30 END CTAB
M  END
>  <Dataset>  (755) 
ChEMBL_Kinases

>  <Ligand_Instance>  (755) 
nan

>  <PDB_ID>  (755) 
nan

>  <Standardized_SMILES>  (755) 
CC(C)c1nnc2ccc(-c3ocnc3-c3cc(F)cc(F)c3F)cn12

>  <Name>  (755) 
nan

>  <Pocket>  (755) 
nan

>  <ATP_Site>  (755) 
nan

>  <Peripheral>  (755) 
nan

>  <Num_H_Atoms_ProtBoundConf>  (755) 
nan

>  <Num_Resolved_Atoms>  (755) 
nan

>  <Num_Not_Resolved_Atoms>  (755) 
nan

$$$$
CHEMBL379095
     RDKit          3D

  0  0  0  0  0  0  0  0  0  0999 V3000
M  V30 BEGIN CTAB
M  V30 COUNTS 47 49 0 0 0
M  V30 BEGIN ATOM
M  V30 1 C -0.448275 -1.035780 -2.434070 0
M  V30 2 O -1.328380 -0.913984 -1.306098 0
M  V30 3 C -0.832033 -0.512073 -0.073883 0
M  V30 4 C 0.505827 -0.223246 0.092410 0
M  V30 5 C 1.097653 0.186536 1.285579 0
M  V30 6 N 2.506613 0.455788 1.322333 0
M  V30 7 C 3.129820 1.703474 1.068281 0
M  V30 8 O 2.222288 2.545169 0.801412 0
M  V30 9 C 4.625394 1.707330 1.174874 0
M  V30 10 C 5.082490 3.099526 0.874380 0
M  V30 11 C 5.232696 4.068292 1.837980 0
M  V30 12 C 5.661137 5.351391 1.511196 0
M  V30 13 C 5.916276 5.562296 0.167305 0
M  V30 14 N 5.763117 4.601323 -0.759434 0
M  V30 15 C 5.351653 3.365867 -0.452347 0
M  V30 16 C 0.252355 0.303522 2.369402 0
M  V30 17 Cl 0.934004 0.814419 3.898690 0
M  V30 18 C -1.098995 0.024710 2.252880 0
M  V30 19 C -1.639612 -0.378519 1.048208 0
M  V30 20 N -3.036758 -0.682658 0.865663 0
M  V30 21 C -3.400193 -2.056518 1.101125 0
M  V30 22 O -2.413383 -2.794960 1.438327 0
M  V30 23 N -4.699311 -2.626523 0.994234 0
M  V30 24 C -4.815469 -4.034175 1.281280 0
M  V30 25 C -4.647100 -4.870260 0.189065 0
M  V30 26 N -4.747972 -6.212385 0.410134 0
M  V30 27 C -5.002155 -6.655190 1.657931 0
M  V30 28 C -5.098250 -8.083441 1.833356 0
M  V30 29 N -5.171034 -9.224687 1.981731 0
M  V30 30 C -5.170259 -5.812822 2.750132 0
M  V30 31 N -5.070522 -4.478737 2.533277 0
M  V30 32 H -0.133992 -0.020467 -2.730187 0
M  V30 33 H -0.936517 -1.611488 -3.239064 0
M  V30 34 H 0.459001 -1.611229 -2.160938 0
M  V30 35 H 1.182739 -0.313969 -0.763820 0
M  V30 36 H 2.974634 -0.463823 1.576355 0
M  V30 37 H 4.931125 1.385572 2.189775 0
M  V30 38 H 5.008744 0.981844 0.451157 0
M  V30 39 H 4.991300 3.732840 2.827752 0
M  V30 40 H 5.762913 6.074092 2.302074 0
M  V30 41 H 6.255522 6.569941 -0.108573 0
M  V30 42 H 5.265145 2.676457 -1.280378 0
M  V30 43 H -1.756413 0.118308 3.106250 0
M  V30 44 H -3.841069 -0.066694 0.587787 0
M  V30 45 H -5.417348 -1.906040 0.708833 0
M  V30 46 H -4.444052 -4.491982 -0.801757 0
M  V30 47 H -5.373270 -6.191317 3.740977 0
M  V30 END ATOM
M  V30 BEGIN BOND
M  V30 1 1 1 2
M  V30 2 1 2 3
M  V30 3 2 3 4
M  V30 4 1 4 5
M  V30 5 1 5 6
M  V30 6 1 6 7
M  V30 7 2 7 8
M  V30 8 1 7 9
M  V30 9 1 9 10
M  V30 10 2 10 11
M  V30 11 1 11 12
M  V30 12 2 12 13
M  V30 13 1 13 14
M  V30 14 2 14 15
M  V30 15 2 5 16
M  V30 16 1 16 17
M  V30 17 1 16 18
M  V30 18 2 18 19
M  V30 19 1 19 20
M  V30 20 1 20 21
M  V30 21 2 21 22
M  V30 22 1 21 23
M  V30 23 1 23 24
M  V30 24 2 24 25
M  V30 25 1 25 26
M  V30 26 2 26 27
M  V30 27 1 27 28
M  V30 28 3 28 29
M  V30 29 1 27 30
M  V30 30 2 30 31
M  V30 31 1 19 3
M  V30 32 1 31 24
M  V30 33 1 15 10
M  V30 34 1 1 32
M  V30 35 1 1 33
M  V30 36 1 1 34
M  V30 37 1 4 35
M  V30 38 1 6 36
M  V30 39 1 9 37
M  V30 40 1 9 38
M  V30 41 1 11 39
M  V30 42 1 12 40
M  V30 43 1 13 41
M  V30 44 1 15 42
M  V30 45 1 18 43
M  V30 46 1 20 44
M  V30 47 1 23 45
M  V30 48 1 25 46
M  V30 49 1 30 47
M  V30 END BOND
M  V30 END CTAB
M  END
>  <Dataset>  (756) 
ChEMBL_Kinases

>  <Ligand_Instance>  (756) 
nan

>  <PDB_ID>  (756) 
nan

>  <Standardized_SMILES>  (756) 
COc1cc(NC(=O)Cc2cccnc2)c(Cl)cc1NC(=O)Nc1cnc(C#N)cn1

>  <Name>  (756) 
nan

>  <Pocket>  (756) 
nan

>  <ATP_Site>  (756) 
nan

>  <Peripheral>  (756) 
nan

>  <Num_H_Atoms_ProtBoundConf>  (756) 
nan

>  <Num_Resolved_Atoms>  (756) 
nan

>  <Num_Not_Resolved_Atoms>  (756) 
nan

$$$$
CHEMBL3702289
     RDKit          3D

  0  0  0  0  0  0  0  0  0  0999 V3000
M  V30 BEGIN CTAB
M  V30 COUNTS 48 50 0 0 0
M  V30 BEGIN ATOM
M  V30 1 C 0.989821 -1.239313 0.751757 0
M  V30 2 C 1.797071 -0.079522 1.193589 0
M  V30 3 C 3.116430 -0.173975 0.897274 0
M  V30 4 C 4.116649 -1.026756 0.314206 0
M  V30 5 O 5.326523 -0.622063 0.279579 0
M  V30 6 N 4.016464 -2.315666 -0.267121 0
M  V30 7 C 5.072123 -3.101633 -0.830550 0
M  V30 8 C 5.764780 -2.437314 -2.015001 0
M  V30 9 O 6.778376 -3.259535 -2.512632 0
M  V30 10 S 3.834677 1.367027 1.498954 0
M  V30 11 C 2.256500 2.060792 2.136519 0
M  V30 12 N 1.922414 3.210842 2.769689 0
M  V30 13 C 0.657264 3.450083 3.146930 0
M  V30 14 N -0.216885 2.492842 2.856659 0
M  V30 15 C 0.105504 1.371594 2.239038 0
M  V30 16 N -1.070564 0.584102 2.119096 0
M  V30 17 C -2.063396 0.959301 1.169030 0
M  V30 18 C -1.820870 2.111286 0.468340 0
M  V30 19 C -2.791469 2.513647 -0.443878 0
M  V30 20 C -3.903179 1.706313 -0.549151 0
M  V30 21 N -4.095667 0.582933 0.160671 0
M  V30 22 C -3.172092 0.147373 1.067135 0
M  V30 23 O -3.391328 -1.016213 1.785551 0
M  V30 24 C -4.645303 -1.662616 1.514582 0
M  V30 25 C -5.219077 -2.158189 2.797608 0
M  V30 26 C -4.436285 -2.837328 0.561603 0
M  V30 27 C 1.369495 1.051043 1.820951 0
M  V30 28 H 1.337056 -2.160595 1.257843 0
M  V30 29 H -0.084468 -1.177562 0.965461 0
M  V30 30 H 1.150579 -1.421926 -0.355899 0
M  V30 31 H 3.056524 -2.715648 -0.266403 0
M  V30 32 H 4.664789 -4.045487 -1.219036 0
M  V30 33 H 5.832841 -3.405085 -0.061049 0
M  V30 34 H 6.256747 -1.527184 -1.631392 0
M  V30 35 H 5.030846 -2.140541 -2.780141 0
M  V30 36 H 6.888325 -3.018055 -3.483576 0
M  V30 37 H 0.573212 4.399644 3.629461 0
M  V30 38 H -1.179076 -0.260500 2.764655 0
M  V30 39 H -0.932280 2.714163 0.585667 0
M  V30 40 H -2.729955 3.393972 -1.057516 0
M  V30 41 H -4.752193 1.872112 -1.212386 0
M  V30 42 H -5.340474 -0.975791 0.967679 0
M  V30 43 H -4.529217 -1.979333 3.676264 0
M  V30 44 H -5.355243 -3.281468 2.792462 0
M  V30 45 H -6.228316 -1.722635 3.002644 0
M  V30 46 H -3.466836 -3.321594 0.740671 0
M  V30 47 H -5.220519 -3.605208 0.732722 0
M  V30 48 H -4.526293 -2.467547 -0.483838 0
M  V30 END ATOM
M  V30 BEGIN BOND
M  V30 1 1 1 2
M  V30 2 2 2 3
M  V30 3 1 3 4
M  V30 4 2 4 5
M  V30 5 1 4 6
M  V30 6 1 6 7
M  V30 7 1 7 8
M  V30 8 1 8 9
M  V30 9 1 3 10
M  V30 10 1 10 11
M  V30 11 2 11 12
M  V30 12 1 12 13
M  V30 13 2 13 14
M  V30 14 1 14 15
M  V30 15 1 15 16
M  V30 16 1 16 17
M  V30 17 2 17 18
M  V30 18 1 18 19
M  V30 19 2 19 20
M  V30 20 1 20 21
M  V30 21 2 21 22
M  V30 22 1 22 23
M  V30 23 1 23 24
M  V30 24 1 24 25
M  V30 25 1 24 26
M  V30 26 2 15 27
M  V30 27 1 27 2
M  V30 28 1 27 11
M  V30 29 1 22 17
M  V30 30 1 1 28
M  V30 31 1 1 29
M  V30 32 1 1 30
M  V30 33 1 6 31
M  V30 34 1 7 32
M  V30 35 1 7 33
M  V30 36 1 8 34
M  V30 37 1 8 35
M  V30 38 1 9 36
M  V30 39 1 13 37
M  V30 40 1 16 38
M  V30 41 1 18 39
M  V30 42 1 19 40
M  V30 43 1 20 41
M  V30 44 1 24 42
M  V30 45 1 25 43
M  V30 46 1 25 44
M  V30 47 1 25 45
M  V30 48 1 26 46
M  V30 49 1 26 47
M  V30 50 1 26 48
M  V30 END BOND
M  V30 END CTAB
M  END
>  <Dataset>  (757) 
ChEMBL_Kinases

>  <Ligand_Instance>  (757) 
nan

>  <PDB_ID>  (757) 
nan

>  <Standardized_SMILES>  (757) 
Cc1c(C(=O)NCCO)sc2ncnc(Nc3cccnc3OC(C)C)c12

>  <Name>  (757) 
nan

>  <Pocket>  (757) 
nan

>  <ATP_Site>  (757) 
nan

>  <Peripheral>  (757) 
nan

>  <Num_H_Atoms_ProtBoundConf>  (757) 
nan

>  <Num_Resolved_Atoms>  (757) 
nan

>  <Num_Not_Resolved_Atoms>  (757) 
nan

$$$$
CHEMBL379080
     RDKit          3D

  0  0  0  0  0  0  0  0  0  0999 V3000
M  V30 BEGIN CTAB
M  V30 COUNTS 92 96 0 0 0
M  V30 BEGIN ATOM
M  V30 1 C -2.477840 -4.151125 -4.684170 0
M  V30 2 O -3.368927 -3.061936 -4.835568 0
M  V30 3 C -3.414964 -2.097966 -3.842435 0
M  V30 4 C -2.634667 -2.108741 -2.714602 0
M  V30 5 C -2.623129 -1.194367 -1.674954 0
M  V30 6 C -3.551951 -0.215831 -1.938207 0
M  V30 7 N -3.741297 0.793823 -0.916738 0
M  V30 8 C -2.903768 1.926547 -1.086605 0
M  V30 9 O -2.741231 1.042300 -1.988264 0
M  V30 10 O -2.306154 3.160099 -0.877158 0
M  V30 11 C -1.339369 3.649867 -1.742274 0
M  V30 12 C -1.537231 4.609611 -2.709401 0
M  V30 13 C -2.897102 5.173419 -2.892209 0
M  V30 14 C -0.505571 5.055829 -3.553025 0
M  V30 15 C 0.755407 4.453257 -3.347335 0
M  V30 16 C 0.916972 3.501937 -2.377106 0
M  V30 17 C -0.081769 3.068654 -1.557908 0
M  V30 18 C 0.230566 2.033114 -0.549950 0
M  V30 19 C -4.670627 0.465923 0.148731 0
M  V30 20 C -5.973962 0.627789 0.462026 0
M  V30 21 C -6.402990 0.134843 1.671892 0
M  V30 22 N -5.583279 -0.489033 2.530679 0
M  V30 23 C -4.294601 -0.643705 2.208889 0
M  V30 24 N -3.394969 -1.273218 3.173221 0
M  V30 25 C -2.088116 -1.718818 2.846281 0
M  V30 26 C -0.939538 -1.348880 3.553416 0
M  V30 27 C 0.292597 -1.778289 3.236626 0
M  V30 28 C 0.518288 -2.626270 2.181054 0
M  V30 29 O 1.530298 -3.201168 1.601531 0
M  V30 30 C 2.691837 -3.621636 1.215352 0
M  V30 31 C 3.716983 -4.268269 2.069385 0
M  V30 32 C 4.377393 -3.430470 3.128338 0
M  V30 33 N 5.094095 -2.315731 2.603505 0
M  V30 34 C 6.173523 -1.859463 3.515742 0
M  V30 35 C 6.753465 -0.611122 2.867931 0
M  V30 36 N 6.178239 -0.282598 1.621752 0
M  V30 37 C 6.852380 0.703309 0.860606 0
M  V30 38 C 4.756371 -0.141266 1.598573 0
M  V30 39 C 4.186781 -1.141435 2.627073 0
M  V30 40 C -0.616966 -3.043843 1.426712 0
M  V30 41 O -0.542455 -3.842616 0.422166 0
M  V30 42 C -0.504246 -4.649760 -0.599900 0
M  V30 43 C -1.906438 -2.579200 1.773220 0
M  V30 44 N -3.822125 -0.167833 1.014329 0
M  V30 45 C -4.423886 -0.040006 -3.022922 0
M  V30 46 O -5.251632 1.046389 -3.026644 0
M  V30 47 C -6.156862 1.336203 -4.052362 0
M  V30 48 C -4.291194 -1.043055 -3.948866 0
M  V30 49 H -2.762444 -5.005271 -5.331413 0
M  V30 50 H -2.536263 -4.548250 -3.626979 0
M  V30 51 H -1.447874 -3.792327 -4.820019 0
M  V30 52 H -1.929751 -2.938946 -2.641751 0
M  V30 53 H -2.004374 -1.208849 -0.798792 0
M  V30 54 H -3.607695 4.411459 -2.510723 0
M  V30 55 H -3.108555 5.243017 -3.990106 0
M  V30 56 H -3.073883 6.131816 -2.365498 0
M  V30 57 H -0.779545 5.810659 -4.271554 0
M  V30 58 H 1.463651 4.869614 -4.048936 0
M  V30 59 H 1.931160 3.127239 -2.338659 0
M  V30 60 H 0.846491 2.457516 0.290934 0
M  V30 61 H 0.705843 1.137237 -0.990146 0
M  V30 62 H -0.700851 1.681585 -0.018752 0
M  V30 63 H -6.424626 1.140681 -0.353083 0
M  V30 64 H -7.462784 0.324430 1.817330 0
M  V30 65 H -3.719652 -1.403837 4.153249 0
M  V30 66 H -1.020864 -0.687189 4.401390 0
M  V30 67 H 1.201190 -1.535963 3.761537 0
M  V30 68 H 2.613608 -4.383800 0.304133 0
M  V30 69 H 3.201002 -2.771848 0.595890 0
M  V30 70 H 4.521932 -4.688157 1.400864 0
M  V30 71 H 3.289611 -5.184260 2.572821 0
M  V30 72 H 3.610650 -3.080682 3.877007 0
M  V30 73 H 5.069753 -4.053659 3.721716 0
M  V30 74 H 6.936362 -2.655527 3.606189 0
M  V30 75 H 5.687921 -1.588867 4.459735 0
M  V30 76 H 6.744230 0.254980 3.569310 0
M  V30 77 H 7.855689 -0.816237 2.693455 0
M  V30 78 H 6.153885 1.235348 0.141391 0
M  V30 79 H 7.245872 1.514309 1.537343 0
M  V30 80 H 7.685657 0.208363 0.301914 0
M  V30 81 H 4.354797 0.850899 1.697029 0
M  V30 82 H 4.442862 -0.498414 0.569954 0
M  V30 83 H 3.147624 -1.374078 2.477154 0
M  V30 84 H 4.333516 -0.668359 3.619773 0
M  V30 85 H -1.356920 -5.371006 -0.754789 0
M  V30 86 H 0.371611 -5.404556 -0.466587 0
M  V30 87 H -0.288855 -4.204275 -1.621762 0
M  V30 88 H -2.829382 -2.862766 1.233575 0
M  V30 89 H -6.446734 0.432598 -4.626093 0
M  V30 90 H -7.090097 1.801313 -3.649275 0
M  V30 91 H -5.733579 2.131137 -4.746455 0
M  V30 92 H -4.946612 -0.976760 -4.829405 0
M  V30 END ATOM
M  V30 BEGIN BOND
M  V30 1 1 1 2
M  V30 2 1 2 3
M  V30 3 2 3 4
M  V30 4 1 4 5
M  V30 5 2 5 6
M  V30 6 1 6 7
M  V30 7 1 7 8
M  V30 8 2 8 9
M  V30 9 1 8 10
M  V30 10 1 10 11
M  V30 11 2 11 12
M  V30 12 1 12 13
M  V30 13 1 12 14
M  V30 14 2 14 15
M  V30 15 1 15 16
M  V30 16 2 16 17
M  V30 17 1 17 18
M  V30 18 1 7 19
M  V30 19 2 19 20
M  V30 20 1 20 21
M  V30 21 2 21 22
M  V30 22 1 22 23
M  V30 23 1 23 24
M  V30 24 1 24 25
M  V30 25 2 25 26
M  V30 26 1 26 27
M  V30 27 2 27 28
M  V30 28 1 28 29
M  V30 29 1 29 30
M  V30 30 1 30 31
M  V30 31 1 31 32
M  V30 32 1 32 33
M  V30 33 1 33 34
M  V30 34 1 34 35
M  V30 35 1 35 36
M  V30 36 1 36 37
M  V30 37 1 36 38
M  V30 38 1 38 39
M  V30 39 1 28 40
M  V30 40 1 40 41
M  V30 41 1 41 42
M  V30 42 2 40 43
M  V30 43 2 23 44
M  V30 44 1 6 45
M  V30 45 1 45 46
M  V30 46 1 46 47
M  V30 47 2 45 48
M  V30 48 1 48 3
M  V30 49 1 17 11
M  V30 50 1 44 19
M  V30 51 1 43 25
M  V30 52 1 39 33
M  V30 53 1 1 49
M  V30 54 1 1 50
M  V30 55 1 1 51
M  V30 56 1 4 52
M  V30 57 1 5 53
M  V30 58 1 13 54
M  V30 59 1 13 55
M  V30 60 1 13 56
M  V30 61 1 14 57
M  V30 62 1 15 58
M  V30 63 1 16 59
M  V30 64 1 18 60
M  V30 65 1 18 61
M  V30 66 1 18 62
M  V30 67 1 20 63
M  V30 68 1 21 64
M  V30 69 1 24 65
M  V30 70 1 26 66
M  V30 71 1 27 67
M  V30 72 1 30 68
M  V30 73 1 30 69
M  V30 74 1 31 70
M  V30 75 1 31 71
M  V30 76 1 32 72
M  V30 77 1 32 73
M  V30 78 1 34 74
M  V30 79 1 34 75
M  V30 80 1 35 76
M  V30 81 1 35 77
M  V30 82 1 37 78
M  V30 83 1 37 79
M  V30 84 1 37 80
M  V30 85 1 38 81
M  V30 86 1 38 82
M  V30 87 1 39 83
M  V30 88 1 39 84
M  V30 89 1 42 85
M  V30 90 1 42 86
M  V30 91 1 42 87
M  V30 92 1 43 88
M  V30 93 1 47 89
M  V30 94 1 47 90
M  V30 95 1 47 91
M  V30 96 1 48 92
M  V30 END BOND
M  V30 END CTAB
M  END
>  <Dataset>  (758) 
ChEMBL_Kinases

>  <Ligand_Instance>  (758) 
nan

>  <PDB_ID>  (758) 
nan

>  <Standardized_SMILES>  (758) 
COc1ccc(N(C(=O)Oc2c(C)cccc2C)c2ccnc(Nc3ccc(OCCCN4CCN(C)CC4)c(OC)c3)n2)c(OC)c1

>  <Name>  (758) 
nan

>  <Pocket>  (758) 
nan

>  <ATP_Site>  (758) 
nan

>  <Peripheral>  (758) 
nan

>  <Num_H_Atoms_ProtBoundConf>  (758) 
nan

>  <Num_Resolved_Atoms>  (758) 
nan

>  <Num_Not_Resolved_Atoms>  (758) 
nan

$$$$
CHEMBL379059
     RDKit          3D

  0  0  0  0  0  0  0  0  0  0999 V3000
M  V30 BEGIN CTAB
M  V30 COUNTS 59 63 0 0 0
M  V30 BEGIN ATOM
M  V30 1 C 4.315800 -2.327739 3.925180 0
M  V30 2 N 4.801198 -0.987689 3.921639 0
M  V30 3 C 4.180228 -0.125806 4.870796 0
M  V30 4 C 5.050389 -0.440845 2.629865 0
M  V30 5 C 3.896401 -0.367156 1.727305 0
M  V30 6 C 3.107375 0.764446 1.719014 0
M  V30 7 C 1.986302 0.944564 0.902704 0
M  V30 8 N 1.656723 -0.057020 0.068384 0
M  V30 9 C 0.635930 -0.146098 -0.817484 0
M  V30 10 C -0.411931 0.780315 -1.158337 0
M  V30 11 C -0.408469 1.383119 -2.394368 0
M  V30 12 C -1.449414 2.248196 -2.638968 0
M  V30 13 N -2.376958 2.457899 -1.710866 0
M  V30 14 C -2.349447 1.844101 -0.497234 0
M  V30 15 N -3.343333 2.079425 0.480313 0
M  V30 16 C -3.514143 1.546840 1.807761 0
M  V30 17 C -3.674572 0.074037 1.712644 0
M  V30 18 C -2.705842 -0.897806 1.817231 0
M  V30 19 C -3.021954 -2.236893 1.691786 0
M  V30 20 C -4.304237 -2.671828 1.458592 0
M  V30 21 C -5.301242 -1.741180 1.347448 0
M  V30 22 C -4.962049 -0.415198 1.475817 0
M  V30 23 N -1.352537 1.002926 -0.237229 0
M  V30 24 C 0.739925 -1.379062 -1.426295 0
M  V30 25 C -0.010312 -2.100506 -2.445952 0
M  V30 26 C -0.192929 -1.841661 -3.785852 0
M  V30 27 C -0.955394 -2.662355 -4.578675 0
M  V30 28 C -1.557511 -3.776604 -4.028401 0
M  V30 29 F -2.315019 -4.591858 -4.817361 0
M  V30 30 C -1.410644 -4.083067 -2.702817 0
M  V30 31 C -0.632309 -3.237014 -1.914726 0
M  V30 32 N 1.827611 -1.983651 -0.876418 0
M  V30 33 C 2.400348 -1.177761 0.045868 0
M  V30 34 C 3.512770 -1.362867 0.852347 0
M  V30 35 H 4.108586 -2.595554 4.995893 0
M  V30 36 H 5.042420 -3.082552 3.578811 0
M  V30 37 H 3.397012 -2.454974 3.339548 0
M  V30 38 H 3.184460 -0.482367 5.241296 0
M  V30 39 H 4.818749 -0.139077 5.801517 0
M  V30 40 H 4.080743 0.924564 4.593371 0
M  V30 41 H 5.502835 0.566741 2.741528 0
M  V30 42 H 5.851025 -1.072223 2.164294 0
M  V30 43 H 3.372920 1.570328 2.390954 0
M  V30 44 H 1.406656 1.856127 0.941878 0
M  V30 45 H 0.334629 1.231292 -3.163543 0
M  V30 46 H -1.551870 2.780428 -3.575699 0
M  V30 47 H -4.091337 2.769108 0.179362 0
M  V30 48 H -2.638711 1.810329 2.447634 0
M  V30 49 H -4.423217 1.930086 2.278191 0
M  V30 50 H -1.710792 -0.552633 2.007101 0
M  V30 51 H -2.214522 -2.956489 1.783876 0
M  V30 52 H -4.473069 -3.727915 1.372631 0
M  V30 53 H -6.305708 -2.052897 1.165694 0
M  V30 54 H -5.792938 0.281353 1.379264 0
M  V30 55 H 0.323776 -0.952935 -4.101492 0
M  V30 56 H -1.047740 -2.386750 -5.621171 0
M  V30 57 H -1.894022 -4.960105 -2.307961 0
M  V30 58 H -0.572694 -3.562091 -0.869274 0
M  V30 59 H 4.100922 -2.270938 0.822136 0
M  V30 END ATOM
M  V30 BEGIN BOND
M  V30 1 1 1 2
M  V30 2 1 2 3
M  V30 3 1 2 4
M  V30 4 1 4 5
M  V30 5 1 5 6
M  V30 6 2 6 7
M  V30 7 1 7 8
M  V30 8 1 8 9
M  V30 9 1 9 10
M  V30 10 2 10 11
M  V30 11 1 11 12
M  V30 12 2 12 13
M  V30 13 1 13 14
M  V30 14 1 14 15
M  V30 15 1 15 16
M  V30 16 1 16 17
M  V30 17 2 17 18
M  V30 18 1 18 19
M  V30 19 2 19 20
M  V30 20 1 20 21
M  V30 21 2 21 22
M  V30 22 2 14 23
M  V30 23 2 9 24
M  V30 24 1 24 25
M  V30 25 2 25 26
M  V30 26 1 26 27
M  V30 27 2 27 28
M  V30 28 1 28 29
M  V30 29 1 28 30
M  V30 30 2 30 31
M  V30 31 1 24 32
M  V30 32 2 32 33
M  V30 33 1 33 34
M  V30 34 2 34 5
M  V30 35 1 33 8
M  V30 36 1 23 10
M  V30 37 1 31 25
M  V30 38 1 22 17
M  V30 39 1 1 35
M  V30 40 1 1 36
M  V30 41 1 1 37
M  V30 42 1 3 38
M  V30 43 1 3 39
M  V30 44 1 3 40
M  V30 45 1 4 41
M  V30 46 1 4 42
M  V30 47 1 6 43
M  V30 48 1 7 44
M  V30 49 1 11 45
M  V30 50 1 12 46
M  V30 51 1 15 47
M  V30 52 1 16 48
M  V30 53 1 16 49
M  V30 54 1 18 50
M  V30 55 1 19 51
M  V30 56 1 20 52
M  V30 57 1 21 53
M  V30 58 1 22 54
M  V30 59 1 26 55
M  V30 60 1 27 56
M  V30 61 1 30 57
M  V30 62 1 31 58
M  V30 63 1 34 59
M  V30 END BOND
M  V30 END CTAB
M  END
>  <Dataset>  (759) 
ChEMBL_Kinases

>  <Ligand_Instance>  (759) 
nan

>  <PDB_ID>  (759) 
nan

>  <Standardized_SMILES>  (759) 
CN(C)Cc1ccn2c(-c3ccnc(NCc4ccccc4)n3)c(-c3ccc(F)cc3)nc2c1

>  <Name>  (759) 
nan

>  <Pocket>  (759) 
nan

>  <ATP_Site>  (759) 
nan

>  <Peripheral>  (759) 
nan

>  <Num_H_Atoms_ProtBoundConf>  (759) 
nan

>  <Num_Resolved_Atoms>  (759) 
nan

>  <Num_Not_Resolved_Atoms>  (759) 
nan

$$$$
CHEMBL378967
     RDKit          3D

  0  0  0  0  0  0  0  0  0  0999 V3000
M  V30 BEGIN CTAB
M  V30 COUNTS 55 60 0 0 0
M  V30 BEGIN ATOM
M  V30 1 C -1.741866 -3.124443 5.306317 0
M  V30 2 C -0.576600 -2.331561 4.833619 0
M  V30 3 C 0.499040 -2.184024 5.680905 0
M  V30 4 C 1.570253 -1.448809 5.231516 0
M  V30 5 C 1.562893 -0.879766 3.972531 0
M  V30 6 N 2.588366 -0.159893 3.506023 0
M  V30 7 C 2.627738 0.407025 2.303280 0
M  V30 8 O 3.831047 1.072739 2.149490 0
M  V30 9 C 1.586516 0.296173 1.414461 0
M  V30 10 C 1.698425 0.979022 0.137121 0
M  V30 11 N 0.876147 1.091817 -0.884909 0
M  V30 12 C 1.328764 1.810028 -1.912372 0
M  V30 13 C 0.719809 2.118052 -3.126817 0
M  V30 14 C 1.468273 2.894098 -3.987362 0
M  V30 15 C 2.724780 3.323503 -3.651974 0
M  V30 16 C 3.267602 2.974840 -2.418391 0
M  V30 17 C 2.580154 2.196585 -1.494567 0
M  V30 18 N 2.752903 1.684004 -0.283706 0
M  V30 19 C 0.493284 -0.432891 1.823764 0
M  V30 20 N -0.610124 -0.636137 0.957006 0
M  V30 21 C -1.541358 -0.692895 -0.096991 0 CFG=2
M  V30 22 C -2.949559 -1.126800 0.169200 0
M  V30 23 N -3.328291 -2.304276 -0.557688 0
M  V30 24 C -3.298193 -2.107847 -1.993203 0
M  V30 25 C -2.054036 -1.304624 -2.392344 0
M  V30 26 C -1.064217 -1.537440 -1.271674 0
M  V30 27 C -1.121834 -3.035377 -0.961651 0
M  V30 28 C -2.389889 -3.368818 -0.201565 0
M  V30 29 C 0.524146 -0.992998 3.089973 0
M  V30 30 C -0.522687 -1.739233 3.590169 0
M  V30 31 H -1.794312 -4.038387 4.664162 0
M  V30 32 H -2.697130 -2.529854 5.209392 0
M  V30 33 H -1.601864 -3.440520 6.334893 0
M  V30 34 H 0.582780 -2.593355 6.672229 0
M  V30 35 H 2.473349 -1.254974 5.789036 0
M  V30 36 H 4.691023 0.547427 2.121517 0
M  V30 37 H -0.277544 1.739076 -3.315375 0
M  V30 38 H 0.982310 3.128507 -4.933109 0
M  V30 39 H 3.289952 3.930910 -4.345373 0
M  V30 40 H 4.268718 3.305016 -2.126952 0
M  V30 41 H 3.673349 1.911478 0.137557 0
M  V30 42 H -1.330156 -1.165759 1.445853 0
M  V30 43 H -1.650141 0.345796 -0.541121 0
M  V30 44 H -3.101258 -1.404996 1.256483 0
M  V30 45 H -3.711730 -0.341996 -0.112557 0
M  V30 46 H -3.183728 -3.116690 -2.433108 0
M  V30 47 H -4.219559 -1.640324 -2.334586 0
M  V30 48 H -1.651194 -1.631874 -3.370517 0
M  V30 49 H -2.323842 -0.232745 -2.364252 0
M  V30 50 H -0.042244 -1.337439 -1.591965 0
M  V30 51 H -1.199668 -3.543226 -1.946078 0
M  V30 52 H -0.234317 -3.399286 -0.435764 0
M  V30 53 H -2.849364 -4.323428 -0.522201 0
M  V30 54 H -2.230186 -3.363369 0.884935 0
M  V30 55 H -1.419647 -1.930979 3.033988 0
M  V30 END ATOM
M  V30 BEGIN BOND
M  V30 1 1 1 2
M  V30 2 2 2 3
M  V30 3 1 3 4
M  V30 4 2 4 5
M  V30 5 1 5 6
M  V30 6 2 6 7
M  V30 7 1 7 8
M  V30 8 1 7 9
M  V30 9 1 9 10
M  V30 10 2 10 11
M  V30 11 1 11 12
M  V30 12 2 12 13
M  V30 13 1 13 14
M  V30 14 2 14 15
M  V30 15 1 15 16
M  V30 16 2 16 17
M  V30 17 1 17 18
M  V30 18 2 9 19
M  V30 19 1 19 20
M  V30 20 1 20 21
M  V30 21 1 21 22
M  V30 22 1 22 23
M  V30 23 1 23 24
M  V30 24 1 24 25
M  V30 25 1 25 26
M  V30 26 1 26 27
M  V30 27 1 27 28
M  V30 28 1 19 29
M  V30 29 2 29 30
M  V30 30 1 30 2
M  V30 31 1 29 5
M  V30 32 1 18 10
M  V30 33 1 26 21
M  V30 34 1 17 12
M  V30 35 1 28 23
M  V30 36 1 1 31
M  V30 37 1 1 32
M  V30 38 1 1 33
M  V30 39 1 3 34
M  V30 40 1 4 35
M  V30 41 1 8 36
M  V30 42 1 13 37
M  V30 43 1 14 38
M  V30 44 1 15 39
M  V30 45 1 16 40
M  V30 46 1 18 41
M  V30 47 1 20 42
M  V30 48 1 21 43 CFG=3
M  V30 49 1 22 44
M  V30 50 1 22 45
M  V30 51 1 24 46
M  V30 52 1 24 47
M  V30 53 1 25 48
M  V30 54 1 25 49
M  V30 55 1 26 50
M  V30 56 1 27 51
M  V30 57 1 27 52
M  V30 58 1 28 53
M  V30 59 1 28 54
M  V30 60 1 30 55
M  V30 END BOND
M  V30 END CTAB
M  END
>  <Dataset>  (760) 
ChEMBL_Kinases

>  <Ligand_Instance>  (760) 
nan

>  <PDB_ID>  (760) 
nan

>  <Standardized_SMILES>  (760) 
Cc1ccc2nc(O)c(-c3nc4ccccc4[nH]3)c(N[C@@H]3CN4CCC3CC4)c2c1

>  <Name>  (760) 
nan

>  <Pocket>  (760) 
nan

>  <ATP_Site>  (760) 
nan

>  <Peripheral>  (760) 
nan

>  <Num_H_Atoms_ProtBoundConf>  (760) 
nan

>  <Num_Resolved_Atoms>  (760) 
nan

>  <Num_Not_Resolved_Atoms>  (760) 
nan

$$$$
CHEMBL3702290
     RDKit          3D

  0  0  0  0  0  0  0  0  0  0999 V3000
M  V30 BEGIN CTAB
M  V30 COUNTS 51 53 0 0 0
M  V30 BEGIN ATOM
M  V30 1 C 0.144210 -0.963407 -0.011986 0
M  V30 2 C 0.880626 0.038384 0.821232 0
M  V30 3 C 2.092626 0.553303 0.382637 0
M  V30 4 C 2.814080 0.231611 -0.846762 0
M  V30 5 O 2.593135 -0.542817 -1.840598 0
M  V30 6 N 4.065151 0.897466 -1.054755 0
M  V30 7 C 4.845733 0.634594 -2.246557 0
M  V30 8 C 6.105437 1.498263 -2.152841 0
M  V30 9 C 6.819662 1.121916 -0.868979 0
M  V30 10 O 6.932115 1.312594 -3.258281 0
M  V30 11 S 2.633717 1.699480 1.631853 0
M  V30 12 C 1.162465 1.420717 2.712628 0
M  V30 13 N 0.833948 1.966167 3.927607 0
M  V30 14 C -0.305491 1.591870 4.530585 0
M  V30 15 N -1.043284 0.708194 3.899769 0
M  V30 16 C -0.735795 0.171934 2.721543 0
M  V30 17 N -1.704192 -0.769038 2.283408 0
M  V30 18 C -3.058132 -0.484709 1.951032 0
M  V30 19 C -3.554403 0.799328 2.039219 0
M  V30 20 C -4.899799 0.979545 1.706027 0
M  V30 21 C -5.696585 -0.072254 1.307707 0
M  V30 22 N -5.167283 -1.303073 1.237342 0
M  V30 23 C -3.876491 -1.518635 1.549313 0
M  V30 24 O -3.334072 -2.780112 1.475337 0
M  V30 25 C -3.982345 -3.958823 1.105233 0
M  V30 26 C -3.511980 -4.452969 -0.264367 0
M  V30 27 C -3.790565 -5.085822 2.085784 0
M  V30 28 C 0.396619 0.476294 2.013222 0
M  V30 29 H 0.280190 -1.994793 0.333453 0
M  V30 30 H 0.429562 -0.900918 -1.065730 0
M  V30 31 H -0.949353 -0.771913 0.010729 0
M  V30 32 H 4.411234 1.585226 -0.321492 0
M  V30 33 H 4.303384 0.778170 -3.185864 0
M  V30 34 H 5.146279 -0.435783 -2.223960 0
M  V30 35 H 5.760088 2.548289 -2.043024 0
M  V30 36 H 7.762879 0.570174 -1.059917 0
M  V30 37 H 6.188721 0.469977 -0.230694 0
M  V30 38 H 7.053793 2.030200 -0.261377 0
M  V30 39 H 7.532062 0.542760 -3.106117 0
M  V30 40 H -0.376798 2.128781 5.460017 0
M  V30 41 H -1.329081 -1.737708 2.219885 0
M  V30 42 H -2.946009 1.635410 2.348897 0
M  V30 43 H -5.374068 1.963895 1.748524 0
M  V30 44 H -6.734391 0.004922 1.040139 0
M  V30 45 H -5.091460 -3.817627 0.970713 0
M  V30 46 H -4.177448 -4.071884 -1.072210 0
M  V30 47 H -3.651418 -5.552550 -0.259199 0
M  V30 48 H -2.453956 -4.237950 -0.446711 0
M  V30 49 H -4.390078 -5.957383 1.767669 0
M  V30 50 H -2.709913 -5.343815 2.170865 0
M  V30 51 H -4.095625 -4.732188 3.093714 0
M  V30 END ATOM
M  V30 BEGIN BOND
M  V30 1 1 1 2
M  V30 2 2 2 3
M  V30 3 1 3 4
M  V30 4 2 4 5
M  V30 5 1 4 6
M  V30 6 1 6 7
M  V30 7 1 7 8
M  V30 8 1 8 9
M  V30 9 1 8 10
M  V30 10 1 3 11
M  V30 11 1 11 12
M  V30 12 2 12 13
M  V30 13 1 13 14
M  V30 14 2 14 15
M  V30 15 1 15 16
M  V30 16 1 16 17
M  V30 17 1 17 18
M  V30 18 2 18 19
M  V30 19 1 19 20
M  V30 20 2 20 21
M  V30 21 1 21 22
M  V30 22 2 22 23
M  V30 23 1 23 24
M  V30 24 1 24 25
M  V30 25 1 25 26
M  V30 26 1 25 27
M  V30 27 2 16 28
M  V30 28 1 28 2
M  V30 29 1 28 12
M  V30 30 1 23 18
M  V30 31 1 1 29
M  V30 32 1 1 30
M  V30 33 1 1 31
M  V30 34 1 6 32
M  V30 35 1 7 33
M  V30 36 1 7 34
M  V30 37 1 8 35
M  V30 38 1 9 36
M  V30 39 1 9 37
M  V30 40 1 9 38
M  V30 41 1 10 39
M  V30 42 1 14 40
M  V30 43 1 17 41
M  V30 44 1 19 42
M  V30 45 1 20 43
M  V30 46 1 21 44
M  V30 47 1 25 45
M  V30 48 1 26 46
M  V30 49 1 26 47
M  V30 50 1 26 48
M  V30 51 1 27 49
M  V30 52 1 27 50
M  V30 53 1 27 51
M  V30 END BOND
M  V30 END CTAB
M  END
>  <Dataset>  (761) 
ChEMBL_Kinases

>  <Ligand_Instance>  (761) 
nan

>  <PDB_ID>  (761) 
nan

>  <Standardized_SMILES>  (761) 
Cc1c(C(=O)NCC(C)O)sc2ncnc(Nc3cccnc3OC(C)C)c12

>  <Name>  (761) 
nan

>  <Pocket>  (761) 
nan

>  <ATP_Site>  (761) 
nan

>  <Peripheral>  (761) 
nan

>  <Num_H_Atoms_ProtBoundConf>  (761) 
nan

>  <Num_Resolved_Atoms>  (761) 
nan

>  <Num_Not_Resolved_Atoms>  (761) 
nan

$$$$
CHEMBL378955
     RDKit          3D

  0  0  0  0  0  0  0  0  0  0999 V3000
M  V30 BEGIN CTAB
M  V30 COUNTS 47 48 0 0 0
M  V30 BEGIN ATOM
M  V30 1 C 0.429070 -2.832031 2.937819 0
M  V30 2 C 0.176820 -4.084817 2.127863 0
M  V30 3 O -1.102678 -4.058761 1.593065 0
M  V30 4 C -1.651694 -3.161324 0.718724 0
M  V30 5 N -1.136542 -2.048542 0.110628 0
M  V30 6 C -1.877302 -1.315659 -0.722311 0
M  V30 7 C -1.326835 -0.155410 -1.351503 0
M  V30 8 O -1.242643 -0.429859 -2.598967 0
M  V30 9 N -0.812144 1.154234 -1.369109 0
M  V30 10 C -0.403102 1.715467 -2.639201 0
M  V30 11 C -0.631308 2.068240 -0.261933 0
M  V30 12 C 0.687730 1.874726 0.387153 0
M  V30 13 C 1.899413 2.447994 0.086096 0
M  V30 14 C 3.035460 2.163571 0.809806 0
M  V30 15 C 3.037407 1.294455 1.875624 0
M  V30 16 S 4.427108 0.874720 2.846226 0
M  V30 17 C 4.640881 1.956733 4.226277 0
M  V30 18 O 5.700915 0.842743 2.038919 0
M  V30 19 O 4.273345 -0.520327 3.424139 0
M  V30 20 C 1.836878 0.698345 2.209581 0
M  V30 21 C 0.707238 0.992115 1.475926 0
M  V30 22 C -3.185585 -1.610649 -1.029262 0
M  V30 23 C -3.771096 -2.725069 -0.448093 0
M  V30 24 N -5.119895 -3.040711 -0.757078 0
M  V30 25 C -2.967841 -3.448990 0.403625 0
M  V30 26 C -3.657800 -4.597265 0.971376 0
M  V30 27 N -4.211972 -5.519104 1.449765 0
M  V30 28 H 1.461075 -2.880135 3.395012 0
M  V30 29 H -0.321468 -2.824914 3.760019 0
M  V30 30 H 0.396945 -1.935361 2.294463 0
M  V30 31 H 0.915417 -4.127667 1.279156 0
M  V30 32 H 0.313368 -4.973443 2.789511 0
M  V30 33 H 0.715761 1.822610 -2.588120 0
M  V30 34 H -0.636173 1.108118 -3.507884 0
M  V30 35 H -0.767399 2.762992 -2.759333 0
M  V30 36 H -0.690881 3.123301 -0.562492 0
M  V30 37 H -1.460207 1.955024 0.504857 0
M  V30 38 H 1.879978 3.125913 -0.748744 0
M  V30 39 H 3.976837 2.623634 0.557474 0
M  V30 40 H 4.590539 3.032737 3.955606 0
M  V30 41 H 3.920589 1.687052 5.039545 0
M  V30 42 H 5.655840 1.733996 4.654062 0
M  V30 43 H 1.767382 0.009924 3.030560 0
M  V30 44 H -0.224505 0.494462 1.784830 0
M  V30 45 H -3.782038 -1.004566 -1.701534 0
M  V30 46 H -5.294667 -3.268371 -1.758278 0
M  V30 47 H -5.580135 -2.944404 0.187732 0
M  V30 END ATOM
M  V30 BEGIN BOND
M  V30 1 1 1 2
M  V30 2 1 2 3
M  V30 3 1 3 4
M  V30 4 2 4 5
M  V30 5 1 5 6
M  V30 6 1 6 7
M  V30 7 2 7 8
M  V30 8 1 7 9
M  V30 9 1 9 10
M  V30 10 1 9 11
M  V30 11 1 11 12
M  V30 12 2 12 13
M  V30 13 1 13 14
M  V30 14 2 14 15
M  V30 15 1 15 16
M  V30 16 1 16 17
M  V30 17 2 16 18
M  V30 18 2 16 19
M  V30 19 1 15 20
M  V30 20 2 20 21
M  V30 21 2 6 22
M  V30 22 1 22 23
M  V30 23 1 23 24
M  V30 24 2 23 25
M  V30 25 1 25 26
M  V30 26 3 26 27
M  V30 27 1 25 4
M  V30 28 1 21 12
M  V30 29 1 1 28
M  V30 30 1 1 29
M  V30 31 1 1 30
M  V30 32 1 2 31
M  V30 33 1 2 32
M  V30 34 1 10 33
M  V30 35 1 10 34
M  V30 36 1 10 35
M  V30 37 1 11 36
M  V30 38 1 11 37
M  V30 39 1 13 38
M  V30 40 1 14 39
M  V30 41 1 17 40
M  V30 42 1 17 41
M  V30 43 1 17 42
M  V30 44 1 20 43
M  V30 45 1 21 44
M  V30 46 1 22 45
M  V30 47 1 24 46
M  V30 48 1 24 47
M  V30 END BOND
M  V30 END CTAB
M  END
>  <Dataset>  (762) 
ChEMBL_Kinases

>  <Ligand_Instance>  (762) 
nan

>  <PDB_ID>  (762) 
nan

>  <Standardized_SMILES>  (762) 
CCOc1nc(C(=O)N(C)Cc2ccc(S(C)(=O)=O)cc2)cc(N)c1C#N

>  <Name>  (762) 
nan

>  <Pocket>  (762) 
nan

>  <ATP_Site>  (762) 
nan

>  <Peripheral>  (762) 
nan

>  <Num_H_Atoms_ProtBoundConf>  (762) 
nan

>  <Num_Resolved_Atoms>  (762) 
nan

>  <Num_Not_Resolved_Atoms>  (762) 
nan

$$$$
CHEMBL378934
     RDKit          3D

  0  0  0  0  0  0  0  0  0  0999 V3000
M  V30 BEGIN CTAB
M  V30 COUNTS 39 42 0 0 0
M  V30 BEGIN ATOM
M  V30 1 C 0.980097 -4.095418 2.773964 0
M  V30 2 C 0.264010 -3.023949 2.007395 0
M  V30 3 C -1.208552 -3.401171 1.940748 0
M  V30 4 C 0.862921 -2.919532 0.661477 0
M  V30 5 N 1.046099 -3.870214 -0.281624 0
M  V30 6 N 1.623763 -3.340689 -1.348866 0
M  V30 7 C 1.842388 -2.029425 -1.152487 0
M  V30 8 C 2.392549 -1.001178 -1.886254 0
M  V30 9 C 2.486537 0.290914 -1.408705 0
M  V30 10 C 2.001369 0.536015 -0.139597 0
M  V30 11 C 2.020290 1.847916 0.523330 0
M  V30 12 O 2.901375 2.748350 0.926376 0
M  V30 13 C 2.271748 3.751364 1.471831 0
M  V30 14 N 0.943023 3.536439 1.442672 0
M  V30 15 C 0.743944 2.325348 0.841544 0
M  V30 16 C -0.617362 1.830782 0.672635 0
M  V30 17 C -1.205215 1.598151 -0.549513 0
M  V30 18 C -2.494148 1.130347 -0.649673 0
M  V30 19 C -3.182679 0.900222 0.503470 0
M  V30 20 F -4.463933 0.434450 0.370386 0
M  V30 21 C -2.620905 1.123692 1.746887 0
M  V30 22 Cl -3.638369 0.778428 3.149767 0
M  V30 23 C -1.330092 1.592336 1.854513 0
M  V30 24 C 1.458482 -0.534020 0.554699 0
M  V30 25 N 1.368026 -1.808527 0.078318 0
M  V30 26 H 0.365426 -5.038841 2.768054 0
M  V30 27 H 1.973080 -4.280574 2.333664 0
M  V30 28 H 1.095483 -3.799781 3.836965 0
M  V30 29 H 0.295169 -2.022537 2.486312 0
M  V30 30 H -1.854475 -2.499534 1.932509 0
M  V30 31 H -1.423130 -4.045171 1.075279 0
M  V30 32 H -1.433943 -3.981658 2.858886 0
M  V30 33 H 2.773206 -1.189919 -2.880199 0
M  V30 34 H 2.910782 1.125159 -1.952269 0
M  V30 35 H 2.884244 4.553217 1.840883 0
M  V30 36 H -0.624956 1.793410 -1.434993 0
M  V30 37 H -2.947578 0.949929 -1.637647 0
M  V30 38 H -0.946968 1.747452 2.864250 0
M  V30 39 H 1.075261 -0.352587 1.551126 0
M  V30 END ATOM
M  V30 BEGIN BOND
M  V30 1 1 1 2
M  V30 2 1 2 3
M  V30 3 1 2 4
M  V30 4 2 4 5
M  V30 5 1 5 6
M  V30 6 2 6 7
M  V30 7 1 7 8
M  V30 8 2 8 9
M  V30 9 1 9 10
M  V30 10 1 10 11
M  V30 11 1 11 12
M  V30 12 1 12 13
M  V30 13 2 13 14
M  V30 14 1 14 15
M  V30 15 1 15 16
M  V30 16 2 16 17
M  V30 17 1 17 18
M  V30 18 2 18 19
M  V30 19 1 19 20
M  V30 20 1 19 21
M  V30 21 1 21 22
M  V30 22 2 21 23
M  V30 23 2 10 24
M  V30 24 1 24 25
M  V30 25 1 25 4
M  V30 26 1 25 7
M  V30 27 2 15 11
M  V30 28 1 23 16
M  V30 29 1 1 26
M  V30 30 1 1 27
M  V30 31 1 1 28
M  V30 32 1 2 29
M  V30 33 1 3 30
M  V30 34 1 3 31
M  V30 35 1 3 32
M  V30 36 1 8 33
M  V30 37 1 9 34
M  V30 38 1 13 35
M  V30 39 1 17 36
M  V30 40 1 18 37
M  V30 41 1 23 38
M  V30 42 1 24 39
M  V30 END BOND
M  V30 END CTAB
M  END
>  <Dataset>  (763) 
ChEMBL_Kinases

>  <Ligand_Instance>  (763) 
nan

>  <PDB_ID>  (763) 
nan

>  <Standardized_SMILES>  (763) 
CC(C)c1nnc2ccc(-c3ocnc3-c3ccc(F)c(Cl)c3)cn12

>  <Name>  (763) 
nan

>  <Pocket>  (763) 
nan

>  <ATP_Site>  (763) 
nan

>  <Peripheral>  (763) 
nan

>  <Num_H_Atoms_ProtBoundConf>  (763) 
nan

>  <Num_Resolved_Atoms>  (763) 
nan

>  <Num_Not_Resolved_Atoms>  (763) 
nan

$$$$
CHEMBL5074611
     RDKit          3D

  0  0  0  0  0  0  0  0  0  0999 V3000
M  V30 BEGIN CTAB
M  V30 COUNTS 47 50 0 0 0
M  V30 BEGIN ATOM
M  V30 1 C 1.126090 -0.413059 3.266604 0
M  V30 2 N 1.257064 -0.856930 1.882931 0
M  V30 3 C 2.277098 -0.538180 0.951187 0
M  V30 4 N 3.097313 -1.589970 0.730507 0
M  V30 5 C 4.166491 -1.490484 -0.102068 0
M  V30 6 N 4.415249 -0.303193 -0.727344 0
M  V30 7 C 3.622691 0.765876 -0.534716 0
M  V30 8 N 3.616595 2.026164 -1.005944 0
M  V30 9 C 2.564600 2.673128 -0.470468 0
M  V30 10 C 2.126361 3.971220 -0.643574 0
M  V30 11 C 0.994918 4.380899 0.031921 0
M  V30 12 C 0.319435 3.521576 0.856227 0
M  V30 13 Br -1.213004 4.263462 1.699074 0
M  V30 14 C 0.750690 2.225853 1.033946 0
M  V30 15 C 1.863437 1.833009 0.366804 0
M  V30 16 C 2.543777 0.645593 0.312339 0
M  V30 17 C 0.147536 -1.724818 1.530577 0
M  V30 18 C 0.079868 -2.957473 2.416219 0
M  V30 19 C -0.979794 -3.846180 1.839027 0
M  V30 20 C -1.653667 -3.254179 0.626606 0
M  V30 21 N -2.145368 -1.942541 0.903382 0
M  V30 22 C -2.864045 -1.379296 -0.197273 0
M  V30 23 C -4.178852 -2.104952 -0.454130 0
M  V30 24 C -5.049181 -2.043354 0.703986 0
M  V30 25 N -5.755274 -1.973328 1.639648 0
M  V30 26 C -1.174519 -1.045058 1.461453 0
M  V30 27 H 1.505338 -1.249148 3.896745 0
M  V30 28 H 1.803266 0.465005 3.457270 0
M  V30 29 H 0.097983 -0.168121 3.548574 0
M  V30 30 H 4.821572 -2.347693 -0.271898 0
M  V30 31 H 4.353658 2.347384 -1.673372 0
M  V30 32 H 2.687045 4.632837 -1.308507 0
M  V30 33 H 0.713291 5.404178 -0.151124 0
M  V30 34 H 0.132747 1.663437 1.691753 0
M  V30 35 H 0.357448 -2.119397 0.504511 0
M  V30 36 H 1.099880 -3.402938 2.406394 0
M  V30 37 H -0.160684 -2.651470 3.474158 0
M  V30 38 H -1.759940 -3.995542 2.615725 0
M  V30 39 H -0.588843 -4.851981 1.594552 0
M  V30 40 H -1.061654 -3.345228 -0.303898 0
M  V30 41 H -2.553150 -3.911779 0.441966 0
M  V30 42 H -2.310110 -1.276001 -1.134125 0
M  V30 43 H -3.164675 -0.328683 0.088951 0
M  V30 44 H -4.728456 -1.622626 -1.293388 0
M  V30 45 H -3.990164 -3.148481 -0.781572 0
M  V30 46 H -1.083524 -0.184221 0.739600 0
M  V30 47 H -1.536450 -0.697587 2.462358 0
M  V30 END ATOM
M  V30 BEGIN BOND
M  V30 1 1 1 2
M  V30 2 1 2 3
M  V30 3 2 3 4
M  V30 4 1 4 5
M  V30 5 2 5 6
M  V30 6 1 6 7
M  V30 7 1 7 8
M  V30 8 1 8 9
M  V30 9 2 9 10
M  V30 10 1 10 11
M  V30 11 2 11 12
M  V30 12 1 12 13
M  V30 13 1 12 14
M  V30 14 2 14 15
M  V30 15 1 15 16
M  V30 16 1 2 17
M  V30 17 1 17 18
M  V30 18 1 18 19
M  V30 19 1 19 20
M  V30 20 1 20 21
M  V30 21 1 21 22
M  V30 22 1 22 23
M  V30 23 1 23 24
M  V30 24 3 24 25
M  V30 25 1 21 26
M  V30 26 1 16 3
M  V30 27 1 26 17
M  V30 28 2 16 7
M  V30 29 1 15 9
M  V30 30 1 1 27
M  V30 31 1 1 28
M  V30 32 1 1 29
M  V30 33 1 5 30
M  V30 34 1 8 31
M  V30 35 1 10 32
M  V30 36 1 11 33
M  V30 37 1 14 34
M  V30 38 1 17 35
M  V30 39 1 18 36
M  V30 40 1 18 37
M  V30 41 1 19 38
M  V30 42 1 19 39
M  V30 43 1 20 40
M  V30 44 1 20 41
M  V30 45 1 22 42
M  V30 46 1 22 43
M  V30 47 1 23 44
M  V30 48 1 23 45
M  V30 49 1 26 46
M  V30 50 1 26 47
M  V30 END BOND
M  V30 END CTAB
M  END
>  <Dataset>  (764) 
ChEMBL_Kinases

>  <Ligand_Instance>  (764) 
nan

>  <PDB_ID>  (764) 
nan

>  <Standardized_SMILES>  (764) 
CN(c1ncnc2[nH]c3ccc(Br)cc3c12)C1CCCN(CCC#N)C1

>  <Name>  (764) 
nan

>  <Pocket>  (764) 
nan

>  <ATP_Site>  (764) 
nan

>  <Peripheral>  (764) 
nan

>  <Num_H_Atoms_ProtBoundConf>  (764) 
nan

>  <Num_Resolved_Atoms>  (764) 
nan

>  <Num_Not_Resolved_Atoms>  (764) 
nan

$$$$
CHEMBL590516
     RDKit          3D

  0  0  0  0  0  0  0  0  0  0999 V3000
M  V30 BEGIN CTAB
M  V30 COUNTS 55 60 0 0 0
M  V30 BEGIN ATOM
M  V30 1 N 1.113233 0.883054 7.186057 0
M  V30 2 C -0.039391 0.316032 6.579693 0
M  V30 3 O -1.080935 0.100594 7.253421 0
M  V30 4 C 0.000932 -0.018845 5.141566 0
M  V30 5 N 1.073474 0.172226 4.320447 0
M  V30 6 N 0.785783 -0.230569 3.094566 0
M  V30 7 C 1.753776 -0.126454 2.072524 0
M  V30 8 C 2.714725 -1.072179 1.688257 0
M  V30 9 C 3.590407 -0.783835 0.666852 0
M  V30 10 C 3.553453 0.418218 0.001332 0
M  V30 11 C 2.627689 1.377179 0.343602 0
M  V30 12 C 1.740879 1.075823 1.383440 0
M  V30 13 O 2.812552 2.475665 -0.477572 0
M  V30 14 C 4.122358 2.346556 -1.017371 0
M  V30 15 O 4.309089 0.942132 -1.040605 0
M  V30 16 C -0.470814 -0.684814 3.108858 0
M  V30 17 C -1.009008 -0.574453 4.369259 0
M  V30 18 C -2.359042 -0.947811 4.855243 0
M  V30 19 C -3.222860 -1.526990 3.772882 0
M  V30 20 C -2.569922 -1.611257 2.445380 0
M  V30 21 C -3.404326 -2.152374 1.469752 0
M  V30 22 C -2.934616 -2.297913 0.166177 0
M  V30 23 C -1.659693 -1.920783 -0.193923 0
M  V30 24 N -1.255458 -2.102366 -1.547532 0
M  V30 25 C -1.389193 -1.177837 -2.613405 0
M  V30 26 O -1.902983 -0.051567 -2.460999 0
M  V30 27 C -0.927158 -1.501716 -3.956835 0
M  V30 28 C -0.333413 -2.684473 -4.340337 0
M  V30 29 C 0.078288 -2.916510 -5.636271 0
M  V30 30 C -0.107559 -1.926395 -6.601992 0
M  V30 31 N -0.685362 -0.763313 -6.249962 0
M  V30 32 C -1.084428 -0.557683 -4.960007 0
M  V30 33 N -1.677770 0.721266 -4.746676 0
M  V30 34 C -0.846495 -1.386561 0.785105 0
M  V30 35 C -1.300060 -1.239329 2.071431 0
M  V30 36 H 2.087832 0.684471 7.558161 0
M  V30 37 H 1.567143 1.744259 7.557137 0
M  V30 38 H 2.670921 -1.987242 2.264961 0
M  V30 39 H 4.307060 -1.550273 0.415961 0
M  V30 40 H 1.025996 1.876718 1.612501 0
M  V30 41 H 4.174615 2.790039 -2.044893 0
M  V30 42 H 4.898789 2.818758 -0.386160 0
M  V30 43 H -2.252748 -1.706383 5.682219 0
M  V30 44 H -2.899395 -0.050002 5.267840 0
M  V30 45 H -4.183019 -0.961069 3.708447 0
M  V30 46 H -3.564370 -2.559293 4.100192 0
M  V30 47 H -4.422633 -2.481820 1.641199 0
M  V30 48 H -3.582371 -2.718940 -0.595122 0
M  V30 49 H -0.825669 -3.044886 -1.674416 0
M  V30 50 H -0.199360 -3.437483 -3.575713 0
M  V30 51 H 0.533940 -3.888116 -5.818571 0
M  V30 52 H 0.226891 -2.140867 -7.609236 0
M  V30 53 H -1.122610 1.434597 -4.228805 0
M  V30 54 H -2.649029 0.769833 -5.165661 0
M  V30 55 H 0.136942 -1.105957 0.464853 0
M  V30 END ATOM
M  V30 BEGIN BOND
M  V30 1 1 1 2
M  V30 2 2 2 3
M  V30 3 1 2 4
M  V30 4 2 4 5
M  V30 5 1 5 6
M  V30 6 1 6 7
M  V30 7 2 7 8
M  V30 8 1 8 9
M  V30 9 2 9 10
M  V30 10 1 10 11
M  V30 11 2 11 12
M  V30 12 1 11 13
M  V30 13 1 13 14
M  V30 14 1 14 15
M  V30 15 1 6 16
M  V30 16 2 16 17
M  V30 17 1 17 18
M  V30 18 1 18 19
M  V30 19 1 19 20
M  V30 20 2 20 21
M  V30 21 1 21 22
M  V30 22 2 22 23
M  V30 23 1 23 24
M  V30 24 1 24 25
M  V30 25 2 25 26
M  V30 26 1 25 27
M  V30 27 2 27 28
M  V30 28 1 28 29
M  V30 29 2 29 30
M  V30 30 1 30 31
M  V30 31 2 31 32
M  V30 32 1 32 33
M  V30 33 1 23 34
M  V30 34 2 34 35
M  V30 35 1 17 4
M  V30 36 1 35 20
M  V30 37 1 12 7
M  V30 38 1 35 16
M  V30 39 1 15 10
M  V30 40 1 32 27
M  V30 41 1 1 36
M  V30 42 1 1 37
M  V30 43 1 8 38
M  V30 44 1 9 39
M  V30 45 1 12 40
M  V30 46 1 14 41
M  V30 47 1 14 42
M  V30 48 1 18 43
M  V30 49 1 18 44
M  V30 50 1 19 45
M  V30 51 1 19 46
M  V30 52 1 21 47
M  V30 53 1 22 48
M  V30 54 1 24 49
M  V30 55 1 28 50
M  V30 56 1 29 51
M  V30 57 1 30 52
M  V30 58 1 33 53
M  V30 59 1 33 54
M  V30 60 1 34 55
M  V30 END BOND
M  V30 END CTAB
M  END
>  <Dataset>  (765) 
ChEMBL_Kinases

>  <Ligand_Instance>  (765) 
nan

>  <PDB_ID>  (765) 
nan

>  <Standardized_SMILES>  (765) 
NC(=O)c1nn(-c2ccc3c(c2)OCO3)c2c1CCc1ccc(NC(=O)c3cccnc3N)cc1-2

>  <Name>  (765) 
nan

>  <Pocket>  (765) 
nan

>  <ATP_Site>  (765) 
nan

>  <Peripheral>  (765) 
nan

>  <Num_H_Atoms_ProtBoundConf>  (765) 
nan

>  <Num_Resolved_Atoms>  (765) 
nan

>  <Num_Not_Resolved_Atoms>  (765) 
nan

$$$$
CHEMBL3702279
     RDKit          3D

  0  0  0  0  0  0  0  0  0  0999 V3000
M  V30 BEGIN CTAB
M  V30 COUNTS 54 56 0 0 0
M  V30 BEGIN ATOM
M  V30 1 C 0.347222 -0.243779 0.882845 0
M  V30 2 C 0.069496 1.056548 1.562640 0
M  V30 3 C 1.131521 1.541179 2.209674 0
M  V30 4 C 2.549684 1.241996 2.513755 0
M  V30 5 O 3.234609 2.053994 3.227619 0
M  V30 6 N 3.353983 0.165670 2.148633 0
M  V30 7 C 4.737836 0.070172 2.562741 0
M  V30 8 C 5.295158 -1.218452 1.980521 0
M  V30 9 C 5.214995 -1.215785 0.473476 0
M  V30 10 C 5.764328 -2.499761 -0.135653 0
M  V30 11 O 5.657300 -2.425408 -1.540022 0
M  V30 12 S 0.543417 3.050610 2.903018 0
M  V30 13 C -1.088498 2.935695 2.280577 0
M  V30 14 N -2.177104 3.758399 2.392665 0
M  V30 15 C -3.342462 3.438188 1.803548 0
M  V30 16 N -3.322165 2.292963 1.133971 0
M  V30 17 C -2.257222 1.486535 1.022861 0
M  V30 18 N -2.617520 0.366255 0.235985 0
M  V30 19 C -3.319512 -0.782001 0.754283 0
M  V30 20 C -3.657870 -0.799479 2.073705 0
M  V30 21 C -4.336059 -1.903456 2.551924 0
M  V30 22 C -4.640592 -2.941562 1.666404 0
M  V30 23 N -4.279327 -2.871223 0.363743 0
M  V30 24 C -3.616796 -1.801336 -0.119443 0
M  V30 25 O -3.221764 -1.677959 -1.448617 0
M  V30 26 C -3.461713 -2.632401 -2.439340 0
M  V30 27 C -2.083317 -3.171758 -2.847552 0
M  V30 28 C -4.089879 -2.099161 -3.694069 0
M  V30 29 C -1.047908 1.788421 1.616342 0
M  V30 30 H -0.516806 -0.649331 0.324630 0
M  V30 31 H 1.129912 -0.117170 0.093015 0
M  V30 32 H 0.592000 -1.037073 1.625754 0
M  V30 33 H 2.896942 -0.561744 1.562564 0
M  V30 34 H 4.887387 0.129467 3.647452 0
M  V30 35 H 5.352218 0.909050 2.126695 0
M  V30 36 H 6.346817 -1.300576 2.295538 0
M  V30 37 H 4.731696 -2.101613 2.351977 0
M  V30 38 H 5.879917 -0.403078 0.068146 0
M  V30 39 H 4.216932 -1.018857 0.074548 0
M  V30 40 H 5.108736 -3.349262 0.185448 0
M  V30 41 H 6.821518 -2.665679 0.082500 0
M  V30 42 H 4.877669 -1.848516 -1.783040 0
M  V30 43 H -4.131172 4.154048 1.956479 0
M  V30 44 H -2.305513 0.503090 -0.749539 0
M  V30 45 H -3.412949 0.016169 2.745976 0
M  V30 46 H -4.650412 -2.026605 3.557623 0
M  V30 47 H -5.176205 -3.840105 1.984289 0
M  V30 48 H -4.043603 -3.495818 -2.029476 0
M  V30 49 H -2.160859 -3.940848 -3.619517 0
M  V30 50 H -1.450327 -2.320792 -3.203660 0
M  V30 51 H -1.633827 -3.569961 -1.916058 0
M  V30 52 H -4.744608 -2.885439 -4.152116 0
M  V30 53 H -4.748587 -1.220946 -3.486432 0
M  V30 54 H -3.315757 -1.844968 -4.470330 0
M  V30 END ATOM
M  V30 BEGIN BOND
M  V30 1 1 1 2
M  V30 2 2 2 3
M  V30 3 1 3 4
M  V30 4 2 4 5
M  V30 5 1 4 6
M  V30 6 1 6 7
M  V30 7 1 7 8
M  V30 8 1 8 9
M  V30 9 1 9 10
M  V30 10 1 10 11
M  V30 11 1 3 12
M  V30 12 1 12 13
M  V30 13 2 13 14
M  V30 14 1 14 15
M  V30 15 2 15 16
M  V30 16 1 16 17
M  V30 17 1 17 18
M  V30 18 1 18 19
M  V30 19 2 19 20
M  V30 20 1 20 21
M  V30 21 2 21 22
M  V30 22 1 22 23
M  V30 23 2 23 24
M  V30 24 1 24 25
M  V30 25 1 25 26
M  V30 26 1 26 27
M  V30 27 1 26 28
M  V30 28 2 17 29
M  V30 29 1 29 2
M  V30 30 1 29 13
M  V30 31 1 24 19
M  V30 32 1 1 30
M  V30 33 1 1 31
M  V30 34 1 1 32
M  V30 35 1 6 33
M  V30 36 1 7 34
M  V30 37 1 7 35
M  V30 38 1 8 36
M  V30 39 1 8 37
M  V30 40 1 9 38
M  V30 41 1 9 39
M  V30 42 1 10 40
M  V30 43 1 10 41
M  V30 44 1 11 42
M  V30 45 1 15 43
M  V30 46 1 18 44
M  V30 47 1 20 45
M  V30 48 1 21 46
M  V30 49 1 22 47
M  V30 50 1 26 48
M  V30 51 1 27 49
M  V30 52 1 27 50
M  V30 53 1 27 51
M  V30 54 1 28 52
M  V30 55 1 28 53
M  V30 56 1 28 54
M  V30 END BOND
M  V30 END CTAB
M  END
>  <Dataset>  (766) 
ChEMBL_Kinases

>  <Ligand_Instance>  (766) 
nan

>  <PDB_ID>  (766) 
nan

>  <Standardized_SMILES>  (766) 
Cc1c(C(=O)NCCCCO)sc2ncnc(Nc3cccnc3OC(C)C)c12

>  <Name>  (766) 
nan

>  <Pocket>  (766) 
nan

>  <ATP_Site>  (766) 
nan

>  <Peripheral>  (766) 
nan

>  <Num_H_Atoms_ProtBoundConf>  (766) 
nan

>  <Num_Resolved_Atoms>  (766) 
nan

>  <Num_Not_Resolved_Atoms>  (766) 
nan

$$$$
CHEMBL3702280
     RDKit          3D

  0  0  0  0  0  0  0  0  0  0999 V3000
M  V30 BEGIN CTAB
M  V30 COUNTS 47 49 0 0 0
M  V30 BEGIN ATOM
M  V30 1 C 2.510464 -6.430915 2.410307 0
M  V30 2 C 1.080151 -6.276808 1.896229 0
M  V30 3 N 0.876431 -4.951053 1.357126 0
M  V30 4 C 1.568738 -4.395961 0.274207 0
M  V30 5 O 2.394307 -5.293894 -0.138281 0
M  V30 6 C 1.521822 -3.137819 -0.384108 0
M  V30 7 S 2.621948 -2.924756 -1.752729 0
M  V30 8 C 2.186459 -1.266222 -2.183318 0
M  V30 9 N 2.597251 -0.423013 -3.126858 0
M  V30 10 C 2.084323 0.814999 -3.239135 0
M  V30 11 N 1.143735 1.108330 -2.331616 0
M  V30 12 C 0.709122 0.286369 -1.372841 0
M  V30 13 N -0.288336 0.905068 -0.575217 0
M  V30 14 C 0.208352 1.811847 0.401729 0
M  V30 15 C 1.548390 2.113958 0.544830 0
M  V30 16 C 2.017726 2.995592 1.496743 0
M  V30 17 C 1.128341 3.627405 2.370097 0
M  V30 18 N -0.172758 3.339484 2.239084 0
M  V30 19 C -0.636227 2.468031 1.297725 0
M  V30 20 O -1.987120 2.208531 1.211018 0
M  V30 21 C -2.964206 2.762099 2.033615 0
M  V30 22 C -3.659077 1.748076 2.913044 0
M  V30 23 C -3.953076 3.649303 1.316837 0
M  V30 24 C 1.225008 -0.985009 -1.246484 0
M  V30 25 C 0.884420 -1.939544 -0.326898 0
M  V30 26 C -0.110084 -1.873410 0.772888 0
M  V30 27 H 2.860167 -7.433031 2.129971 0
M  V30 28 H 3.190743 -5.667707 2.022576 0
M  V30 29 H 2.485281 -6.385573 3.530230 0
M  V30 30 H 0.362906 -6.436302 2.719340 0
M  V30 31 H 0.892079 -7.064012 1.125971 0
M  V30 32 H 0.162270 -4.317361 1.776362 0
M  V30 33 H 2.536551 1.348847 -4.055207 0
M  V30 34 H -1.333976 0.781266 -0.621996 0
M  V30 35 H 2.285767 1.642638 -0.118092 0
M  V30 36 H 3.062292 3.244068 1.621931 0
M  V30 37 H 1.382310 4.335403 3.152090 0
M  V30 38 H -2.425169 3.442193 2.762727 0
M  V30 39 H -3.193820 0.740103 2.875242 0
M  V30 40 H -4.694110 1.633754 2.528327 0
M  V30 41 H -3.762737 2.086428 3.974329 0
M  V30 42 H -4.373047 3.188089 0.422874 0
M  V30 43 H -4.773210 3.847742 2.058773 0
M  V30 44 H -3.406755 4.608705 1.115705 0
M  V30 45 H 0.377970 -1.988711 1.769760 0
M  V30 46 H -0.953405 -2.593100 0.610537 0
M  V30 47 H -0.628124 -0.898399 0.862149 0
M  V30 END ATOM
M  V30 BEGIN BOND
M  V30 1 1 1 2
M  V30 2 1 2 3
M  V30 3 1 3 4
M  V30 4 2 4 5
M  V30 5 1 4 6
M  V30 6 1 6 7
M  V30 7 1 7 8
M  V30 8 2 8 9
M  V30 9 1 9 10
M  V30 10 2 10 11
M  V30 11 1 11 12
M  V30 12 1 12 13
M  V30 13 1 13 14
M  V30 14 2 14 15
M  V30 15 1 15 16
M  V30 16 2 16 17
M  V30 17 1 17 18
M  V30 18 2 18 19
M  V30 19 1 19 20
M  V30 20 1 20 21
M  V30 21 1 21 22
M  V30 22 1 21 23
M  V30 23 2 12 24
M  V30 24 1 24 25
M  V30 25 1 25 26
M  V30 26 2 25 6
M  V30 27 1 24 8
M  V30 28 1 19 14
M  V30 29 1 1 27
M  V30 30 1 1 28
M  V30 31 1 1 29
M  V30 32 1 2 30
M  V30 33 1 2 31
M  V30 34 1 3 32
M  V30 35 1 10 33
M  V30 36 1 13 34
M  V30 37 1 15 35
M  V30 38 1 16 36
M  V30 39 1 17 37
M  V30 40 1 21 38
M  V30 41 1 22 39
M  V30 42 1 22 40
M  V30 43 1 22 41
M  V30 44 1 23 42
M  V30 45 1 23 43
M  V30 46 1 23 44
M  V30 47 1 26 45
M  V30 48 1 26 46
M  V30 49 1 26 47
M  V30 END BOND
M  V30 END CTAB
M  END
>  <Dataset>  (767) 
ChEMBL_Kinases

>  <Ligand_Instance>  (767) 
nan

>  <PDB_ID>  (767) 
nan

>  <Standardized_SMILES>  (767) 
CCNC(=O)c1sc2ncnc(Nc3cccnc3OC(C)C)c2c1C

>  <Name>  (767) 
nan

>  <Pocket>  (767) 
nan

>  <ATP_Site>  (767) 
nan

>  <Peripheral>  (767) 
nan

>  <Num_H_Atoms_ProtBoundConf>  (767) 
nan

>  <Num_Resolved_Atoms>  (767) 
nan

>  <Num_Not_Resolved_Atoms>  (767) 
nan

$$$$
CHEMBL3702281
     RDKit          3D

  0  0  0  0  0  0  0  0  0  0999 V3000
M  V30 BEGIN CTAB
M  V30 COUNTS 63 66 0 0 0
M  V30 BEGIN ATOM
M  V30 1 C 0.193410 -1.988106 0.561089 0
M  V30 2 C 1.044096 -2.300299 -0.614854 0
M  V30 3 C 2.153991 -1.536854 -0.625795 0
M  V30 4 C 2.827514 -0.461964 0.066899 0
M  V30 5 O 3.942127 -0.021739 -0.377848 0
M  V30 6 N 2.487279 0.274956 1.229438 0
M  V30 7 C 3.251088 1.332684 1.793472 0
M  V30 8 C 3.430821 2.510986 0.876041 0
M  V30 9 C 2.123326 3.134058 0.462590 0
M  V30 10 N 1.345134 3.639368 1.560659 0
M  V30 11 C 1.942028 4.796456 2.188005 0
M  V30 12 C 0.957445 5.953487 2.237495 0
M  V30 13 O 0.631713 6.400056 0.956816 0
M  V30 14 C 0.091369 5.325570 0.255899 0
M  V30 15 C 0.044548 4.045778 1.063687 0
M  V30 16 S 3.038391 -2.092351 -2.062603 0
M  V30 17 C 1.861407 -3.333244 -2.589420 0
M  V30 18 N 1.749624 -4.209223 -3.610072 0
M  V30 19 C 0.685473 -5.016387 -3.738051 0
M  V30 20 N -0.266899 -4.912933 -2.798831 0
M  V30 21 C -0.215854 -4.064817 -1.760725 0
M  V30 22 N -1.369936 -4.157431 -0.944056 0
M  V30 23 C -1.851845 -5.139191 -0.053335 0
M  V30 24 C -1.211828 -6.350336 0.067484 0
M  V30 25 C -1.751905 -7.242662 0.983876 0
M  V30 26 C -2.859458 -6.921660 1.718825 0
M  V30 27 N -3.411319 -5.715603 1.530840 0
M  V30 28 C -2.960237 -4.780231 0.665983 0
M  V30 29 O -3.751647 -3.739527 0.769463 0
M  V30 30 C -4.094437 -2.497085 0.411442 0
M  V30 31 C -3.959274 -1.491755 1.595128 0
M  V30 32 C -5.559917 -2.337535 -0.023803 0
M  V30 33 C 0.901078 -3.218921 -1.628131 0
M  V30 34 H -0.689263 -2.634298 0.690198 0
M  V30 35 H -0.184127 -0.959351 0.468403 0
M  V30 36 H 0.769173 -2.146814 1.511824 0
M  V30 37 H 1.594575 -0.005990 1.682275 0
M  V30 38 H 2.801885 1.658418 2.751704 0
M  V30 39 H 4.258455 0.949899 2.066424 0
M  V30 40 H 3.981533 2.226301 -0.021597 0
M  V30 41 H 4.020938 3.281703 1.415095 0
M  V30 42 H 2.393688 4.026005 -0.179086 0
M  V30 43 H 1.501872 2.485589 -0.179693 0
M  V30 44 H 2.267872 4.626128 3.226544 0
M  V30 45 H 2.777252 5.140987 1.514221 0
M  V30 46 H 1.495490 6.795121 2.742531 0
M  V30 47 H 0.036075 5.723169 2.788088 0
M  V30 48 H -0.957385 5.547725 -0.061744 0
M  V30 49 H 0.639695 5.115297 -0.684062 0
M  V30 50 H -0.743373 4.059070 1.846629 0
M  V30 51 H -0.283395 3.256102 0.323034 0
M  V30 52 H 0.699473 -5.678603 -4.591368 0
M  V30 53 H -1.740984 -3.249450 -1.266073 0
M  V30 54 H -0.336729 -6.576545 -0.529044 0
M  V30 55 H -1.221721 -8.184670 1.050485 0
M  V30 56 H -3.154355 -7.728502 2.389879 0
M  V30 57 H -3.488002 -2.076655 -0.409194 0
M  V30 58 H -3.701529 -0.502630 1.174544 0
M  V30 59 H -3.178027 -1.863553 2.303622 0
M  V30 60 H -4.914589 -1.397211 2.133114 0
M  V30 61 H -5.750461 -1.225692 0.000028 0
M  V30 62 H -6.241727 -2.778929 0.734843 0
M  V30 63 H -5.745083 -2.698734 -1.038937 0
M  V30 END ATOM
M  V30 BEGIN BOND
M  V30 1 1 1 2
M  V30 2 2 2 3
M  V30 3 1 3 4
M  V30 4 2 4 5
M  V30 5 1 4 6
M  V30 6 1 6 7
M  V30 7 1 7 8
M  V30 8 1 8 9
M  V30 9 1 9 10
M  V30 10 1 10 11
M  V30 11 1 11 12
M  V30 12 1 12 13
M  V30 13 1 13 14
M  V30 14 1 14 15
M  V30 15 1 3 16
M  V30 16 1 16 17
M  V30 17 2 17 18
M  V30 18 1 18 19
M  V30 19 2 19 20
M  V30 20 1 20 21
M  V30 21 1 21 22
M  V30 22 1 22 23
M  V30 23 2 23 24
M  V30 24 1 24 25
M  V30 25 2 25 26
M  V30 26 1 26 27
M  V30 27 2 27 28
M  V30 28 1 28 29
M  V30 29 1 29 30
M  V30 30 1 30 31
M  V30 31 1 30 32
M  V30 32 2 21 33
M  V30 33 1 33 2
M  V30 34 1 15 10
M  V30 35 1 33 17
M  V30 36 1 28 23
M  V30 37 1 1 34
M  V30 38 1 1 35
M  V30 39 1 1 36
M  V30 40 1 6 37
M  V30 41 1 7 38
M  V30 42 1 7 39
M  V30 43 1 8 40
M  V30 44 1 8 41
M  V30 45 1 9 42
M  V30 46 1 9 43
M  V30 47 1 11 44
M  V30 48 1 11 45
M  V30 49 1 12 46
M  V30 50 1 12 47
M  V30 51 1 14 48
M  V30 52 1 14 49
M  V30 53 1 15 50
M  V30 54 1 15 51
M  V30 55 1 19 52
M  V30 56 1 22 53
M  V30 57 1 24 54
M  V30 58 1 25 55
M  V30 59 1 26 56
M  V30 60 1 30 57
M  V30 61 1 31 58
M  V30 62 1 31 59
M  V30 63 1 31 60
M  V30 64 1 32 61
M  V30 65 1 32 62
M  V30 66 1 32 63
M  V30 END BOND
M  V30 END CTAB
M  END
>  <Dataset>  (768) 
ChEMBL_Kinases

>  <Ligand_Instance>  (768) 
nan

>  <PDB_ID>  (768) 
nan

>  <Standardized_SMILES>  (768) 
Cc1c(C(=O)NCCCN2CCOCC2)sc2ncnc(Nc3cccnc3OC(C)C)c12

>  <Name>  (768) 
nan

>  <Pocket>  (768) 
nan

>  <ATP_Site>  (768) 
nan

>  <Peripheral>  (768) 
nan

>  <Num_H_Atoms_ProtBoundConf>  (768) 
nan

>  <Num_Resolved_Atoms>  (768) 
nan

>  <Num_Not_Resolved_Atoms>  (768) 
nan

$$$$
CHEMBL3702282
     RDKit          3D

  0  0  0  0  0  0  0  0  0  0999 V3000
M  V30 BEGIN CTAB
M  V30 COUNTS 57 60 0 0 0
M  V30 BEGIN ATOM
M  V30 1 C -0.010195 -0.997611 0.789698 0
M  V30 2 C -0.494241 -0.105357 1.866309 0
M  V30 3 C 0.439053 0.847806 2.262686 0
M  V30 4 C 1.764928 1.275948 1.970300 0
M  V30 5 O 2.237391 2.266106 2.632344 0
M  V30 6 N 2.745664 0.833629 1.059994 0
M  V30 7 C 4.075380 1.272319 0.767822 0
M  V30 8 C 4.069713 2.712694 0.282754 0
M  V30 9 C 3.234337 2.717372 -0.977776 0
M  V30 10 N 3.975332 2.305665 -2.150133 0
M  V30 11 C 4.977552 3.315333 -2.412039 0
M  V30 12 C 5.319447 3.988782 -1.107897 0
M  V30 13 O 5.335878 3.155984 -0.016864 0
M  V30 14 S -0.408345 1.752565 3.533066 0
M  V30 15 C -1.947925 0.841415 3.488303 0
M  V30 16 N -3.083044 0.949498 4.170049 0
M  V30 17 C -4.105791 0.123228 3.931795 0
M  V30 18 N -3.883605 -0.788818 2.976504 0
M  V30 19 C -2.754642 -0.923583 2.274402 0
M  V30 20 N -2.877774 -1.987527 1.347016 0
M  V30 21 C -2.705058 -3.400890 1.594156 0
M  V30 22 C -2.396440 -3.812536 2.871630 0
M  V30 23 C -2.238885 -5.170418 3.058754 0
M  V30 24 C -2.401318 -6.011968 1.957542 0
M  V30 25 N -2.700826 -5.558512 0.739958 0
M  V30 26 C -2.866448 -4.228082 0.503707 0
M  V30 27 O -3.177300 -3.694398 -0.739608 0
M  V30 28 C -3.350838 -4.469472 -1.888425 0
M  V30 29 C -4.741755 -4.185839 -2.435645 0
M  V30 30 C -2.369960 -4.106612 -2.985691 0
M  V30 31 C -1.696584 -0.079365 2.510823 0
M  V30 32 H -0.762771 -1.708696 0.400448 0
M  V30 33 H 0.200649 -0.343593 -0.103580 0
M  V30 34 H 0.864323 -1.599891 1.105234 0
M  V30 35 H 2.426510 0.020988 0.487950 0
M  V30 36 H 4.536851 0.680503 -0.017029 0
M  V30 37 H 4.759511 1.172841 1.658901 0
M  V30 38 H 3.589162 3.313604 1.086280 0
M  V30 39 H 2.329707 2.071148 -0.862499 0
M  V30 40 H 2.933228 3.783283 -1.158427 0
M  V30 41 H 3.259364 2.291380 -2.928956 0
M  V30 42 H 5.863972 2.817791 -2.861063 0
M  V30 43 H 4.561922 4.050917 -3.133999 0
M  V30 44 H 4.629723 4.860982 -0.943643 0
M  V30 45 H 6.344148 4.445666 -1.284596 0
M  V30 46 H -5.016819 0.232342 4.499062 0
M  V30 47 H -3.125959 -1.597931 0.429485 0
M  V30 48 H -2.283209 -3.124125 3.678440 0
M  V30 49 H -1.994170 -5.532105 4.059616 0
M  V30 50 H -2.268947 -7.067580 2.150394 0
M  V30 51 H -3.223534 -5.574271 -1.720146 0
M  V30 52 H -4.859057 -4.864878 -3.319190 0
M  V30 53 H -5.528126 -4.345315 -1.675730 0
M  V30 54 H -4.711455 -3.162200 -2.834089 0
M  V30 55 H -2.609102 -3.135014 -3.432371 0
M  V30 56 H -2.504314 -4.847208 -3.816982 0
M  V30 57 H -1.313292 -4.189744 -2.647956 0
M  V30 END ATOM
M  V30 BEGIN BOND
M  V30 1 1 1 2
M  V30 2 2 2 3
M  V30 3 1 3 4
M  V30 4 2 4 5
M  V30 5 1 4 6
M  V30 6 1 6 7
M  V30 7 1 7 8
M  V30 8 1 8 9
M  V30 9 1 9 10
M  V30 10 1 10 11
M  V30 11 1 11 12
M  V30 12 1 12 13
M  V30 13 1 3 14
M  V30 14 1 14 15
M  V30 15 2 15 16
M  V30 16 1 16 17
M  V30 17 2 17 18
M  V30 18 1 18 19
M  V30 19 1 19 20
M  V30 20 1 20 21
M  V30 21 2 21 22
M  V30 22 1 22 23
M  V30 23 2 23 24
M  V30 24 1 24 25
M  V30 25 2 25 26
M  V30 26 1 26 27
M  V30 27 1 27 28
M  V30 28 1 28 29
M  V30 29 1 28 30
M  V30 30 2 19 31
M  V30 31 1 31 2
M  V30 32 1 13 8
M  V30 33 1 31 15
M  V30 34 1 26 21
M  V30 35 1 1 32
M  V30 36 1 1 33
M  V30 37 1 1 34
M  V30 38 1 6 35
M  V30 39 1 7 36
M  V30 40 1 7 37
M  V30 41 1 8 38
M  V30 42 1 9 39
M  V30 43 1 9 40
M  V30 44 1 10 41
M  V30 45 1 11 42
M  V30 46 1 11 43
M  V30 47 1 12 44
M  V30 48 1 12 45
M  V30 49 1 17 46
M  V30 50 1 20 47
M  V30 51 1 22 48
M  V30 52 1 23 49
M  V30 53 1 24 50
M  V30 54 1 28 51
M  V30 55 1 29 52
M  V30 56 1 29 53
M  V30 57 1 29 54
M  V30 58 1 30 55
M  V30 59 1 30 56
M  V30 60 1 30 57
M  V30 END BOND
M  V30 END CTAB
M  END
>  <Dataset>  (769) 
ChEMBL_Kinases

>  <Ligand_Instance>  (769) 
nan

>  <PDB_ID>  (769) 
nan

>  <Standardized_SMILES>  (769) 
Cc1c(C(=O)NCC2CNCCO2)sc2ncnc(Nc3cccnc3OC(C)C)c12

>  <Name>  (769) 
nan

>  <Pocket>  (769) 
nan

>  <ATP_Site>  (769) 
nan

>  <Peripheral>  (769) 
nan

>  <Num_H_Atoms_ProtBoundConf>  (769) 
nan

>  <Num_Resolved_Atoms>  (769) 
nan

>  <Num_Not_Resolved_Atoms>  (769) 
nan

$$$$
CHEMBL3702283
     RDKit          3D

  0  0  0  0  0  0  0  0  0  0999 V3000
M  V30 BEGIN CTAB
M  V30 COUNTS 50 53 0 0 0
M  V30 BEGIN ATOM
M  V30 1 C 0.855540 -0.802654 0.539427 0
M  V30 2 C 1.410255 0.307922 1.332955 0
M  V30 3 C 2.832488 0.397568 1.436438 0
M  V30 4 C 4.007875 -0.209319 0.977068 0
M  V30 5 O 5.121298 0.278409 1.387891 0
M  V30 6 N 4.397623 -1.256711 0.149211 0
M  V30 7 C 5.747402 -1.669168 -0.146875 0 CFG=1
M  V30 8 C 5.925285 -3.202279 -0.061419 0
M  V30 9 C 6.035708 -2.458256 -1.360823 0 CFG=2
M  V30 10 N 7.383870 -2.370090 -1.887194 0
M  V30 11 S 3.078497 1.741456 2.505589 0
M  V30 12 C 1.394719 2.192821 2.821958 0
M  V30 13 N 0.817476 3.140257 3.562140 0
M  V30 14 C -0.517015 3.256082 3.622974 0
M  V30 15 N -1.156642 2.362521 2.895224 0
M  V30 16 C -0.647488 1.414376 2.152016 0
M  V30 17 N -1.656413 0.681851 1.512589 0
M  V30 18 C -3.020257 0.474654 1.832087 0
M  V30 19 C -3.651708 0.984704 2.945067 0
M  V30 20 C -4.994101 0.799890 3.281618 0
M  V30 21 C -5.734511 0.025818 2.392839 0
M  V30 22 N -5.157540 -0.487436 1.300476 0
M  V30 23 C -3.856805 -0.274046 1.029822 0
M  V30 24 O -3.361701 -0.847734 -0.120445 0
M  V30 25 C -4.069552 -1.628645 -1.033833 0
M  V30 26 C -3.422621 -2.968424 -1.291189 0
M  V30 27 C -4.048896 -0.889414 -2.368693 0
M  V30 28 C 0.692372 1.215347 2.030229 0
M  V30 29 H 0.041112 -1.310216 1.122387 0
M  V30 30 H 1.621814 -1.581235 0.342510 0
M  V30 31 H 0.543776 -0.435176 -0.437674 0
M  V30 32 H 3.665202 -1.803883 -0.318846 0
M  V30 33 H 6.600784 -1.111594 0.314652 0
M  V30 34 H 5.017531 -3.826721 0.022845 0
M  V30 35 H 6.807216 -3.584917 0.462994 0
M  V30 36 H 5.226432 -2.592802 -2.124649 0
M  V30 37 H 7.434720 -3.001664 -2.734318 0
M  V30 38 H 8.083478 -2.766918 -1.222112 0
M  V30 39 H -0.832925 4.060338 4.257462 0
M  V30 40 H -1.404608 0.229359 0.618255 0
M  V30 41 H -3.147288 1.581464 3.672225 0
M  V30 42 H -5.450688 1.218008 4.165557 0
M  V30 43 H -6.790576 -0.152336 2.598346 0
M  V30 44 H -5.105047 -1.749270 -0.717454 0
M  V30 45 H -2.310302 -2.917070 -1.243167 0
M  V30 46 H -3.682606 -3.275326 -2.324646 0
M  V30 47 H -3.789389 -3.761053 -0.619050 0
M  V30 48 H -4.842534 -1.254737 -3.053984 0
M  V30 49 H -3.064839 -1.024657 -2.882666 0
M  V30 50 H -4.124895 0.209470 -2.166551 0
M  V30 END ATOM
M  V30 BEGIN BOND
M  V30 1 1 1 2
M  V30 2 2 2 3
M  V30 3 1 3 4
M  V30 4 2 4 5
M  V30 5 1 4 6
M  V30 6 1 6 7
M  V30 7 1 7 8
M  V30 8 1 8 9
M  V30 9 1 9 10
M  V30 10 1 3 11
M  V30 11 1 11 12
M  V30 12 2 12 13
M  V30 13 1 13 14
M  V30 14 2 14 15
M  V30 15 1 15 16
M  V30 16 1 16 17
M  V30 17 1 17 18
M  V30 18 2 18 19
M  V30 19 1 19 20
M  V30 20 2 20 21
M  V30 21 1 21 22
M  V30 22 2 22 23
M  V30 23 1 23 24
M  V30 24 1 24 25
M  V30 25 1 25 26
M  V30 26 1 25 27
M  V30 27 2 16 28
M  V30 28 1 28 2
M  V30 29 1 9 7
M  V30 30 1 28 12
M  V30 31 1 23 18
M  V30 32 1 1 29
M  V30 33 1 1 30
M  V30 34 1 1 31
M  V30 35 1 6 32
M  V30 36 1 7 33 CFG=1
M  V30 37 1 8 34
M  V30 38 1 8 35
M  V30 39 1 9 36 CFG=3
M  V30 40 1 10 37
M  V30 41 1 10 38
M  V30 42 1 14 39
M  V30 43 1 17 40
M  V30 44 1 19 41
M  V30 45 1 20 42
M  V30 46 1 21 43
M  V30 47 1 25 44
M  V30 48 1 26 45
M  V30 49 1 26 46
M  V30 50 1 26 47
M  V30 51 1 27 48
M  V30 52 1 27 49
M  V30 53 1 27 50
M  V30 END BOND
M  V30 END CTAB
M  END
>  <Dataset>  (770) 
ChEMBL_Kinases

>  <Ligand_Instance>  (770) 
nan

>  <PDB_ID>  (770) 
nan

>  <Standardized_SMILES>  (770) 
Cc1c(C(=O)N[C@H]2C[C@@H]2N)sc2ncnc(Nc3cccnc3OC(C)C)c12

>  <Name>  (770) 
nan

>  <Pocket>  (770) 
nan

>  <ATP_Site>  (770) 
nan

>  <Peripheral>  (770) 
nan

>  <Num_H_Atoms_ProtBoundConf>  (770) 
nan

>  <Num_Resolved_Atoms>  (770) 
nan

>  <Num_Not_Resolved_Atoms>  (770) 
nan

$$$$
CHEMBL3792734
     RDKit          3D

  0  0  0  0  0  0  0  0  0  0999 V3000
M  V30 BEGIN CTAB
M  V30 COUNTS 40 42 0 0 0
M  V30 BEGIN ATOM
M  V30 1 N 3.917465 -0.884125 3.231570 0
M  V30 2 C 3.029072 -1.430419 2.222666 0
M  V30 3 C 2.169425 -0.320615 1.715626 0
M  V30 4 C 1.210302 -0.776528 0.663358 0
M  V30 5 O 0.371931 -0.308945 1.476496 0
M  V30 6 N 1.510555 -1.421874 -0.584583 0
M  V30 7 C 0.246651 -1.634158 -1.190505 0
M  V30 8 C -0.459547 -2.792222 -0.950225 0
M  V30 9 C -1.664398 -2.890069 -1.584684 0
M  V30 10 C -2.119783 -1.891612 -2.400144 0
M  V30 11 C -3.343589 -2.059053 -3.005789 0
M  V30 12 N -3.814668 -1.089260 -3.814387 0
M  V30 13 C -3.094726 0.018108 -4.019173 0
M  V30 14 C -1.849555 0.295719 -3.462589 0
M  V30 15 C -1.395908 -0.731680 -2.631868 0
M  V30 16 C -0.155983 -0.573367 -2.011215 0
M  V30 17 C 1.364697 0.286809 2.799057 0
M  V30 18 C 0.566881 -0.405055 3.717180 0
M  V30 19 C -0.171886 0.216427 4.706536 0
M  V30 20 C -0.116731 1.613492 4.791878 0
M  V30 21 C 0.648706 2.400139 3.924759 0
M  V30 22 O 0.723576 3.762183 3.980955 0
M  V30 23 C 1.327046 1.647041 2.996381 0
M  V30 24 H 4.828580 -1.405780 3.215946 0
M  V30 25 H 3.508068 -0.999940 4.207874 0
M  V30 26 H 2.451554 -2.266125 2.670441 0
M  V30 27 H 3.637061 -1.852315 1.418350 0
M  V30 28 H 2.791456 0.469379 1.282479 0
M  V30 29 H 2.575107 -1.492059 -0.598423 0
M  V30 30 H -0.012263 -3.521084 -0.288070 0
M  V30 31 H -2.246314 -3.807644 -1.406026 0
M  V30 32 H -3.900613 -2.966623 -2.819772 0
M  V30 33 H -3.547156 0.731289 -4.674113 0
M  V30 34 H -1.292515 1.194145 -3.643700 0
M  V30 35 H 0.422914 0.301563 -2.167663 0
M  V30 36 H 0.578350 -1.499994 3.582945 0
M  V30 37 H -0.766621 -0.368822 5.381049 0
M  V30 38 H -0.691240 2.136136 5.564440 0
M  V30 39 H 1.027789 4.226686 3.110511 0
M  V30 40 H 1.939785 2.241807 2.298261 0
M  V30 END ATOM
M  V30 BEGIN BOND
M  V30 1 1 1 2
M  V30 2 1 2 3
M  V30 3 1 3 4
M  V30 4 2 4 5
M  V30 5 1 4 6
M  V30 6 1 6 7
M  V30 7 2 7 8
M  V30 8 1 8 9
M  V30 9 2 9 10
M  V30 10 1 10 11
M  V30 11 2 11 12
M  V30 12 1 12 13
M  V30 13 2 13 14
M  V30 14 1 14 15
M  V30 15 2 15 16
M  V30 16 1 3 17
M  V30 17 2 17 18
M  V30 18 1 18 19
M  V30 19 2 19 20
M  V30 20 1 20 21
M  V30 21 1 21 22
M  V30 22 2 21 23
M  V30 23 1 16 7
M  V30 24 1 23 17
M  V30 25 1 15 10
M  V30 26 1 1 24
M  V30 27 1 1 25
M  V30 28 1 2 26
M  V30 29 1 2 27
M  V30 30 1 3 28
M  V30 31 1 6 29
M  V30 32 1 8 30
M  V30 33 1 9 31
M  V30 34 1 11 32
M  V30 35 1 13 33
M  V30 36 1 14 34
M  V30 37 1 16 35
M  V30 38 1 18 36
M  V30 39 1 19 37
M  V30 40 1 20 38
M  V30 41 1 22 39
M  V30 42 1 23 40
M  V30 END BOND
M  V30 END CTAB
M  END
>  <Dataset>  (771) 
ChEMBL_Kinases

>  <Ligand_Instance>  (771) 
nan

>  <PDB_ID>  (771) 
nan

>  <Standardized_SMILES>  (771) 
NCC(C(=O)Nc1ccc2cnccc2c1)c1cccc(O)c1

>  <Name>  (771) 
nan

>  <Pocket>  (771) 
nan

>  <ATP_Site>  (771) 
nan

>  <Peripheral>  (771) 
nan

>  <Num_H_Atoms_ProtBoundConf>  (771) 
nan

>  <Num_Resolved_Atoms>  (771) 
nan

>  <Num_Not_Resolved_Atoms>  (771) 
nan

$$$$
CHEMBL5073693
     RDKit          3D

  0  0  0  0  0  0  0  0  0  0999 V3000
M  V30 BEGIN CTAB
M  V30 COUNTS 42 44 0 0 0
M  V30 BEGIN ATOM
M  V30 1 C 1.389144 -4.051144 2.373617 0
M  V30 2 C 1.132403 -4.424428 0.948841 0
M  V30 3 C 2.203740 -3.869559 0.084619 0
M  V30 4 C 3.279544 -4.550856 -0.497659 0
M  V30 5 N 4.015225 -3.669638 -1.206480 0
M  V30 6 C 3.479344 -2.435812 -1.122831 0
M  V30 7 N 3.807236 -1.232101 -1.625367 0
M  V30 8 C 3.070878 -0.130040 -1.373085 0
M  V30 9 C 1.937406 -0.151124 -0.589208 0
M  V30 10 C 1.112563 1.011123 -0.289015 0
M  V30 11 C 1.433147 2.253132 -0.790467 0
M  V30 12 C 0.597225 3.308282 -0.455532 0
M  V30 13 C -0.507700 3.117032 0.346421 0
M  V30 14 N -1.326162 4.238088 0.653805 0
M  V30 15 C -0.787464 1.855906 0.824037 0
M  V30 16 C -1.962928 1.704087 1.665918 0
M  V30 17 O -2.659814 2.717600 1.920787 0
M  V30 18 N -2.442942 0.506506 2.261164 0
M  V30 19 C -3.630234 0.604307 3.057484 0
M  V30 20 C -1.750247 -0.756858 2.062346 0
M  V30 21 N 0.022376 0.833160 0.499701 0
M  V30 22 C 1.629787 -1.399683 -0.090236 0
M  V30 23 C 2.359128 -2.557710 -0.324844 0
M  V30 24 H 2.418943 -3.622831 2.525200 0
M  V30 25 H 1.376192 -4.946084 3.056576 0
M  V30 26 H 0.620239 -3.358845 2.760040 0
M  V30 27 H 0.171612 -3.925844 0.627691 0
M  V30 28 H 1.007563 -5.487885 0.747530 0
M  V30 29 H 3.479516 -5.622254 -0.387987 0
M  V30 30 H 4.884640 -3.913581 -1.747656 0
M  V30 31 H 3.391494 0.805358 -1.808935 0
M  V30 32 H 2.272688 2.445963 -1.410711 0
M  V30 33 H 0.848940 4.300030 -0.853063 0
M  V30 34 H -2.301845 4.579202 0.522359 0
M  V30 35 H -0.803090 4.981453 1.188347 0
M  V30 36 H -3.783279 1.629381 3.434570 0
M  V30 37 H -3.605832 -0.038910 3.979187 0
M  V30 38 H -4.536416 0.342185 2.451627 0
M  V30 39 H -1.886089 -1.145437 1.039775 0
M  V30 40 H -0.669322 -0.680293 2.283875 0
M  V30 41 H -2.169925 -1.524022 2.743286 0
M  V30 42 H 0.747209 -1.530401 0.545983 0
M  V30 END ATOM
M  V30 BEGIN BOND
M  V30 1 1 1 2
M  V30 2 1 2 3
M  V30 3 2 3 4
M  V30 4 1 4 5
M  V30 5 1 5 6
M  V30 6 2 6 7
M  V30 7 1 7 8
M  V30 8 2 8 9
M  V30 9 1 9 10
M  V30 10 2 10 11
M  V30 11 1 11 12
M  V30 12 2 12 13
M  V30 13 1 13 14
M  V30 14 1 13 15
M  V30 15 1 15 16
M  V30 16 2 16 17
M  V30 17 1 16 18
M  V30 18 1 18 19
M  V30 19 1 18 20
M  V30 20 2 15 21
M  V30 21 1 9 22
M  V30 22 2 22 23
M  V30 23 1 23 3
M  V30 24 1 23 6
M  V30 25 1 21 10
M  V30 26 1 1 24
M  V30 27 1 1 25
M  V30 28 1 1 26
M  V30 29 1 2 27
M  V30 30 1 2 28
M  V30 31 1 4 29
M  V30 32 1 5 30
M  V30 33 1 8 31
M  V30 34 1 11 32
M  V30 35 1 12 33
M  V30 36 1 14 34
M  V30 37 1 14 35
M  V30 38 1 19 36
M  V30 39 1 19 37
M  V30 40 1 19 38
M  V30 41 1 20 39
M  V30 42 1 20 40
M  V30 43 1 20 41
M  V30 44 1 22 42
M  V30 END BOND
M  V30 END CTAB
M  END
>  <Dataset>  (772) 
ChEMBL_Kinases

>  <Ligand_Instance>  (772) 
nan

>  <PDB_ID>  (772) 
nan

>  <Standardized_SMILES>  (772) 
CCc1c[nH]c2ncc(-c3ccc(N)c(C(=O)N(C)C)n3)cc12

>  <Name>  (772) 
nan

>  <Pocket>  (772) 
nan

>  <ATP_Site>  (772) 
nan

>  <Peripheral>  (772) 
nan

>  <Num_H_Atoms_ProtBoundConf>  (772) 
nan

>  <Num_Resolved_Atoms>  (772) 
nan

>  <Num_Not_Resolved_Atoms>  (772) 
nan

$$$$
CHEMBL5073735
     RDKit          3D

  0  0  0  0  0  0  0  0  0  0999 V3000
M  V30 BEGIN CTAB
M  V30 COUNTS 49 53 0 0 0
M  V30 BEGIN ATOM
M  V30 1 C 0.602416 -4.865633 -0.467216 0
M  V30 2 C 0.100473 -3.739055 0.356977 0
M  V30 3 C 0.551018 -2.448683 0.170696 0
M  V30 4 N 1.483201 -1.909787 -0.727277 0
M  V30 5 C 1.914589 -0.553804 -0.876802 0
M  V30 6 N 2.828931 -0.222312 -1.805153 0
M  V30 7 C 3.193377 1.065736 -1.897190 0
M  V30 8 C 2.697397 2.079234 -1.106604 0
M  V30 9 C 3.074052 3.397692 -1.204826 0
M  V30 10 C 2.515522 4.360441 -0.357531 0
M  V30 11 C 1.582998 3.942809 0.570157 0
M  V30 12 C 0.939946 4.878483 1.504162 0
M  V30 13 C 1.165934 6.241514 1.582826 0
M  V30 14 C 0.391321 6.813941 2.574628 0
M  V30 15 N -0.295306 5.773842 3.081535 0
M  V30 16 N 0.018834 4.647884 2.464338 0
M  V30 17 C 1.187824 2.616292 0.686835 0
M  V30 18 C 1.763615 1.692489 -0.170120 0
M  V30 19 N 1.402125 0.400892 -0.082197 0
M  V30 20 C -0.124136 -1.683840 1.098814 0
M  V30 21 N -0.927835 -2.468405 1.795990 0
M  V30 22 N -0.797393 -3.720810 1.351025 0
M  V30 23 C -1.488024 -4.929923 1.821343 0
M  V30 24 C -2.323066 -5.518183 0.723120 0
M  V30 25 C -3.222517 -4.420747 0.207799 0
M  V30 26 O -4.203553 -4.241480 1.195630 0
M  V30 27 C -3.601679 -3.659179 2.295873 0
M  V30 28 C -2.481701 -4.463388 2.892827 0
M  V30 29 H 0.620103 -5.834429 0.089088 0
M  V30 30 H 0.027566 -5.038429 -1.394670 0
M  V30 31 H 1.652317 -4.705901 -0.780425 0
M  V30 32 H 1.916920 -2.631713 -1.378874 0
M  V30 33 H 3.935493 1.314834 -2.655521 0
M  V30 34 H 3.808370 3.675692 -1.947561 0
M  V30 35 H 2.797132 5.404444 -0.416976 0
M  V30 36 H 1.865335 6.749592 0.933846 0
M  V30 37 H 0.391743 7.868713 2.827899 0
M  V30 38 H -0.382870 3.714460 2.682746 0
M  V30 39 H 0.461497 2.264317 1.402977 0
M  V30 40 H -0.144211 -0.652375 1.368997 0
M  V30 41 H -0.784603 -5.620198 2.300302 0
M  V30 42 H -2.988310 -6.288409 1.167486 0
M  V30 43 H -1.774803 -5.963055 -0.105620 0
M  V30 44 H -3.679349 -4.691950 -0.767704 0
M  V30 45 H -2.633437 -3.483210 0.169017 0
M  V30 46 H -3.294241 -2.642068 1.979372 0
M  V30 47 H -4.373969 -3.558819 3.093965 0
M  V30 48 H -1.880782 -3.761752 3.524515 0
M  V30 49 H -2.895361 -5.293212 3.473082 0
M  V30 END ATOM
M  V30 BEGIN BOND
M  V30 1 1 1 2
M  V30 2 2 2 3
M  V30 3 1 3 4
M  V30 4 1 4 5
M  V30 5 2 5 6
M  V30 6 1 6 7
M  V30 7 2 7 8
M  V30 8 1 8 9
M  V30 9 2 9 10
M  V30 10 1 10 11
M  V30 11 1 11 12
M  V30 12 2 12 13
M  V30 13 1 13 14
M  V30 14 2 14 15
M  V30 15 1 15 16
M  V30 16 2 11 17
M  V30 17 1 17 18
M  V30 18 2 18 19
M  V30 19 1 3 20
M  V30 20 2 20 21
M  V30 21 1 21 22
M  V30 22 1 22 23
M  V30 23 1 23 24
M  V30 24 1 24 25
M  V30 25 1 25 26
M  V30 26 1 26 27
M  V30 27 1 27 28
M  V30 28 1 22 2
M  V30 29 1 28 23
M  V30 30 1 19 5
M  V30 31 1 18 8
M  V30 32 1 16 12
M  V30 33 1 1 29
M  V30 34 1 1 30
M  V30 35 1 1 31
M  V30 36 1 4 32
M  V30 37 1 7 33
M  V30 38 1 9 34
M  V30 39 1 10 35
M  V30 40 1 13 36
M  V30 41 1 14 37
M  V30 42 1 16 38
M  V30 43 1 17 39
M  V30 44 1 20 40
M  V30 45 1 23 41
M  V30 46 1 24 42
M  V30 47 1 24 43
M  V30 48 1 25 44
M  V30 49 1 25 45
M  V30 50 1 27 46
M  V30 51 1 27 47
M  V30 52 1 28 48
M  V30 53 1 28 49
M  V30 END BOND
M  V30 END CTAB
M  END
>  <Dataset>  (773) 
ChEMBL_Kinases

>  <Ligand_Instance>  (773) 
nan

>  <PDB_ID>  (773) 
nan

>  <Standardized_SMILES>  (773) 
Cc1c(Nc2ncc3ccc(-c4ccn[nH]4)cc3n2)cnn1C1CCOCC1

>  <Name>  (773) 
nan

>  <Pocket>  (773) 
nan

>  <ATP_Site>  (773) 
nan

>  <Peripheral>  (773) 
nan

>  <Num_H_Atoms_ProtBoundConf>  (773) 
nan

>  <Num_Resolved_Atoms>  (773) 
nan

>  <Num_Not_Resolved_Atoms>  (773) 
nan

$$$$
CHEMBL3792689
     RDKit          3D

  0  0  0  0  0  0  0  0  0  0999 V3000
M  V30 BEGIN CTAB
M  V30 COUNTS 43 45 0 0 0
M  V30 BEGIN ATOM
M  V30 1 N -0.160837 -4.169609 1.562388 0
M  V30 2 C 0.759883 -3.509008 2.416594 0
M  V30 3 C 0.725162 -2.015076 2.347599 0
M  V30 4 C 1.029963 -1.508472 0.983585 0
M  V30 5 O 0.029787 -0.737320 0.786214 0
M  V30 6 N 2.119178 -1.788085 0.122717 0
M  V30 7 C 1.943974 -1.046439 -1.076782 0
M  V30 8 C 1.252145 -1.542462 -2.186949 0
M  V30 9 C 1.172366 -0.697350 -3.270291 0
M  V30 10 C 1.740167 0.562615 -3.262114 0
M  V30 11 C 1.633912 1.385600 -4.384648 0
M  V30 12 N 2.181753 2.618896 -4.395445 0
M  V30 13 C 2.843584 3.062107 -3.300269 0
M  V30 14 C 2.983062 2.291480 -2.154645 0
M  V30 15 C 2.421685 1.031903 -2.148003 0
M  V30 16 C 2.515731 0.204893 -1.050108 0
M  V30 17 C -0.524725 -1.408869 2.786365 0
M  V30 18 C -1.750049 -1.636244 2.206768 0
M  V30 19 C -2.935391 -1.080005 2.600397 0
M  V30 20 C -2.931960 -0.208447 3.672774 0
M  V30 21 C -1.755083 0.090220 4.328145 0
M  V30 22 C -1.672164 1.019014 5.490315 0
M  V30 23 O -1.445087 2.298168 4.972550 0
M  V30 24 C -0.602522 -0.516929 3.863907 0
M  V30 25 H -1.032117 -4.474341 2.011197 0
M  V30 26 H -0.202215 -3.887808 0.582981 0
M  V30 27 H 1.786351 -3.888027 2.240149 0
M  V30 28 H 0.516474 -3.796952 3.464023 0
M  V30 29 H 1.535902 -1.614235 3.016483 0
M  V30 30 H 2.782669 -2.461518 0.564264 0
M  V30 31 H 0.839958 -2.530471 -2.115163 0
M  V30 32 H 0.631737 -1.069390 -4.154241 0
M  V30 33 H 1.097831 1.013259 -5.257574 0
M  V30 34 H 3.278810 4.051847 -3.319393 0
M  V30 35 H 3.499720 2.605979 -1.266316 0
M  V30 36 H 3.050456 0.603169 -0.207764 0
M  V30 37 H -1.825498 -2.305022 1.365487 0
M  V30 38 H -3.885854 -1.275151 2.127781 0
M  V30 39 H -3.805132 0.289168 4.070759 0
M  V30 40 H -0.806000 0.761908 6.130643 0
M  V30 41 H -2.589677 0.981689 6.112066 0
M  V30 42 H -0.806098 2.188956 4.219396 0
M  V30 43 H 0.333116 -0.273018 4.392951 0
M  V30 END ATOM
M  V30 BEGIN BOND
M  V30 1 1 1 2
M  V30 2 1 2 3
M  V30 3 1 3 4
M  V30 4 2 4 5
M  V30 5 1 4 6
M  V30 6 1 6 7
M  V30 7 2 7 8
M  V30 8 1 8 9
M  V30 9 2 9 10
M  V30 10 1 10 11
M  V30 11 2 11 12
M  V30 12 1 12 13
M  V30 13 2 13 14
M  V30 14 1 14 15
M  V30 15 2 15 16
M  V30 16 1 3 17
M  V30 17 2 17 18
M  V30 18 1 18 19
M  V30 19 2 19 20
M  V30 20 1 20 21
M  V30 21 1 21 22
M  V30 22 1 22 23
M  V30 23 2 21 24
M  V30 24 1 16 7
M  V30 25 1 24 17
M  V30 26 1 15 10
M  V30 27 1 1 25
M  V30 28 1 1 26
M  V30 29 1 2 27
M  V30 30 1 2 28
M  V30 31 1 3 29
M  V30 32 1 6 30
M  V30 33 1 8 31
M  V30 34 1 9 32
M  V30 35 1 11 33
M  V30 36 1 13 34
M  V30 37 1 14 35
M  V30 38 1 16 36
M  V30 39 1 18 37
M  V30 40 1 19 38
M  V30 41 1 20 39
M  V30 42 1 22 40
M  V30 43 1 22 41
M  V30 44 1 23 42
M  V30 45 1 24 43
M  V30 END BOND
M  V30 END CTAB
M  END
>  <Dataset>  (774) 
ChEMBL_Kinases

>  <Ligand_Instance>  (774) 
nan

>  <PDB_ID>  (774) 
nan

>  <Standardized_SMILES>  (774) 
NCC(C(=O)Nc1ccc2cnccc2c1)c1cccc(CO)c1

>  <Name>  (774) 
nan

>  <Pocket>  (774) 
nan

>  <ATP_Site>  (774) 
nan

>  <Peripheral>  (774) 
nan

>  <Num_H_Atoms_ProtBoundConf>  (774) 
nan

>  <Num_Resolved_Atoms>  (774) 
nan

>  <Num_Not_Resolved_Atoms>  (774) 
nan

$$$$
CHEMBL3792673
     RDKit          3D

  0  0  0  0  0  0  0  0  0  0999 V3000
M  V30 BEGIN CTAB
M  V30 COUNTS 42 44 0 0 0
M  V30 BEGIN ATOM
M  V30 1 C 0.335515 -6.254745 1.795252 0
M  V30 2 C 0.617762 -5.010583 0.996714 0
M  V30 3 C 1.821008 -4.821707 0.335615 0
M  V30 4 C 2.099570 -3.690380 -0.400700 0
M  V30 5 C 1.152156 -2.692021 -0.495323 0
M  V30 6 C 1.301569 -1.413433 -1.250456 0
M  V30 7 C 0.166212 -1.354855 -2.256415 0
M  V30 8 N 0.285621 -0.137816 -2.998198 0
M  V30 9 C 1.144291 -0.248576 -0.340518 0
M  V30 10 O 0.893049 -0.671849 0.832930 0
M  V30 11 N 1.231544 1.140446 -0.594002 0
M  V30 12 C 0.990440 1.814410 0.658581 0
M  V30 13 C 2.074156 2.093283 1.479005 0
M  V30 14 C 1.830362 2.741034 2.679795 0
M  V30 15 C 0.534125 3.078472 3.006841 0
M  V30 16 C 0.202728 3.722340 4.177699 0
M  V30 17 N -1.070630 4.059693 4.510423 0
M  V30 18 C -2.100093 3.761472 3.666122 0
M  V30 19 C -1.832422 3.111743 2.467564 0
M  V30 20 C -0.524026 2.781153 2.156973 0
M  V30 21 C -0.323938 2.129998 0.938387 0
M  V30 22 C -0.067877 -2.841942 0.152695 0
M  V30 23 C -0.330958 -3.997244 0.894664 0
M  V30 24 H -0.021361 -5.941068 2.812900 0
M  V30 25 H 1.279048 -6.779862 1.949399 0
M  V30 26 H -0.366481 -6.911989 1.266643 0
M  V30 27 H 2.559246 -5.586547 0.402321 0
M  V30 28 H 3.019605 -3.529092 -0.915235 0
M  V30 29 H 2.284734 -1.387147 -1.720748 0
M  V30 30 H -0.789709 -1.403071 -1.701324 0
M  V30 31 H 0.168055 -2.245889 -2.921441 0
M  V30 32 H -0.590859 0.383771 -3.095413 0
M  V30 33 H 0.811397 -0.238034 -3.891317 0
M  V30 34 H 1.441400 1.352955 -1.579438 0
M  V30 35 H 3.079130 1.829128 1.220493 0
M  V30 36 H 2.625700 2.984444 3.357458 0
M  V30 37 H 0.981421 3.974450 4.868069 0
M  V30 38 H -3.143192 4.014031 3.892290 0
M  V30 39 H -2.635177 2.877419 1.805732 0
M  V30 40 H -1.101738 1.879946 0.252263 0
M  V30 41 H -0.913093 -2.169715 0.185442 0
M  V30 42 H -1.253397 -4.195169 1.429970 0
M  V30 END ATOM
M  V30 BEGIN BOND
M  V30 1 1 1 2
M  V30 2 2 2 3
M  V30 3 1 3 4
M  V30 4 2 4 5
M  V30 5 1 5 6
M  V30 6 1 6 7
M  V30 7 1 7 8
M  V30 8 1 6 9
M  V30 9 2 9 10
M  V30 10 1 9 11
M  V30 11 1 11 12
M  V30 12 2 12 13
M  V30 13 1 13 14
M  V30 14 2 14 15
M  V30 15 1 15 16
M  V30 16 2 16 17
M  V30 17 1 17 18
M  V30 18 2 18 19
M  V30 19 1 19 20
M  V30 20 2 20 21
M  V30 21 1 5 22
M  V30 22 2 22 23
M  V30 23 1 23 2
M  V30 24 1 21 12
M  V30 25 1 20 15
M  V30 26 1 1 24
M  V30 27 1 1 25
M  V30 28 1 1 26
M  V30 29 1 3 27
M  V30 30 1 4 28
M  V30 31 1 6 29
M  V30 32 1 7 30
M  V30 33 1 7 31
M  V30 34 1 8 32
M  V30 35 1 8 33
M  V30 36 1 11 34
M  V30 37 1 13 35
M  V30 38 1 14 36
M  V30 39 1 16 37
M  V30 40 1 18 38
M  V30 41 1 19 39
M  V30 42 1 21 40
M  V30 43 1 22 41
M  V30 44 1 23 42
M  V30 END BOND
M  V30 END CTAB
M  END
>  <Dataset>  (775) 
ChEMBL_Kinases

>  <Ligand_Instance>  (775) 
nan

>  <PDB_ID>  (775) 
nan

>  <Standardized_SMILES>  (775) 
Cc1ccc(C(CN)C(=O)Nc2ccc3cnccc3c2)cc1

>  <Name>  (775) 
nan

>  <Pocket>  (775) 
nan

>  <ATP_Site>  (775) 
nan

>  <Peripheral>  (775) 
nan

>  <Num_H_Atoms_ProtBoundConf>  (775) 
nan

>  <Num_Resolved_Atoms>  (775) 
nan

>  <Num_Not_Resolved_Atoms>  (775) 
nan

$$$$
CHEMBL3792666
     RDKit          3D

  0  0  0  0  0  0  0  0  0  0999 V3000
M  V30 BEGIN CTAB
M  V30 COUNTS 39 41 0 0 0
M  V30 BEGIN ATOM
M  V30 1 N 0.809915 -3.686672 3.984469 0
M  V30 2 C 1.213194 -3.086752 2.707464 0
M  V30 3 C 0.499363 -1.785493 2.609375 0
M  V30 4 C 0.781234 -1.017105 1.368438 0
M  V30 5 O -0.412994 -0.867212 0.938473 0
M  V30 6 N 2.044857 -0.614059 0.885346 0
M  V30 7 C 1.886473 0.102832 -0.335778 0
M  V30 8 C 1.880278 -0.438377 -1.625013 0
M  V30 9 C 1.715681 0.390197 -2.712151 0
M  V30 10 C 1.557227 1.737113 -2.560827 0
M  V30 11 C 1.389713 2.590877 -3.644334 0
M  V30 12 N 1.230627 3.930376 -3.520342 0
M  V30 13 C 1.240189 4.429141 -2.264490 0
M  V30 14 C 1.397252 3.691198 -1.112160 0
M  V30 15 C 1.553876 2.332797 -1.320663 0
M  V30 16 C 1.720027 1.488865 -0.239700 0
M  V30 17 C -0.979458 -1.959717 2.677890 0
M  V30 18 C -1.629645 -2.699273 1.683114 0
M  V30 19 C -3.009500 -2.892092 1.700279 0
M  V30 20 C -3.736299 -2.332383 2.731620 0
M  V30 21 C -3.133305 -1.597147 3.730500 0
M  V30 22 F -3.785937 -1.030498 4.755616 0
M  V30 23 C -1.763219 -1.422007 3.688234 0
M  V30 24 H 0.123896 -4.457670 3.869428 0
M  V30 25 H 0.341471 -2.993689 4.615548 0
M  V30 26 H 1.035048 -3.779770 1.881022 0
M  V30 27 H 2.301669 -2.855484 2.841861 0
M  V30 28 H 0.781140 -1.174383 3.489644 0
M  V30 29 H 2.856889 -0.895932 1.478226 0
M  V30 30 H 2.011797 -1.512659 -1.655345 0
M  V30 31 H 1.716680 -0.067485 -3.692732 0
M  V30 32 H 1.384847 2.177568 -4.631226 0
M  V30 33 H 1.111644 5.503635 -2.181298 0
M  V30 34 H 1.396970 4.136467 -0.146088 0
M  V30 35 H 1.718654 1.948672 0.739072 0
M  V30 36 H -1.091966 -3.159193 0.849245 0
M  V30 37 H -3.510166 -3.463263 0.931651 0
M  V30 38 H -4.815506 -2.465546 2.772320 0
M  V30 39 H -1.245652 -0.846678 4.459427 0
M  V30 END ATOM
M  V30 BEGIN BOND
M  V30 1 1 1 2
M  V30 2 1 2 3
M  V30 3 1 3 4
M  V30 4 2 4 5
M  V30 5 1 4 6
M  V30 6 1 6 7
M  V30 7 2 7 8
M  V30 8 1 8 9
M  V30 9 2 9 10
M  V30 10 1 10 11
M  V30 11 2 11 12
M  V30 12 1 12 13
M  V30 13 2 13 14
M  V30 14 1 14 15
M  V30 15 2 15 16
M  V30 16 1 3 17
M  V30 17 2 17 18
M  V30 18 1 18 19
M  V30 19 2 19 20
M  V30 20 1 20 21
M  V30 21 1 21 22
M  V30 22 2 21 23
M  V30 23 1 16 7
M  V30 24 1 23 17
M  V30 25 1 15 10
M  V30 26 1 1 24
M  V30 27 1 1 25
M  V30 28 1 2 26
M  V30 29 1 2 27
M  V30 30 1 3 28
M  V30 31 1 6 29
M  V30 32 1 8 30
M  V30 33 1 9 31
M  V30 34 1 11 32
M  V30 35 1 13 33
M  V30 36 1 14 34
M  V30 37 1 16 35
M  V30 38 1 18 36
M  V30 39 1 19 37
M  V30 40 1 20 38
M  V30 41 1 23 39
M  V30 END BOND
M  V30 END CTAB
M  END
>  <Dataset>  (776) 
ChEMBL_Kinases

>  <Ligand_Instance>  (776) 
nan

>  <PDB_ID>  (776) 
nan

>  <Standardized_SMILES>  (776) 
NCC(C(=O)Nc1ccc2cnccc2c1)c1cccc(F)c1

>  <Name>  (776) 
nan

>  <Pocket>  (776) 
nan

>  <ATP_Site>  (776) 
nan

>  <Peripheral>  (776) 
nan

>  <Num_H_Atoms_ProtBoundConf>  (776) 
nan

>  <Num_Resolved_Atoms>  (776) 
nan

>  <Num_Not_Resolved_Atoms>  (776) 
nan

$$$$
CHEMBL5073918
     RDKit          3D

  0  0  0  0  0  0  0  0  0  0999 V3000
M  V30 BEGIN CTAB
M  V30 COUNTS 54 57 0 0 0
M  V30 BEGIN ATOM
M  V30 1 C 0.850826 -6.239258 2.207898 0
M  V30 2 O 0.591619 -5.454698 1.052751 0
M  V30 3 C 1.271606 -4.246468 0.974584 0
M  V30 4 C 2.137636 -3.869216 1.980440 0
M  V30 5 C 2.819019 -2.671598 1.914571 0
M  V30 6 N 3.671159 -2.310848 2.914390 0
M  V30 7 C 4.330966 -1.121385 2.822411 0
M  V30 8 N 4.146357 -0.314898 1.763930 0
M  V30 9 C 3.329582 -0.583946 0.732577 0
M  V30 10 N 3.175109 0.302907 -0.368842 0
M  V30 11 C 3.875482 1.543184 -0.435869 0
M  V30 12 C 3.445310 2.463146 0.705734 0
M  V30 13 C 2.042239 2.762607 0.682463 0
M  V30 14 C 1.158372 3.493539 1.420537 0
M  V30 15 N -0.118143 3.547795 1.096942 0
M  V30 16 C -0.560692 2.932537 0.104894 0
M  V30 17 N -1.868823 2.832549 -0.442603 0
M  V30 18 C -2.778237 1.822776 -0.043661 0
M  V30 19 O -2.385051 1.012309 0.817761 0
M  V30 20 N -4.092115 1.713794 -0.586462 0
M  V30 21 C -4.841184 0.622679 -0.042827 0
M  V30 22 C -5.656340 0.666634 1.071763 0
M  V30 23 C -6.325570 -0.467216 1.489911 0
M  V30 24 C -6.159953 -1.642494 0.768068 0
M  V30 25 C -5.340209 -1.691465 -0.354819 0
M  V30 26 C -4.671557 -0.552241 -0.769907 0
M  V30 27 S 1.006514 2.091277 -0.572756 0
M  V30 28 C 2.683208 -1.793287 0.864664 0
M  V30 29 C 1.811547 -2.201382 -0.120709 0
M  V30 30 C 1.101007 -3.384126 -0.114947 0
M  V30 31 O 0.234046 -3.791132 -1.093949 0
M  V30 32 C 0.028207 -2.943566 -2.224942 0
M  V30 33 H 1.958591 -6.430782 2.252233 0
M  V30 34 H 0.364996 -7.222650 2.169565 0
M  V30 35 H 0.608590 -5.626581 3.084053 0
M  V30 36 H 2.301338 -4.502967 2.841559 0
M  V30 37 H 5.029625 -0.785866 3.604335 0
M  V30 38 H 2.548138 0.085568 -1.166536 0
M  V30 39 H 4.965084 1.350889 -0.245595 0
M  V30 40 H 3.721005 2.018620 -1.415408 0
M  V30 41 H 3.741475 1.989175 1.640447 0
M  V30 42 H 4.046042 3.419330 0.658314 0
M  V30 43 H 1.520532 4.044608 2.298387 0
M  V30 44 H -2.169909 3.540755 -1.174858 0
M  V30 45 H -4.396225 2.418154 -1.316979 0
M  V30 46 H -5.703678 1.637075 1.547585 0
M  V30 47 H -6.950028 -0.377487 2.367559 0
M  V30 48 H -6.711045 -2.515710 1.138089 0
M  V30 49 H -5.290516 -2.672902 -0.838477 0
M  V30 50 H -4.049045 -0.650214 -1.648445 0
M  V30 51 H 1.601381 -1.620284 -1.004740 0
M  V30 52 H -0.748600 -3.362479 -2.895846 0
M  V30 53 H -0.359060 -1.957556 -1.863384 0
M  V30 54 H 0.950333 -2.830660 -2.837154 0
M  V30 END ATOM
M  V30 BEGIN BOND
M  V30 1 1 1 2
M  V30 2 1 2 3
M  V30 3 2 3 4
M  V30 4 1 4 5
M  V30 5 2 5 6
M  V30 6 1 6 7
M  V30 7 2 7 8
M  V30 8 1 8 9
M  V30 9 1 9 10
M  V30 10 1 10 11
M  V30 11 1 11 12
M  V30 12 1 12 13
M  V30 13 2 13 14
M  V30 14 1 14 15
M  V30 15 2 15 16
M  V30 16 1 16 17
M  V30 17 1 17 18
M  V30 18 2 18 19
M  V30 19 1 18 20
M  V30 20 1 20 21
M  V30 21 2 21 22
M  V30 22 1 22 23
M  V30 23 2 23 24
M  V30 24 1 24 25
M  V30 25 2 25 26
M  V30 26 1 16 27
M  V30 27 2 9 28
M  V30 28 1 28 29
M  V30 29 2 29 30
M  V30 30 1 30 31
M  V30 31 1 31 32
M  V30 32 1 30 3
M  V30 33 1 28 5
M  V30 34 1 27 13
M  V30 35 1 26 21
M  V30 36 1 1 33
M  V30 37 1 1 34
M  V30 38 1 1 35
M  V30 39 1 4 36
M  V30 40 1 7 37
M  V30 41 1 10 38
M  V30 42 1 11 39
M  V30 43 1 11 40
M  V30 44 1 12 41
M  V30 45 1 12 42
M  V30 46 1 14 43
M  V30 47 1 17 44
M  V30 48 1 20 45
M  V30 49 1 22 46
M  V30 50 1 23 47
M  V30 51 1 24 48
M  V30 52 1 25 49
M  V30 53 1 26 50
M  V30 54 1 29 51
M  V30 55 1 32 52
M  V30 56 1 32 53
M  V30 57 1 32 54
M  V30 END BOND
M  V30 END CTAB
M  END
>  <Dataset>  (777) 
ChEMBL_Kinases

>  <Ligand_Instance>  (777) 
nan

>  <PDB_ID>  (777) 
nan

>  <Standardized_SMILES>  (777) 
COc1cc2ncnc(NCCc3cnc(NC(=O)Nc4ccccc4)s3)c2cc1OC

>  <Name>  (777) 
nan

>  <Pocket>  (777) 
nan

>  <ATP_Site>  (777) 
nan

>  <Peripheral>  (777) 
nan

>  <Num_H_Atoms_ProtBoundConf>  (777) 
nan

>  <Num_Resolved_Atoms>  (777) 
nan

>  <Num_Not_Resolved_Atoms>  (777) 
nan

$$$$
CHEMBL379263
     RDKit          3D

  0  0  0  0  0  0  0  0  0  0999 V3000
M  V30 BEGIN CTAB
M  V30 COUNTS 45 47 0 0 0
M  V30 BEGIN ATOM
M  V30 1 C 2.619592 -4.451347 1.283959 0
M  V30 2 N 1.699620 -5.228168 0.441148 0
M  V30 3 C 2.079104 -5.018362 -0.910153 0
M  V30 4 N 2.763005 -5.828289 -1.711815 0
M  V30 5 C 3.077741 -5.520871 -2.969800 0
M  V30 6 C 2.687620 -4.292698 -3.507459 0
M  V30 7 C 1.977494 -3.441067 -2.684234 0
M  V30 8 C 1.489209 -2.076248 -3.036616 0
M  V30 9 C 1.605921 -1.268397 -4.150431 0
M  V30 10 C 1.056133 -0.041743 -4.127540 0
M  V30 11 C 0.417530 0.351029 -3.030043 0
M  V30 12 C -0.292301 1.534630 -2.585836 0
M  V30 13 O -0.285711 2.438638 -3.499669 0
M  V30 14 N -0.922413 1.727804 -1.345659 0
M  V30 15 C -1.614235 2.909808 -0.908571 0 CFG=2
M  V30 16 C -1.245938 3.246796 0.526013 0
M  V30 17 C -3.101780 2.835217 -1.002566 0
M  V30 18 C -3.785885 1.799648 -0.246090 0
M  V30 19 C -4.410535 2.125058 0.968424 0
M  V30 20 C -5.099795 1.255662 1.795430 0
M  V30 21 C -5.176878 -0.073563 1.374888 0
M  V30 22 Cl -6.058563 -1.144037 2.440012 0
M  V30 23 C -4.593592 -0.481116 0.197903 0
M  V30 24 C -3.933076 0.468373 -0.549420 0
M  V30 25 Cl -3.256924 -0.119159 -2.046891 0
M  V30 26 S 0.540679 -1.005795 -1.917475 0
M  V30 27 N 1.718010 -3.848362 -1.452757 0
M  V30 28 H 3.672348 -4.675067 1.108534 0
M  V30 29 H 2.450986 -3.357447 1.107031 0
M  V30 30 H 2.381448 -4.614783 2.356505 0
M  V30 31 H 0.936846 -5.799863 0.841166 0
M  V30 32 H 3.628517 -6.133671 -3.663598 0
M  V30 33 H 2.845112 -3.863975 -4.490953 0
M  V30 34 H 2.156692 -1.756802 -4.940095 0
M  V30 35 H 1.130483 0.612310 -4.985429 0
M  V30 36 H -0.873023 0.917797 -0.653771 0
M  V30 37 H -1.281781 3.759672 -1.607649 0
M  V30 38 H -1.715626 4.246124 0.736409 0
M  V30 39 H -0.166922 3.293256 0.710453 0
M  V30 40 H -1.722661 2.500571 1.162793 0
M  V30 41 H -3.392571 2.855604 -2.082493 0
M  V30 42 H -3.473583 3.839028 -0.626906 0
M  V30 43 H -4.345910 3.175228 1.295961 0
M  V30 44 H -5.538356 1.629836 2.711235 0
M  V30 45 H -4.668613 -1.503337 -0.094583 0
M  V30 END ATOM
M  V30 BEGIN BOND
M  V30 1 1 1 2
M  V30 2 1 2 3
M  V30 3 2 3 4
M  V30 4 1 4 5
M  V30 5 2 5 6
M  V30 6 1 6 7
M  V30 7 1 7 8
M  V30 8 2 8 9
M  V30 9 1 9 10
M  V30 10 2 10 11
M  V30 11 1 11 12
M  V30 12 2 12 13
M  V30 13 1 12 14
M  V30 14 1 14 15
M  V30 15 1 15 16
M  V30 16 1 15 17
M  V30 17 1 17 18
M  V30 18 2 18 19
M  V30 19 1 19 20
M  V30 20 2 20 21
M  V30 21 1 21 22
M  V30 22 1 21 23
M  V30 23 2 23 24
M  V30 24 1 24 25
M  V30 25 1 11 26
M  V30 26 2 7 27
M  V30 27 1 27 3
M  V30 28 1 26 8
M  V30 29 1 24 18
M  V30 30 1 1 28
M  V30 31 1 1 29
M  V30 32 1 1 30
M  V30 33 1 2 31
M  V30 34 1 5 32
M  V30 35 1 6 33
M  V30 36 1 9 34
M  V30 37 1 10 35
M  V30 38 1 14 36
M  V30 39 1 15 37 CFG=3
M  V30 40 1 16 38
M  V30 41 1 16 39
M  V30 42 1 16 40
M  V30 43 1 17 41
M  V30 44 1 17 42
M  V30 45 1 19 43
M  V30 46 1 20 44
M  V30 47 1 23 45
M  V30 END BOND
M  V30 END CTAB
M  END
>  <Dataset>  (778) 
ChEMBL_Kinases

>  <Ligand_Instance>  (778) 
nan

>  <PDB_ID>  (778) 
nan

>  <Standardized_SMILES>  (778) 
CNc1nccc(-c2ccc(C(=O)N[C@H](C)Cc3ccc(Cl)cc3Cl)s2)n1

>  <Name>  (778) 
nan

>  <Pocket>  (778) 
nan

>  <ATP_Site>  (778) 
nan

>  <Peripheral>  (778) 
nan

>  <Num_H_Atoms_ProtBoundConf>  (778) 
nan

>  <Num_Resolved_Atoms>  (778) 
nan

>  <Num_Not_Resolved_Atoms>  (778) 
nan

$$$$
CHEMBL3792621
     RDKit          3D

  0  0  0  0  0  0  0  0  0  0999 V3000
M  V30 BEGIN CTAB
M  V30 COUNTS 56 60 0 0 0
M  V30 BEGIN ATOM
M  V30 1 C 6.602815 -3.604965 4.169706 0
M  V30 2 O 6.578931 -2.802798 2.979422 0
M  V30 3 C 5.403724 -2.228875 2.516362 0
M  V30 4 O 4.349724 -2.453157 3.204788 0
M  V30 5 C 5.349552 -1.408770 1.309706 0
M  V30 6 C 6.487322 -1.170014 0.571828 0
M  V30 7 C 6.407023 -0.390447 -0.566652 0
M  V30 8 C 5.162526 0.103983 -0.888945 0
M  V30 9 C 3.995196 -0.097908 -0.196396 0
M  V30 10 N 2.709123 0.395117 -0.503861 0
M  V30 11 C 2.282130 1.208277 -1.580391 0
M  V30 12 O 3.139070 1.574328 -2.410976 0
M  V30 13 C 0.911910 1.652467 -1.795155 0
M  V30 14 C -0.154422 1.329116 -0.982853 0
M  V30 15 C -1.443061 1.748634 -1.200021 0
M  V30 16 N -2.483180 1.360110 -0.309617 0
M  V30 17 C -3.802789 1.567528 -0.464391 0
M  V30 18 C -4.490185 1.038340 0.613805 0
M  V30 19 C -5.940394 0.977989 0.964233 0
M  V30 20 N -6.491589 -0.240734 0.399172 0
M  V30 21 C -5.879268 -1.431214 0.872136 0
M  V30 22 N -4.791955 -1.930169 0.236286 0
M  V30 23 C -4.384995 -3.052963 0.852988 0
M  V30 24 C -3.369010 -3.959408 0.661035 0
M  V30 25 C -3.183090 -5.064614 1.483777 0
M  V30 26 C -4.100121 -5.192211 2.520546 0
M  V30 27 C -5.138858 -4.300265 2.748620 0
M  V30 28 C -5.254114 -3.234055 1.890733 0
M  V30 29 O -6.132959 -2.259602 1.883052 0
M  V30 30 N -3.510612 0.512075 1.406185 0
M  V30 31 N -2.342840 0.716375 0.837910 0
M  V30 32 C -1.733559 2.545238 -2.287213 0
M  V30 33 C -0.697447 2.894371 -3.128114 0
M  V30 34 C 0.576975 2.443895 -2.861023 0
M  V30 35 O 1.554489 2.847027 -3.763815 0
M  V30 36 C 4.141607 -0.880742 0.924763 0
M  V30 37 H 6.052830 -4.540342 4.034242 0
M  V30 38 H 7.648227 -3.726307 4.458273 0
M  V30 39 H 6.095379 -3.034715 4.989229 0
M  V30 40 H 7.420466 -1.585711 0.880689 0
M  V30 41 H 7.273539 -0.178098 -1.174106 0
M  V30 42 H 5.132868 0.707986 -1.782189 0
M  V30 43 H 1.912981 0.154230 0.125224 0
M  V30 44 H 0.002162 0.708159 -0.113482 0
M  V30 45 H -4.318966 2.061322 -1.275227 0
M  V30 46 H -6.043812 0.943740 2.061806 0
M  V30 47 H -6.507550 1.850391 0.583805 0
M  V30 48 H -7.271469 -0.187643 -0.292129 0
M  V30 49 H -2.670763 -3.839211 -0.149271 0
M  V30 50 H -2.399290 -5.800247 1.368892 0
M  V30 51 H -3.973216 -6.058379 3.184561 0
M  V30 52 H -5.840077 -4.415810 3.557940 0
M  V30 53 H -2.726003 2.909487 -2.514845 0
M  V30 54 H -0.918867 3.513872 -3.974862 0
M  V30 55 H 2.161379 3.605161 -3.507717 0
M  V30 56 H 3.266019 -1.105708 1.554383 0
M  V30 END ATOM
M  V30 BEGIN BOND
M  V30 1 1 1 2
M  V30 2 1 2 3
M  V30 3 2 3 4
M  V30 4 1 3 5
M  V30 5 2 5 6
M  V30 6 1 6 7
M  V30 7 2 7 8
M  V30 8 1 8 9
M  V30 9 1 9 10
M  V30 10 1 10 11
M  V30 11 2 11 12
M  V30 12 1 11 13
M  V30 13 2 13 14
M  V30 14 1 14 15
M  V30 15 1 15 16
M  V30 16 1 16 17
M  V30 17 2 17 18
M  V30 18 1 18 19
M  V30 19 1 19 20
M  V30 20 1 20 21
M  V30 21 2 21 22
M  V30 22 1 22 23
M  V30 23 2 23 24
M  V30 24 1 24 25
M  V30 25 2 25 26
M  V30 26 1 26 27
M  V30 27 2 27 28
M  V30 28 1 28 29
M  V30 29 1 18 30
M  V30 30 2 30 31
M  V30 31 2 15 32
M  V30 32 1 32 33
M  V30 33 2 33 34
M  V30 34 1 34 35
M  V30 35 2 9 36
M  V30 36 1 36 5
M  V30 37 1 34 13
M  V30 38 1 31 16
M  V30 39 1 29 21
M  V30 40 1 28 23
M  V30 41 1 1 37
M  V30 42 1 1 38
M  V30 43 1 1 39
M  V30 44 1 6 40
M  V30 45 1 7 41
M  V30 46 1 8 42
M  V30 47 1 10 43
M  V30 48 1 14 44
M  V30 49 1 17 45
M  V30 50 1 19 46
M  V30 51 1 19 47
M  V30 52 1 20 48
M  V30 53 1 24 49
M  V30 54 1 25 50
M  V30 55 1 26 51
M  V30 56 1 27 52
M  V30 57 1 32 53
M  V30 58 1 33 54
M  V30 59 1 35 55
M  V30 60 1 36 56
M  V30 END BOND
M  V30 END CTAB
M  END
>  <Dataset>  (779) 
ChEMBL_Kinases

>  <Ligand_Instance>  (779) 
nan

>  <PDB_ID>  (779) 
nan

>  <Standardized_SMILES>  (779) 
COC(=O)c1cccc(NC(=O)c2cc(-n3cc(CNc4nc5ccccc5o4)nn3)ccc2O)c1

>  <Name>  (779) 
nan

>  <Pocket>  (779) 
nan

>  <ATP_Site>  (779) 
nan

>  <Peripheral>  (779) 
nan

>  <Num_H_Atoms_ProtBoundConf>  (779) 
nan

>  <Num_Resolved_Atoms>  (779) 
nan

>  <Num_Not_Resolved_Atoms>  (779) 
nan

$$$$
CHEMBL3792612
     RDKit          3D

  0  0  0  0  0  0  0  0  0  0999 V3000
M  V30 BEGIN CTAB
M  V30 COUNTS 51 54 0 0 0
M  V30 BEGIN ATOM
M  V30 1 N -0.650086 -0.275162 3.878625 0
M  V30 2 C 0.502189 -1.085759 3.650643 0
M  V30 3 C 1.062665 -1.015793 2.256456 0
M  V30 4 C 1.486598 0.341578 1.861583 0
M  V30 5 O 0.894350 0.489573 0.752745 0
M  V30 6 N 2.330998 1.246278 2.536246 0
M  V30 7 C 2.538539 2.496703 1.867138 0
M  V30 8 C 1.764404 3.627230 2.027904 0
M  V30 9 C 2.080484 4.779799 1.311580 0
M  V30 10 C 3.148096 4.808792 0.449679 0
M  V30 11 C 3.466370 5.961098 -0.268382 0
M  V30 12 N 4.522482 5.978901 -1.116710 0
M  V30 13 C 5.276875 4.875757 -1.272794 0
M  V30 14 C 5.005726 3.706437 -0.585403 0
M  V30 15 C 3.919366 3.674384 0.292755 0
M  V30 16 C 3.624549 2.522837 0.991750 0
M  V30 17 C 0.179919 -1.546735 1.211524 0
M  V30 18 C 0.614788 -2.638701 0.481878 0
M  V30 19 C -0.239647 -3.111181 -0.491605 0
M  V30 20 C -1.500880 -2.594612 -0.812339 0
M  V30 21 O -2.256621 -3.174990 -1.822742 0
M  V30 22 C -3.148353 -4.167925 -1.580673 0
M  V30 23 O -2.484941 -3.669834 -0.635438 0
M  V30 24 C -4.103698 -5.231751 -1.321067 0
M  V30 25 C -4.222202 -5.637670 -0.008983 0
M  V30 26 C -5.129725 -6.647188 0.230286 0
M  V30 27 C -5.801804 -7.120035 -0.876524 0
M  V30 28 N -5.664116 -6.703367 -2.144186 0
M  V30 29 C -4.784003 -5.715270 -2.418533 0
M  V30 30 C -1.904870 -1.490864 -0.052356 0
M  V30 31 C -1.054985 -0.995853 0.938963 0
M  V30 32 H -0.670102 0.182213 4.830842 0
M  V30 33 H -1.484420 -0.935015 3.896082 0
M  V30 34 H 0.344043 -2.174230 3.862813 0
M  V30 35 H 1.314850 -0.771514 4.335875 0
M  V30 36 H 1.991034 -1.633083 2.272208 0
M  V30 37 H 2.694333 0.881900 3.438590 0
M  V30 38 H 0.947980 3.533395 2.715929 0
M  V30 39 H 1.461992 5.646637 1.454711 0
M  V30 40 H 2.823905 6.808773 -0.098427 0
M  V30 41 H 6.096613 4.954042 -1.957243 0
M  V30 42 H 5.642201 2.834587 -0.740793 0
M  V30 43 H 4.292427 1.671526 0.802995 0
M  V30 44 H 1.564300 -3.151646 0.609238 0
M  V30 45 H 0.069969 -3.978086 -1.093326 0
M  V30 46 H -3.641066 -5.194051 0.785725 0
M  V30 47 H -5.302457 -7.041411 1.219967 0
M  V30 48 H -6.535343 -7.913296 -0.789189 0
M  V30 49 H -4.607835 -5.317427 -3.408150 0
M  V30 50 H -2.857681 -1.076457 -0.272421 0
M  V30 51 H -1.369505 -0.140241 1.527213 0
M  V30 END ATOM
M  V30 BEGIN BOND
M  V30 1 1 1 2
M  V30 2 1 2 3
M  V30 3 1 3 4
M  V30 4 2 4 5
M  V30 5 1 4 6
M  V30 6 1 6 7
M  V30 7 2 7 8
M  V30 8 1 8 9
M  V30 9 2 9 10
M  V30 10 1 10 11
M  V30 11 2 11 12
M  V30 12 1 12 13
M  V30 13 2 13 14
M  V30 14 1 14 15
M  V30 15 2 15 16
M  V30 16 1 3 17
M  V30 17 2 17 18
M  V30 18 1 18 19
M  V30 19 2 19 20
M  V30 20 1 20 21
M  V30 21 1 21 22
M  V30 22 2 22 23
M  V30 23 1 22 24
M  V30 24 2 24 25
M  V30 25 1 25 26
M  V30 26 2 26 27
M  V30 27 1 27 28
M  V30 28 2 28 29
M  V30 29 1 20 30
M  V30 30 2 30 31
M  V30 31 1 16 7
M  V30 32 1 31 17
M  V30 33 1 15 10
M  V30 34 1 29 24
M  V30 35 1 1 32
M  V30 36 1 1 33
M  V30 37 1 2 34
M  V30 38 1 2 35
M  V30 39 1 3 36
M  V30 40 1 6 37
M  V30 41 1 8 38
M  V30 42 1 9 39
M  V30 43 1 11 40
M  V30 44 1 13 41
M  V30 45 1 14 42
M  V30 46 1 16 43
M  V30 47 1 18 44
M  V30 48 1 19 45
M  V30 49 1 25 46
M  V30 50 1 26 47
M  V30 51 1 27 48
M  V30 52 1 29 49
M  V30 53 1 30 50
M  V30 54 1 31 51
M  V30 END BOND
M  V30 END CTAB
M  END
>  <Dataset>  (780) 
ChEMBL_Kinases

>  <Ligand_Instance>  (780) 
nan

>  <PDB_ID>  (780) 
nan

>  <Standardized_SMILES>  (780) 
NCC(C(=O)Nc1ccc2cnccc2c1)c1ccc(OC(=O)c2cccnc2)cc1

>  <Name>  (780) 
nan

>  <Pocket>  (780) 
nan

>  <ATP_Site>  (780) 
nan

>  <Peripheral>  (780) 
nan

>  <Num_H_Atoms_ProtBoundConf>  (780) 
nan

>  <Num_Resolved_Atoms>  (780) 
nan

>  <Num_Not_Resolved_Atoms>  (780) 
nan

$$$$
CHEMBL3792603
     RDKit          3D

  0  0  0  0  0  0  0  0  0  0999 V3000
M  V30 BEGIN CTAB
M  V30 COUNTS 58 61 0 0 0
M  V30 BEGIN ATOM
M  V30 1 C 7.105192 -3.539814 2.381723 0
M  V30 2 C 6.106885 -2.527247 1.948832 0
M  V30 3 C 4.773486 -2.836042 1.845047 0
M  V30 4 C 3.869122 -1.897792 1.447397 0
M  V30 5 C 4.420213 -0.665216 1.175160 0
M  V30 6 C 3.533783 0.395755 0.744996 0
M  V30 7 O 2.274467 0.217331 0.615078 0
M  V30 8 O 2.957835 1.543701 0.334487 0
M  V30 9 C 1.573472 1.679350 0.096908 0
M  V30 10 C 0.809269 2.081779 1.196237 0
M  V30 11 C -0.577368 2.253683 1.093933 0
M  V30 12 C -1.131690 1.998109 -0.165080 0
M  V30 13 C -2.598679 2.160525 -0.342855 0
M  V30 14 C -2.867300 3.265858 -1.309095 0
M  V30 15 N -4.255051 3.513150 -1.559142 0
M  V30 16 C -3.264894 0.900914 -0.668604 0
M  V30 17 O -3.867961 0.875460 -1.767046 0
M  V30 18 N -3.259908 -0.240290 0.163451 0
M  V30 19 C -3.868859 -1.493770 -0.059975 0
M  V30 20 C -4.609491 -1.886830 -1.146198 0
M  V30 21 C -5.183997 -3.127170 -1.316930 0
M  V30 22 C -5.019527 -4.074767 -0.332430 0
M  V30 23 C -5.567660 -5.333661 -0.441136 0
M  V30 24 N -5.385614 -6.243142 0.548376 0
M  V30 25 C -4.664717 -5.864705 1.608516 0
M  V30 26 C -4.079607 -4.619862 1.795577 0
M  V30 27 C -4.280812 -3.715510 0.774522 0
M  V30 28 C -3.724534 -2.461105 0.901503 0
M  V30 29 C -0.384379 1.600460 -1.255417 0
M  V30 30 C 0.979959 1.439383 -1.124479 0
M  V30 31 C 5.748951 -0.306728 1.264044 0
M  V30 32 C 6.238228 1.049402 0.947875 0
M  V30 33 C 6.632979 -1.293873 1.672764 0
M  V30 34 H 7.229228 -3.493808 3.500863 0
M  V30 35 H 6.747672 -4.564004 2.171866 0
M  V30 36 H 8.080784 -3.419246 1.876560 0
M  V30 37 H 4.406911 -3.846963 2.080642 0
M  V30 38 H 2.804961 -2.050075 1.337702 0
M  V30 39 H 1.267636 2.275714 2.171462 0
M  V30 40 H -1.200579 2.561276 1.912854 0
M  V30 41 H -3.045908 2.485942 0.644167 0
M  V30 42 H -2.380789 3.082594 -2.293392 0
M  V30 43 H -2.440066 4.217823 -0.932635 0
M  V30 44 H -4.744128 4.114208 -0.885750 0
M  V30 45 H -4.564139 3.528322 -2.528638 0
M  V30 46 H -2.720997 -0.070975 1.038966 0
M  V30 47 H -4.770391 -1.185239 -1.947173 0
M  V30 48 H -5.753558 -3.359637 -2.202466 0
M  V30 49 H -6.146973 -5.614003 -1.310030 0
M  V30 50 H -4.531713 -6.613145 2.391571 0
M  V30 51 H -3.509023 -4.374338 2.673816 0
M  V30 52 H -3.151408 -2.240066 1.801641 0
M  V30 53 H -0.795980 1.402818 -2.220233 0
M  V30 54 H 1.653043 1.136565 -1.899074 0
M  V30 55 H 5.466881 1.786127 1.179841 0
M  V30 56 H 6.605828 1.125618 -0.107526 0
M  V30 57 H 7.122185 1.285718 1.607999 0
M  V30 58 H 7.683332 -1.056414 1.756193 0
M  V30 END ATOM
M  V30 BEGIN BOND
M  V30 1 1 1 2
M  V30 2 2 2 3
M  V30 3 1 3 4
M  V30 4 2 4 5
M  V30 5 1 5 6
M  V30 6 2 6 7
M  V30 7 1 6 8
M  V30 8 1 8 9
M  V30 9 2 9 10
M  V30 10 1 10 11
M  V30 11 2 11 12
M  V30 12 1 12 13
M  V30 13 1 13 14
M  V30 14 1 14 15
M  V30 15 1 13 16
M  V30 16 2 16 17
M  V30 17 1 16 18
M  V30 18 1 18 19
M  V30 19 2 19 20
M  V30 20 1 20 21
M  V30 21 2 21 22
M  V30 22 1 22 23
M  V30 23 2 23 24
M  V30 24 1 24 25
M  V30 25 2 25 26
M  V30 26 1 26 27
M  V30 27 2 27 28
M  V30 28 1 12 29
M  V30 29 2 29 30
M  V30 30 1 5 31
M  V30 31 1 31 32
M  V30 32 2 31 33
M  V30 33 1 33 2
M  V30 34 1 30 9
M  V30 35 1 28 19
M  V30 36 1 27 22
M  V30 37 1 1 34
M  V30 38 1 1 35
M  V30 39 1 1 36
M  V30 40 1 3 37
M  V30 41 1 4 38
M  V30 42 1 10 39
M  V30 43 1 11 40
M  V30 44 1 13 41
M  V30 45 1 14 42
M  V30 46 1 14 43
M  V30 47 1 15 44
M  V30 48 1 15 45
M  V30 49 1 18 46
M  V30 50 1 20 47
M  V30 51 1 21 48
M  V30 52 1 23 49
M  V30 53 1 25 50
M  V30 54 1 26 51
M  V30 55 1 28 52
M  V30 56 1 29 53
M  V30 57 1 30 54
M  V30 58 1 32 55
M  V30 59 1 32 56
M  V30 60 1 32 57
M  V30 61 1 33 58
M  V30 END BOND
M  V30 END CTAB
M  END
>  <Dataset>  (781) 
ChEMBL_Kinases

>  <Ligand_Instance>  (781) 
nan

>  <PDB_ID>  (781) 
nan

>  <Standardized_SMILES>  (781) 
Cc1ccc(C(=O)Oc2ccc(C(CN)C(=O)Nc3ccc4cnccc4c3)cc2)c(C)c1

>  <Name>  (781) 
nan

>  <Pocket>  (781) 
nan

>  <ATP_Site>  (781) 
nan

>  <Peripheral>  (781) 
nan

>  <Num_H_Atoms_ProtBoundConf>  (781) 
nan

>  <Num_Resolved_Atoms>  (781) 
nan

>  <Num_Not_Resolved_Atoms>  (781) 
nan

$$$$
CHEMBL3792599
     RDKit          3D

  0  0  0  0  0  0  0  0  0  0999 V3000
M  V30 BEGIN CTAB
M  V30 COUNTS 55 58 0 0 0
M  V30 BEGIN ATOM
M  V30 1 N 1.111044 -2.716925 3.981938 0
M  V30 2 C 0.782887 -1.709729 4.919269 0
M  V30 3 C 0.432231 -0.444526 4.165446 0
M  V30 4 C 1.633816 -0.049974 3.372716 0
M  V30 5 O 2.786785 -0.541548 3.317494 0
M  V30 6 N 1.436347 1.080450 2.526529 0
M  V30 7 C 2.303974 1.740239 1.637485 0
M  V30 8 C 3.641825 1.494070 1.373046 0
M  V30 9 C 4.385840 2.174765 0.466337 0
M  V30 10 C 3.826724 3.197303 -0.279287 0
M  V30 11 C 4.553011 3.899571 -1.208901 0
M  V30 12 N 3.960930 4.882192 -1.911975 0
M  V30 13 C 2.669668 5.184378 -1.716405 0
M  V30 14 C 1.932815 4.496566 -0.796812 0
M  V30 15 C 2.510205 3.486883 -0.062857 0
M  V30 16 C 1.810027 2.766361 0.866839 0
M  V30 17 C -0.703954 -0.718752 3.226065 0
M  V30 18 C -2.007239 -0.318979 3.382263 0
M  V30 19 C -2.927052 -0.623076 2.409562 0
M  V30 20 C -2.642745 -1.313651 1.260558 0
M  V30 21 O -3.254826 -1.731954 0.213476 0
M  V30 22 C -3.850967 -2.099398 -0.828335 0
M  V30 23 O -3.430524 -0.971261 -0.553734 0
M  V30 24 C -4.417450 -3.390033 -1.322525 0
M  V30 25 C -3.562364 -3.871155 -2.456628 0
M  V30 26 C -2.448202 -4.549734 -1.944080 0
M  V30 27 C -1.437225 -5.146769 -2.703911 0
M  V30 28 C -1.576533 -5.042577 -4.081855 0
M  V30 29 C -2.671769 -4.373009 -4.584684 0
M  V30 30 C -3.652537 -3.792451 -3.826852 0
M  V30 31 C -1.284789 -1.709721 1.135076 0
M  V30 32 C -0.286380 -1.432922 2.092095 0
M  V30 33 H 2.067541 -2.841304 3.703134 0
M  V30 34 H 0.502318 -3.507030 3.909252 0
M  V30 35 H 1.593522 -1.524534 5.650933 0
M  V30 36 H -0.155078 -2.054936 5.452161 0
M  V30 37 H 0.231755 0.322907 4.901404 0
M  V30 38 H 0.452710 1.493617 2.594827 0
M  V30 39 H 4.097643 0.714741 1.929212 0
M  V30 40 H 5.425091 1.951979 0.297783 0
M  V30 41 H 5.587445 3.704145 -1.406259 0
M  V30 42 H 2.129468 5.970631 -2.251923 0
M  V30 43 H 0.898342 4.720157 -0.625106 0
M  V30 44 H 0.766400 3.075400 0.962502 0
M  V30 45 H -2.247300 0.228704 4.279087 0
M  V30 46 H -3.959303 -0.339585 2.470580 0
M  V30 47 H -4.465093 -4.149566 -0.548301 0
M  V30 48 H -5.442483 -3.213984 -1.745554 0
M  V30 49 H -2.216617 -4.697516 -0.881080 0
M  V30 50 H -0.588363 -5.662112 -2.337731 0
M  V30 51 H -0.863838 -5.460892 -4.793928 0
M  V30 52 H -2.830146 -4.256094 -5.666230 0
M  V30 53 H -4.546255 -3.249056 -4.100011 0
M  V30 54 H -0.854726 -2.272966 0.300339 0
M  V30 55 H 0.738472 -1.748276 1.944802 0
M  V30 END ATOM
M  V30 BEGIN BOND
M  V30 1 1 1 2
M  V30 2 1 2 3
M  V30 3 1 3 4
M  V30 4 2 4 5
M  V30 5 1 4 6
M  V30 6 1 6 7
M  V30 7 2 7 8
M  V30 8 1 8 9
M  V30 9 2 9 10
M  V30 10 1 10 11
M  V30 11 2 11 12
M  V30 12 1 12 13
M  V30 13 2 13 14
M  V30 14 1 14 15
M  V30 15 2 15 16
M  V30 16 1 3 17
M  V30 17 2 17 18
M  V30 18 1 18 19
M  V30 19 2 19 20
M  V30 20 1 20 21
M  V30 21 1 21 22
M  V30 22 2 22 23
M  V30 23 1 22 24
M  V30 24 1 24 25
M  V30 25 2 25 26
M  V30 26 1 26 27
M  V30 27 2 27 28
M  V30 28 1 28 29
M  V30 29 2 29 30
M  V30 30 1 20 31
M  V30 31 2 31 32
M  V30 32 1 16 7
M  V30 33 1 32 17
M  V30 34 1 15 10
M  V30 35 1 30 25
M  V30 36 1 1 33
M  V30 37 1 1 34
M  V30 38 1 2 35
M  V30 39 1 2 36
M  V30 40 1 3 37
M  V30 41 1 6 38
M  V30 42 1 8 39
M  V30 43 1 9 40
M  V30 44 1 11 41
M  V30 45 1 13 42
M  V30 46 1 14 43
M  V30 47 1 16 44
M  V30 48 1 18 45
M  V30 49 1 19 46
M  V30 50 1 24 47
M  V30 51 1 24 48
M  V30 52 1 26 49
M  V30 53 1 27 50
M  V30 54 1 28 51
M  V30 55 1 29 52
M  V30 56 1 30 53
M  V30 57 1 31 54
M  V30 58 1 32 55
M  V30 END BOND
M  V30 END CTAB
M  END
>  <Dataset>  (782) 
ChEMBL_Kinases

>  <Ligand_Instance>  (782) 
nan

>  <PDB_ID>  (782) 
nan

>  <Standardized_SMILES>  (782) 
NCC(C(=O)Nc1ccc2cnccc2c1)c1ccc(OC(=O)Cc2ccccc2)cc1

>  <Name>  (782) 
nan

>  <Pocket>  (782) 
nan

>  <ATP_Site>  (782) 
nan

>  <Peripheral>  (782) 
nan

>  <Num_H_Atoms_ProtBoundConf>  (782) 
nan

>  <Num_Resolved_Atoms>  (782) 
nan

>  <Num_Not_Resolved_Atoms>  (782) 
nan

$$$$
CHEMBL3792593
     RDKit          3D

  0  0  0  0  0  0  0  0  0  0999 V3000
M  V30 BEGIN CTAB
M  V30 COUNTS 53 56 0 0 0
M  V30 BEGIN ATOM
M  V30 1 N -0.878823 1.977908 3.237001 0
M  V30 2 C -0.006003 0.887149 3.590173 0
M  V30 3 C 0.224694 -0.085280 2.460036 0
M  V30 4 C 0.832735 0.539813 1.285896 0
M  V30 5 O 0.536316 0.610229 0.065868 0
M  V30 6 N 2.036965 1.215711 1.646115 0
M  V30 7 C 2.918659 1.945384 0.788330 0
M  V30 8 C 2.635063 3.309164 0.645440 0
M  V30 9 C 3.409531 4.149954 -0.160509 0
M  V30 10 C 4.495742 3.594851 -0.836419 0
M  V30 11 C 5.312523 4.351415 -1.652357 0
M  V30 12 N 6.363415 3.824413 -2.309012 0
M  V30 13 C 6.645824 2.511466 -2.178543 0
M  V30 14 C 5.859478 1.685237 -1.367346 0
M  V30 15 C 4.783664 2.231370 -0.696874 0
M  V30 16 C 4.012475 1.407615 0.102100 0
M  V30 17 C -1.025067 -0.785502 2.069160 0
M  V30 18 C -1.052412 -2.144751 2.292084 0
M  V30 19 C -2.195273 -2.820208 1.939911 0
M  V30 20 C -3.322504 -2.266968 1.382190 0
M  V30 21 O -4.545231 -2.629309 0.941960 0
M  V30 22 C -5.097196 -3.898817 0.923244 0
M  V30 23 C -4.373901 -4.889832 0.095048 0
M  V30 24 C -4.782196 -4.748912 -1.241961 0
M  V30 25 C -4.281126 -5.564012 -2.262908 0
M  V30 26 C -3.356641 -6.541692 -1.965265 0
M  V30 27 C -2.962379 -6.673419 -0.654257 0
M  V30 28 C -3.450662 -5.880294 0.337436 0
M  V30 29 C -3.249192 -0.873404 1.172321 0
M  V30 30 C -2.103008 -0.133921 1.514958 0
M  V30 31 H -0.445487 2.661728 2.603320 0
M  V30 32 H -1.215371 2.392982 4.135188 0
M  V30 33 H 0.999375 1.351900 3.798757 0
M  V30 34 H -0.283396 0.379535 4.511552 0
M  V30 35 H 0.978146 -0.823004 2.863407 0
M  V30 36 H 2.583784 1.374451 2.516436 0
M  V30 37 H 1.787206 3.756968 1.169391 0
M  V30 38 H 3.185773 5.195704 -0.265423 0
M  V30 39 H 5.019971 5.406975 -1.707832 0
M  V30 40 H 7.499632 2.109592 -2.718968 0
M  V30 41 H 6.108783 0.620454 -1.276945 0
M  V30 42 H 4.185273 0.356839 0.246876 0
M  V30 43 H -0.296326 -2.768235 2.709336 0
M  V30 44 H -2.348702 -3.865989 2.064882 0
M  V30 45 H -5.012957 -4.281169 1.995332 0
M  V30 46 H -6.190336 -3.886294 0.670881 0
M  V30 47 H -5.500226 -4.033749 -1.656224 0
M  V30 48 H -4.557389 -5.498553 -3.291244 0
M  V30 49 H -2.917886 -7.214214 -2.689354 0
M  V30 50 H -2.246899 -7.400822 -0.302873 0
M  V30 51 H -3.211823 -5.918017 1.378617 0
M  V30 52 H -3.973826 -0.161781 0.752584 0
M  V30 53 H -1.946726 0.925359 1.396083 0
M  V30 END ATOM
M  V30 BEGIN BOND
M  V30 1 1 1 2
M  V30 2 1 2 3
M  V30 3 1 3 4
M  V30 4 2 4 5
M  V30 5 1 4 6
M  V30 6 1 6 7
M  V30 7 2 7 8
M  V30 8 1 8 9
M  V30 9 2 9 10
M  V30 10 1 10 11
M  V30 11 2 11 12
M  V30 12 1 12 13
M  V30 13 2 13 14
M  V30 14 1 14 15
M  V30 15 2 15 16
M  V30 16 1 3 17
M  V30 17 2 17 18
M  V30 18 1 18 19
M  V30 19 2 19 20
M  V30 20 1 20 21
M  V30 21 1 21 22
M  V30 22 1 22 23
M  V30 23 2 23 24
M  V30 24 1 24 25
M  V30 25 2 25 26
M  V30 26 1 26 27
M  V30 27 2 27 28
M  V30 28 1 20 29
M  V30 29 2 29 30
M  V30 30 1 16 7
M  V30 31 1 30 17
M  V30 32 1 15 10
M  V30 33 1 28 23
M  V30 34 1 1 31
M  V30 35 1 1 32
M  V30 36 1 2 33
M  V30 37 1 2 34
M  V30 38 1 3 35
M  V30 39 1 6 36
M  V30 40 1 8 37
M  V30 41 1 9 38
M  V30 42 1 11 39
M  V30 43 1 13 40
M  V30 44 1 14 41
M  V30 45 1 16 42
M  V30 46 1 18 43
M  V30 47 1 19 44
M  V30 48 1 22 45
M  V30 49 1 22 46
M  V30 50 1 24 47
M  V30 51 1 25 48
M  V30 52 1 26 49
M  V30 53 1 27 50
M  V30 54 1 28 51
M  V30 55 1 29 52
M  V30 56 1 30 53
M  V30 END BOND
M  V30 END CTAB
M  END
>  <Dataset>  (783) 
ChEMBL_Kinases

>  <Ligand_Instance>  (783) 
nan

>  <PDB_ID>  (783) 
nan

>  <Standardized_SMILES>  (783) 
NCC(C(=O)Nc1ccc2cnccc2c1)c1ccc(OCc2ccccc2)cc1

>  <Name>  (783) 
nan

>  <Pocket>  (783) 
nan

>  <ATP_Site>  (783) 
nan

>  <Peripheral>  (783) 
nan

>  <Num_H_Atoms_ProtBoundConf>  (783) 
nan

>  <Num_Resolved_Atoms>  (783) 
nan

>  <Num_Not_Resolved_Atoms>  (783) 
nan

$$$$
CHEMBL3792581
     RDKit          3D

  0  0  0  0  0  0  0  0  0  0999 V3000
M  V30 BEGIN CTAB
M  V30 COUNTS 40 42 0 0 0
M  V30 BEGIN ATOM
M  V30 1 N -1.556136 -3.056868 2.237276 0
M  V30 2 C -0.507404 -2.723207 3.173509 0
M  V30 3 C -0.006467 -1.304843 3.016327 0
M  V30 4 C 0.547240 -1.048505 1.677372 0
M  V30 5 O -0.213102 -0.053233 1.557752 0
M  V30 6 N 1.538283 -1.732932 0.942234 0
M  V30 7 C 1.745177 -1.126761 -0.304221 0
M  V30 8 C 0.904517 -1.672269 -1.287568 0
M  V30 9 C 0.929794 -1.226012 -2.612667 0
M  V30 10 C 1.832706 -0.218401 -2.884893 0
M  V30 11 C 1.871460 0.237919 -4.199012 0
M  V30 12 O 1.086039 -0.230620 -5.246258 0
M  V30 13 N 2.730461 1.215782 -4.519165 0
M  V30 14 C 3.566483 1.776263 -3.597688 0
M  V30 15 C 3.562609 1.352614 -2.274757 0
M  V30 16 C 2.669594 0.334480 -1.936939 0
M  V30 17 C 2.616094 -0.131491 -0.640277 0
M  V30 18 C -1.024225 -0.305868 3.396420 0
M  V30 19 C -2.205273 -0.171855 2.685517 0
M  V30 20 C -3.142897 0.768557 3.056388 0
M  V30 21 C -2.952433 1.593718 4.120802 0
M  V30 22 F -3.801789 2.553853 4.577910 0
M  V30 23 C -1.792739 1.478868 4.837653 0
M  V30 24 C -0.836581 0.547846 4.490806 0
M  V30 25 H -2.516530 -3.050070 2.662081 0
M  V30 26 H -1.396083 -4.062939 1.937623 0
M  V30 27 H 0.381714 -3.387040 3.060789 0
M  V30 28 H -0.892929 -2.909716 4.196690 0
M  V30 29 H 0.841994 -1.206036 3.724388 0
M  V30 30 H 1.844918 -2.519792 1.559710 0
M  V30 31 H 0.173527 -2.471776 -1.117224 0
M  V30 32 H 0.285131 -1.646103 -3.364055 0
M  V30 33 H 0.128681 -0.561584 -5.085737 0
M  V30 34 H 4.253812 2.564536 -3.869800 0
M  V30 35 H 4.188181 1.742688 -1.489650 0
M  V30 36 H 3.222152 0.238038 0.144734 0
M  V30 37 H -2.411840 -0.801237 1.828807 0
M  V30 38 H -4.073682 0.888097 2.511983 0
M  V30 39 H -1.496421 2.069458 5.715249 0
M  V30 40 H 0.109444 0.407997 5.023720 0
M  V30 END ATOM
M  V30 BEGIN BOND
M  V30 1 1 1 2
M  V30 2 1 2 3
M  V30 3 1 3 4
M  V30 4 2 4 5
M  V30 5 1 4 6
M  V30 6 1 6 7
M  V30 7 2 7 8
M  V30 8 1 8 9
M  V30 9 2 9 10
M  V30 10 1 10 11
M  V30 11 1 11 12
M  V30 12 2 11 13
M  V30 13 1 13 14
M  V30 14 2 14 15
M  V30 15 1 15 16
M  V30 16 2 16 17
M  V30 17 1 3 18
M  V30 18 2 18 19
M  V30 19 1 19 20
M  V30 20 2 20 21
M  V30 21 1 21 22
M  V30 22 1 21 23
M  V30 23 2 23 24
M  V30 24 1 17 7
M  V30 25 1 24 18
M  V30 26 1 16 10
M  V30 27 1 1 25
M  V30 28 1 1 26
M  V30 29 1 2 27
M  V30 30 1 2 28
M  V30 31 1 3 29
M  V30 32 1 6 30
M  V30 33 1 8 31
M  V30 34 1 9 32
M  V30 35 1 12 33
M  V30 36 1 14 34
M  V30 37 1 15 35
M  V30 38 1 17 36
M  V30 39 1 19 37
M  V30 40 1 20 38
M  V30 41 1 23 39
M  V30 42 1 24 40
M  V30 END BOND
M  V30 END CTAB
M  END
>  <Dataset>  (784) 
ChEMBL_Kinases

>  <Ligand_Instance>  (784) 
nan

>  <PDB_ID>  (784) 
nan

>  <Standardized_SMILES>  (784) 
NCC(C(=O)Nc1ccc2c(O)nccc2c1)c1ccc(F)cc1

>  <Name>  (784) 
nan

>  <Pocket>  (784) 
nan

>  <ATP_Site>  (784) 
nan

>  <Peripheral>  (784) 
nan

>  <Num_H_Atoms_ProtBoundConf>  (784) 
nan

>  <Num_Resolved_Atoms>  (784) 
nan

>  <Num_Not_Resolved_Atoms>  (784) 
nan

$$$$
CHEMBL3792563
     RDKit          3D

  0  0  0  0  0  0  0  0  0  0999 V3000
M  V30 BEGIN CTAB
M  V30 COUNTS 54 57 0 0 0
M  V30 BEGIN ATOM
M  V30 1 C 8.908822 -0.339745 -1.163107 0
M  V30 2 O 8.089346 0.465766 -0.301851 0
M  V30 3 C 6.694998 0.351809 -0.439023 0
M  V30 4 O 6.329247 -0.466897 -1.326983 0
M  V30 5 C 5.824059 1.156941 0.421808 0
M  V30 6 C 6.194309 2.045393 1.386023 0
M  V30 7 C 5.223877 2.727825 2.113812 0
M  V30 8 C 3.876635 2.538893 1.895816 0
M  V30 9 C 3.519867 1.632183 0.911989 0
M  V30 10 N 2.124990 1.457153 0.709167 0
M  V30 11 C 1.304568 2.196514 -0.187548 0
M  V30 12 O 1.826641 3.097807 -0.883036 0
M  V30 13 C -0.124444 1.939040 -0.323551 0
M  V30 14 C -0.795891 0.977423 0.386409 0
M  V30 15 C -2.167536 0.743398 0.243022 0
M  V30 16 N -2.766090 -0.281009 1.028494 0
M  V30 17 C -2.317156 -1.532512 1.232356 0
M  V30 18 C -3.164345 -2.275926 2.068106 0
M  V30 19 C -2.788015 -3.691665 2.392342 0
M  V30 20 N -3.332481 -4.571986 1.388311 0
M  V30 21 C -4.698328 -4.855993 1.130707 0
M  V30 22 C -5.750058 -4.342903 1.843566 0
M  V30 23 C -7.082508 -4.596766 1.607258 0
M  V30 24 C -7.413033 -5.441727 0.563523 0
M  V30 25 C -6.388115 -5.975840 -0.173624 0
M  V30 26 C -5.083378 -5.684189 0.111826 0
M  V30 27 N -4.120715 -1.373537 2.326820 0
M  V30 28 N -3.883224 -0.241169 1.729381 0
M  V30 29 C -2.880252 1.514221 -0.653384 0
M  V30 30 C -2.253452 2.495046 -1.392820 0
M  V30 31 C -0.896211 2.667693 -1.196668 0
M  V30 32 O -0.312932 3.674680 -1.971585 0
M  V30 33 C 4.475640 0.950125 0.184439 0
M  V30 34 H 8.386944 -1.302664 -1.356744 0
M  V30 35 H 9.848788 -0.547440 -0.633498 0
M  V30 36 H 9.040996 0.239312 -2.094082 0
M  V30 37 H 7.258793 2.152792 1.513121 0
M  V30 38 H 5.583095 3.406702 2.851025 0
M  V30 39 H 3.158899 3.092201 2.486991 0
M  V30 40 H 1.729019 0.697958 1.306494 0
M  V30 41 H -0.264270 0.361782 1.092457 0
M  V30 42 H -1.386104 -1.851546 0.760584 0
M  V30 43 H -1.688914 -3.808092 2.406359 0
M  V30 44 H -3.182997 -3.942293 3.409386 0
M  V30 45 H -2.644478 -5.078344 0.754482 0
M  V30 46 H -5.572368 -3.683975 2.675238 0
M  V30 47 H -7.879692 -4.161541 2.205415 0
M  V30 48 H -8.426820 -5.695905 0.306880 0
M  V30 49 H -6.650665 -6.644081 -0.999291 0
M  V30 50 H -4.341346 -6.161191 -0.535949 0
M  V30 51 H -3.940120 1.350692 -0.779984 0
M  V30 52 H -2.809600 3.112481 -2.106683 0
M  V30 53 H -0.553565 3.713519 -2.955890 0
M  V30 54 H 4.050528 0.266131 -0.559606 0
M  V30 END ATOM
M  V30 BEGIN BOND
M  V30 1 1 1 2
M  V30 2 1 2 3
M  V30 3 2 3 4
M  V30 4 1 3 5
M  V30 5 2 5 6
M  V30 6 1 6 7
M  V30 7 2 7 8
M  V30 8 1 8 9
M  V30 9 1 9 10
M  V30 10 1 10 11
M  V30 11 2 11 12
M  V30 12 1 11 13
M  V30 13 2 13 14
M  V30 14 1 14 15
M  V30 15 1 15 16
M  V30 16 1 16 17
M  V30 17 2 17 18
M  V30 18 1 18 19
M  V30 19 1 19 20
M  V30 20 1 20 21
M  V30 21 2 21 22
M  V30 22 1 22 23
M  V30 23 2 23 24
M  V30 24 1 24 25
M  V30 25 2 25 26
M  V30 26 1 18 27
M  V30 27 2 27 28
M  V30 28 2 15 29
M  V30 29 1 29 30
M  V30 30 2 30 31
M  V30 31 1 31 32
M  V30 32 2 9 33
M  V30 33 1 33 5
M  V30 34 1 31 13
M  V30 35 1 28 16
M  V30 36 1 26 21
M  V30 37 1 1 34
M  V30 38 1 1 35
M  V30 39 1 1 36
M  V30 40 1 6 37
M  V30 41 1 7 38
M  V30 42 1 8 39
M  V30 43 1 10 40
M  V30 44 1 14 41
M  V30 45 1 17 42
M  V30 46 1 19 43
M  V30 47 1 19 44
M  V30 48 1 20 45
M  V30 49 1 22 46
M  V30 50 1 23 47
M  V30 51 1 24 48
M  V30 52 1 25 49
M  V30 53 1 26 50
M  V30 54 1 29 51
M  V30 55 1 30 52
M  V30 56 1 32 53
M  V30 57 1 33 54
M  V30 END BOND
M  V30 END CTAB
M  END
>  <Dataset>  (785) 
ChEMBL_Kinases

>  <Ligand_Instance>  (785) 
nan

>  <PDB_ID>  (785) 
nan

>  <Standardized_SMILES>  (785) 
COC(=O)c1cccc(NC(=O)c2cc(-n3cc(CNc4ccccc4)nn3)ccc2O)c1

>  <Name>  (785) 
nan

>  <Pocket>  (785) 
nan

>  <ATP_Site>  (785) 
nan

>  <Peripheral>  (785) 
nan

>  <Num_H_Atoms_ProtBoundConf>  (785) 
nan

>  <Num_Resolved_Atoms>  (785) 
nan

>  <Num_Not_Resolved_Atoms>  (785) 
nan

$$$$
CHEMBL5073900
     RDKit          3D

  0  0  0  0  0  0  0  0  0  0999 V3000
M  V30 BEGIN CTAB
M  V30 COUNTS 47 50 0 0 0
M  V30 BEGIN ATOM
M  V30 1 C 5.503437 -4.477126 2.329743 0
M  V30 2 C 4.612004 -3.379719 2.809104 0
M  V30 3 N 4.474190 -3.036353 4.090327 0
M  V30 4 N 3.626026 -2.025681 4.231752 0
M  V30 5 C 3.229830 -1.740641 2.986627 0
M  V30 6 C 3.821355 -2.568341 2.029452 0
M  V30 7 N 3.649011 -2.593689 0.612391 0
M  V30 8 C 2.759080 -1.591266 0.109320 0
M  V30 9 N 3.043217 -0.544350 -0.689065 0
M  V30 10 C 2.076844 0.313008 -1.057365 0
M  V30 11 N 2.406891 1.413888 -1.896935 0
M  V30 12 C 0.773605 0.154688 -0.636962 0
M  V30 13 C -0.423989 0.811660 -0.810235 0
M  V30 14 C -0.564190 1.999088 -1.603640 0
M  V30 15 N -0.693851 2.943983 -2.246837 0
M  V30 16 C -1.428793 0.161224 -0.116807 0
M  V30 17 N -2.791894 0.551493 -0.072039 0
M  V30 18 C -4.050651 0.040078 -0.546285 0
M  V30 19 C -5.120588 0.865823 0.116278 0
M  V30 20 C -4.421737 1.518789 1.264238 0
M  V30 21 C -3.054390 1.809922 0.623995 0 CFG=1
M  V30 22 C -2.096426 2.138606 1.707168 0
M  V30 23 N -0.824140 -0.902404 0.481657 0
M  V30 24 C -1.509721 -1.876460 1.321184 0
M  V30 25 C 0.485009 -0.933303 0.191492 0
M  V30 26 N 1.478404 -1.780114 0.546514 0
M  V30 27 H 4.853527 -5.303647 1.988200 0
M  V30 28 H 6.162561 -4.180036 1.507172 0
M  V30 29 H 6.170850 -4.821270 3.160395 0
M  V30 30 H 3.279896 -1.500943 5.075399 0
M  V30 31 H 2.516960 -0.946207 2.722541 0
M  V30 32 H 4.189725 -3.323147 0.101415 0
M  V30 33 H 2.227039 1.672240 -2.873542 0
M  V30 34 H 2.945799 2.281414 -1.710071 0
M  V30 35 H -4.154418 0.107397 -1.654933 0
M  V30 36 H -4.212325 -1.027210 -0.208128 0
M  V30 37 H -5.932270 0.214395 0.552666 0
M  V30 38 H -5.566401 1.614178 -0.580167 0
M  V30 39 H -4.218683 0.770164 2.049857 0
M  V30 40 H -4.891795 2.456993 1.627990 0
M  V30 41 H -3.154927 2.584389 -0.165920 0
M  V30 42 H -1.722779 1.173907 2.139718 0
M  V30 43 H -1.255826 2.803576 1.411591 0
M  V30 44 H -2.636631 2.657891 2.537519 0
M  V30 45 H -2.446501 -2.238191 0.866931 0
M  V30 46 H -0.877592 -2.777075 1.460050 0
M  V30 47 H -1.644658 -1.435892 2.337840 0
M  V30 END ATOM
M  V30 BEGIN BOND
M  V30 1 1 1 2
M  V30 2 2 2 3
M  V30 3 1 3 4
M  V30 4 1 4 5
M  V30 5 2 5 6
M  V30 6 1 6 7
M  V30 7 1 7 8
M  V30 8 2 8 9
M  V30 9 1 9 10
M  V30 10 1 10 11
M  V30 11 2 10 12
M  V30 12 1 12 13
M  V30 13 1 13 14
M  V30 14 3 14 15
M  V30 15 2 13 16
M  V30 16 1 16 17
M  V30 17 1 17 18
M  V30 18 1 18 19
M  V30 19 1 19 20
M  V30 20 1 20 21
M  V30 21 1 21 22
M  V30 22 1 16 23
M  V30 23 1 23 24
M  V30 24 1 23 25
M  V30 25 2 25 26
M  V30 26 1 6 2
M  V30 27 1 26 8
M  V30 28 1 25 12
M  V30 29 1 21 17
M  V30 30 1 1 27
M  V30 31 1 1 28
M  V30 32 1 1 29
M  V30 33 1 4 30
M  V30 34 1 5 31
M  V30 35 1 7 32
M  V30 36 1 11 33
M  V30 37 1 11 34
M  V30 38 1 18 35
M  V30 39 1 18 36
M  V30 40 1 19 37
M  V30 41 1 19 38
M  V30 42 1 20 39
M  V30 43 1 20 40
M  V30 44 1 21 41 CFG=3
M  V30 45 1 22 42
M  V30 46 1 22 43
M  V30 47 1 22 44
M  V30 48 1 24 45
M  V30 49 1 24 46
M  V30 50 1 24 47
M  V30 END BOND
M  V30 END CTAB
M  END
>  <Dataset>  (786) 
ChEMBL_Kinases

>  <Ligand_Instance>  (786) 
nan

>  <PDB_ID>  (786) 
nan

>  <Standardized_SMILES>  (786) 
Cc1n[nH]cc1Nc1nc(N)c2c(C#N)c(N3CCC[C@H]3C)n(C)c2n1

>  <Name>  (786) 
nan

>  <Pocket>  (786) 
nan

>  <ATP_Site>  (786) 
nan

>  <Peripheral>  (786) 
nan

>  <Num_H_Atoms_ProtBoundConf>  (786) 
nan

>  <Num_Resolved_Atoms>  (786) 
nan

>  <Num_Not_Resolved_Atoms>  (786) 
nan

$$$$
CHEMBL3792549
     RDKit          3D

  0  0  0  0  0  0  0  0  0  0999 V3000
M  V30 BEGIN CTAB
M  V30 COUNTS 39 41 0 0 0
M  V30 BEGIN ATOM
M  V30 1 N 0.623883 -4.028439 3.136783 0
M  V30 2 C 0.638680 -3.232710 1.910570 0
M  V30 3 C 0.113915 -1.879014 2.290551 0
M  V30 4 C 0.062467 -0.930023 1.138112 0
M  V30 5 O -0.703213 -0.176402 0.476100 0
M  V30 6 N 1.355529 -0.801506 0.527943 0
M  V30 7 C 1.499484 0.079306 -0.608662 0
M  V30 8 C 1.324646 -0.340738 -1.927812 0
M  V30 9 C 1.491423 0.606673 -2.941307 0
M  V30 10 C 1.819064 1.920779 -2.658894 0
M  V30 11 C 1.976330 2.828575 -3.674454 0
M  V30 12 N 2.291883 4.107175 -3.456303 0
M  V30 13 C 2.461110 4.510086 -2.164275 0
M  V30 14 C 2.319060 3.652546 -1.090856 0
M  V30 15 C 1.988261 2.314466 -1.329104 0
M  V30 16 C 1.826683 1.388538 -0.313740 0
M  V30 17 C -1.256875 -1.955068 2.862746 0
M  V30 18 C -2.420829 -1.872739 2.110848 0
M  V30 19 C -3.669569 -1.954235 2.734835 0
M  V30 20 C -3.792373 -2.117111 4.100790 0
M  V30 21 C -2.621301 -2.196613 4.829199 0
M  V30 22 C -1.375826 -2.118119 4.230352 0
M  V30 23 Cl -0.021303 -2.240657 5.330531 0
M  V30 24 H -0.349688 -4.386520 3.259543 0
M  V30 25 H 1.276163 -4.846854 3.058012 0
M  V30 26 H 0.035655 -3.721816 1.115021 0
M  V30 27 H 1.658073 -3.115591 1.540929 0
M  V30 28 H 0.800292 -1.476928 3.064143 0
M  V30 29 H 2.299028 -1.236723 0.735100 0
M  V30 30 H 1.070006 -1.376462 -2.087277 0
M  V30 31 H 1.351276 0.263754 -3.972969 0
M  V30 32 H 1.850640 2.553169 -4.733035 0
M  V30 33 H 2.716549 5.551736 -2.015360 0
M  V30 34 H 2.455550 3.981527 -0.065356 0
M  V30 35 H 1.967968 1.740761 0.699167 0
M  V30 36 H -2.334708 -1.747055 1.056330 0
M  V30 37 H -4.572211 -1.888589 2.136648 0
M  V30 38 H -4.781726 -2.174889 4.537990 0
M  V30 39 H -2.787031 -2.325094 5.903272 0
M  V30 END ATOM
M  V30 BEGIN BOND
M  V30 1 1 1 2
M  V30 2 1 2 3
M  V30 3 1 3 4
M  V30 4 2 4 5
M  V30 5 1 4 6
M  V30 6 1 6 7
M  V30 7 2 7 8
M  V30 8 1 8 9
M  V30 9 2 9 10
M  V30 10 1 10 11
M  V30 11 2 11 12
M  V30 12 1 12 13
M  V30 13 2 13 14
M  V30 14 1 14 15
M  V30 15 2 15 16
M  V30 16 1 3 17
M  V30 17 2 17 18
M  V30 18 1 18 19
M  V30 19 2 19 20
M  V30 20 1 20 21
M  V30 21 2 21 22
M  V30 22 1 22 23
M  V30 23 1 16 7
M  V30 24 1 22 17
M  V30 25 1 15 10
M  V30 26 1 1 24
M  V30 27 1 1 25
M  V30 28 1 2 26
M  V30 29 1 2 27
M  V30 30 1 3 28
M  V30 31 1 6 29
M  V30 32 1 8 30
M  V30 33 1 9 31
M  V30 34 1 11 32
M  V30 35 1 13 33
M  V30 36 1 14 34
M  V30 37 1 16 35
M  V30 38 1 18 36
M  V30 39 1 19 37
M  V30 40 1 20 38
M  V30 41 1 21 39
M  V30 END BOND
M  V30 END CTAB
M  END
>  <Dataset>  (787) 
ChEMBL_Kinases

>  <Ligand_Instance>  (787) 
nan

>  <PDB_ID>  (787) 
nan

>  <Standardized_SMILES>  (787) 
NCC(C(=O)Nc1ccc2cnccc2c1)c1ccccc1Cl

>  <Name>  (787) 
nan

>  <Pocket>  (787) 
nan

>  <ATP_Site>  (787) 
nan

>  <Peripheral>  (787) 
nan

>  <Num_H_Atoms_ProtBoundConf>  (787) 
nan

>  <Num_Resolved_Atoms>  (787) 
nan

>  <Num_Not_Resolved_Atoms>  (787) 
nan

$$$$
CHEMBL3702284
     RDKit          3D

  0  0  0  0  0  0  0  0  0  0999 V3000
M  V30 BEGIN CTAB
M  V30 COUNTS 51 53 0 0 0
M  V30 BEGIN ATOM
M  V30 1 C 6.363617 -2.295636 -2.237946 0
M  V30 2 N 5.761326 -1.823037 -1.000441 0
M  V30 3 C 6.495647 -1.601237 0.168229 0
M  V30 4 O 7.748018 -1.783926 0.300325 0
M  V30 5 C 6.022610 -1.121516 1.487758 0
M  V30 6 N 4.608605 -0.814074 1.535198 0
M  V30 7 C 3.944217 0.166092 0.791101 0
M  V30 8 O 4.769129 0.788002 0.026308 0
M  V30 9 C 2.567809 0.549665 0.758593 0
M  V30 10 S 2.161580 1.849260 -0.366277 0
M  V30 11 C 0.404541 1.930674 -0.021590 0
M  V30 12 N -0.560996 2.712681 -0.524681 0
M  V30 13 C -1.818729 2.554920 -0.074621 0
M  V30 14 N -1.973172 1.606733 0.853061 0
M  V30 15 C -1.037954 0.822202 1.365250 0
M  V30 16 N -1.556032 -0.080359 2.317418 0
M  V30 17 C -2.202794 -1.282014 1.921744 0
M  V30 18 C -1.777630 -2.556455 2.218123 0
M  V30 19 C -2.422159 -3.713577 1.838264 0
M  V30 20 C -3.585067 -3.634006 1.103965 0
M  V30 21 N -4.059406 -2.401354 0.778455 0
M  V30 22 C -3.381205 -1.317796 1.181915 0
M  V30 23 O -3.977661 -0.113221 0.788031 0
M  V30 24 C -5.182940 -0.113384 0.049285 0
M  V30 25 C -5.180118 0.804629 -1.137663 0
M  V30 26 C -6.343012 0.340711 0.939101 0
M  V30 27 C 0.256775 0.959545 0.927174 0
M  V30 28 C 1.371678 0.263827 1.316561 0
M  V30 29 C 1.456645 -0.794005 2.368392 0
M  V30 30 H 6.009006 -3.334651 -2.372155 0
M  V30 31 H 7.460919 -2.322952 -2.133445 0
M  V30 32 H 6.104969 -1.654321 -3.104908 0
M  V30 33 H 4.756853 -1.661357 -1.004502 0
M  V30 34 H 6.537551 -0.145188 1.720442 0
M  V30 35 H 6.300354 -1.852276 2.291316 0
M  V30 36 H 4.024750 -1.382673 2.180878 0
M  V30 37 H -2.572381 3.199154 -0.500699 0
M  V30 38 H -1.648342 -0.172459 3.374427 0
M  V30 39 H -0.884762 -2.740908 2.789180 0
M  V30 40 H -2.062476 -4.702986 2.088803 0
M  V30 41 H -4.102071 -4.516270 0.796034 0
M  V30 42 H -5.442313 -1.131535 -0.267106 0
M  V30 43 H -4.232446 1.414474 -1.194891 0
M  V30 44 H -5.363437 0.208568 -2.051914 0
M  V30 45 H -5.973613 1.603956 -1.035082 0
M  V30 46 H -7.222455 0.453352 0.276090 0
M  V30 47 H -6.568998 -0.451414 1.682500 0
M  V30 48 H -6.128502 1.309888 1.396533 0
M  V30 49 H 1.683493 -1.792595 1.985657 0
M  V30 50 H 0.517509 -0.907363 2.952286 0
M  V30 51 H 2.180773 -0.450496 3.184185 0
M  V30 END ATOM
M  V30 BEGIN BOND
M  V30 1 1 1 2
M  V30 2 1 2 3
M  V30 3 2 3 4
M  V30 4 1 3 5
M  V30 5 1 5 6
M  V30 6 1 6 7
M  V30 7 2 7 8
M  V30 8 1 7 9
M  V30 9 1 9 10
M  V30 10 1 10 11
M  V30 11 2 11 12
M  V30 12 1 12 13
M  V30 13 2 13 14
M  V30 14 1 14 15
M  V30 15 1 15 16
M  V30 16 1 16 17
M  V30 17 2 17 18
M  V30 18 1 18 19
M  V30 19 2 19 20
M  V30 20 1 20 21
M  V30 21 2 21 22
M  V30 22 1 22 23
M  V30 23 1 23 24
M  V30 24 1 24 25
M  V30 25 1 24 26
M  V30 26 2 15 27
M  V30 27 1 27 28
M  V30 28 1 28 29
M  V30 29 2 28 9
M  V30 30 1 27 11
M  V30 31 1 22 17
M  V30 32 1 1 30
M  V30 33 1 1 31
M  V30 34 1 1 32
M  V30 35 1 2 33
M  V30 36 1 5 34
M  V30 37 1 5 35
M  V30 38 1 6 36
M  V30 39 1 13 37
M  V30 40 1 16 38
M  V30 41 1 18 39
M  V30 42 1 19 40
M  V30 43 1 20 41
M  V30 44 1 24 42
M  V30 45 1 25 43
M  V30 46 1 25 44
M  V30 47 1 25 45
M  V30 48 1 26 46
M  V30 49 1 26 47
M  V30 50 1 26 48
M  V30 51 1 29 49
M  V30 52 1 29 50
M  V30 53 1 29 51
M  V30 END BOND
M  V30 END CTAB
M  END
>  <Dataset>  (788) 
ChEMBL_Kinases

>  <Ligand_Instance>  (788) 
nan

>  <PDB_ID>  (788) 
nan

>  <Standardized_SMILES>  (788) 
CNC(=O)CNC(=O)c1sc2ncnc(Nc3cccnc3OC(C)C)c2c1C

>  <Name>  (788) 
nan

>  <Pocket>  (788) 
nan

>  <ATP_Site>  (788) 
nan

>  <Peripheral>  (788) 
nan

>  <Num_H_Atoms_ProtBoundConf>  (788) 
nan

>  <Num_Resolved_Atoms>  (788) 
nan

>  <Num_Not_Resolved_Atoms>  (788) 
nan

$$$$
CHEMBL3792663
     RDKit          3D

  0  0  0  0  0  0  0  0  0  0999 V3000
M  V30 BEGIN CTAB
M  V30 COUNTS 40 42 0 0 0
M  V30 BEGIN ATOM
M  V30 1 N -1.594345 -4.301374 2.119618 0
M  V30 2 C -1.113334 -3.380406 1.136210 0
M  V30 3 C 0.120867 -2.597937 1.604183 0
M  V30 4 C 0.493022 -1.699059 0.490699 0
M  V30 5 O -0.128056 -1.663600 -0.624638 0
M  V30 6 N 1.567842 -0.785871 0.533673 0
M  V30 7 C 1.679657 -0.049550 -0.703756 0
M  V30 8 C 2.461863 -0.531145 -1.732936 0
M  V30 9 C 2.527474 0.226356 -2.899749 0
M  V30 10 C 1.822342 1.419534 -2.999837 0
M  V30 11 C 1.879536 2.187387 -4.162568 0
M  V30 12 N 1.184550 3.355976 -4.251162 0
M  V30 13 C 0.446549 3.750462 -3.199037 0
M  V30 14 C 0.355303 3.028962 -2.025882 0
M  V30 15 C 1.057852 1.845568 -1.933494 0
M  V30 16 C 0.955000 1.125852 -0.737802 0
M  V30 17 C -0.230310 -1.848996 2.827010 0
M  V30 18 C -1.197455 -0.871778 2.800087 0
M  V30 19 C -1.603365 -0.111296 3.884549 0
M  V30 20 C -0.953823 -0.390431 5.082306 0
M  V30 21 O -1.298306 0.321445 6.210572 0
M  V30 22 C 0.023064 -1.361381 5.159891 0
M  V30 23 C 0.396314 -2.101170 4.036024 0
M  V30 24 H -2.091471 -3.852226 2.917093 0
M  V30 25 H -0.868852 -4.950605 2.481639 0
M  V30 26 H -1.943565 -2.679262 0.895047 0
M  V30 27 H -0.885250 -3.961396 0.223683 0
M  V30 28 H 0.913973 -3.344336 1.798541 0
M  V30 29 H 2.147784 -0.737972 1.418281 0
M  V30 30 H 2.997048 -1.471489 -1.609905 0
M  V30 31 H 3.135030 -0.137341 -3.713166 0
M  V30 32 H 2.481335 1.846028 -4.993867 0
M  V30 33 H -0.116886 4.682670 -3.250320 0
M  V30 34 H -0.235432 3.351577 -1.192978 0
M  V30 35 H 0.355817 1.459328 0.098550 0
M  V30 36 H -1.712820 -0.647048 1.859940 0
M  V30 37 H -2.376977 0.642631 3.776230 0
M  V30 38 H -2.145850 0.865027 6.300093 0
M  V30 39 H 0.545236 -1.606041 6.059385 0
M  V30 40 H 1.152119 -2.875539 4.023619 0
M  V30 END ATOM
M  V30 BEGIN BOND
M  V30 1 1 1 2
M  V30 2 1 2 3
M  V30 3 1 3 4
M  V30 4 2 4 5
M  V30 5 1 4 6
M  V30 6 1 6 7
M  V30 7 2 7 8
M  V30 8 1 8 9
M  V30 9 2 9 10
M  V30 10 1 10 11
M  V30 11 2 11 12
M  V30 12 1 12 13
M  V30 13 2 13 14
M  V30 14 1 14 15
M  V30 15 2 15 16
M  V30 16 1 3 17
M  V30 17 2 17 18
M  V30 18 1 18 19
M  V30 19 2 19 20
M  V30 20 1 20 21
M  V30 21 1 20 22
M  V30 22 2 22 23
M  V30 23 1 16 7
M  V30 24 1 23 17
M  V30 25 1 15 10
M  V30 26 1 1 24
M  V30 27 1 1 25
M  V30 28 1 2 26
M  V30 29 1 2 27
M  V30 30 1 3 28
M  V30 31 1 6 29
M  V30 32 1 8 30
M  V30 33 1 9 31
M  V30 34 1 11 32
M  V30 35 1 13 33
M  V30 36 1 14 34
M  V30 37 1 16 35
M  V30 38 1 18 36
M  V30 39 1 19 37
M  V30 40 1 21 38
M  V30 41 1 22 39
M  V30 42 1 23 40
M  V30 END BOND
M  V30 END CTAB
M  END
>  <Dataset>  (789) 
ChEMBL_Kinases

>  <Ligand_Instance>  (789) 
nan

>  <PDB_ID>  (789) 
nan

>  <Standardized_SMILES>  (789) 
NCC(C(=O)Nc1ccc2cnccc2c1)c1ccc(O)cc1

>  <Name>  (789) 
nan

>  <Pocket>  (789) 
nan

>  <ATP_Site>  (789) 
nan

>  <Peripheral>  (789) 
nan

>  <Num_H_Atoms_ProtBoundConf>  (789) 
nan

>  <Num_Resolved_Atoms>  (789) 
nan

>  <Num_Not_Resolved_Atoms>  (789) 
nan

$$$$
CHEMBL3702292
     RDKit          3D

  0  0  0  0  0  0  0  0  0  0999 V3000
M  V30 BEGIN CTAB
M  V30 COUNTS 54 57 0 0 0
M  V30 BEGIN ATOM
M  V30 1 C 0.147075 -1.176027 0.829082 0
M  V30 2 C -0.141871 -0.078739 1.775451 0
M  V30 3 C 1.014490 0.539106 2.252658 0
M  V30 4 C 2.422912 0.483931 2.152238 0
M  V30 5 O 3.131243 1.312404 2.822894 0
M  V30 6 N 3.306766 -0.342284 1.423363 0
M  V30 7 C 4.733719 -0.288852 1.412676 0
M  V30 8 C 5.277263 0.846164 0.598501 0
M  V30 9 C 5.601244 2.143504 0.950440 0
M  V30 10 N 6.049501 2.760356 -0.159720 0
M  V30 11 C 6.501390 4.131833 -0.261335 0
M  V30 12 C 6.025289 1.909919 -1.208732 0
M  V30 13 N 5.550510 0.753521 -0.715066 0
M  V30 14 S 0.404693 1.815382 3.351193 0
M  V30 15 C -1.377513 1.442905 3.104755 0
M  V30 16 N -2.489686 2.026076 3.635106 0
M  V30 17 C -3.681457 1.539757 3.266863 0
M  V30 18 N -3.668955 0.527469 2.413940 0
M  V30 19 C -2.591540 -0.048267 1.891161 0
M  V30 20 N -2.938497 -1.099813 1.015116 0
M  V30 21 C -3.287689 -2.484824 1.228950 0
M  V30 22 C -3.327612 -2.997296 2.505447 0
M  V30 23 C -3.667679 -4.330436 2.652680 0
M  V30 24 C -3.937316 -5.023573 1.484823 0
M  V30 25 N -3.887698 -4.480548 0.232498 0
M  V30 26 C -3.557287 -3.180890 0.072493 0
M  V30 27 O -3.494967 -2.588877 -1.183268 0
M  V30 28 C -3.775548 -3.338348 -2.346761 0
M  V30 29 C -2.594082 -3.357459 -3.278408 0
M  V30 30 C -4.950768 -2.731414 -3.119779 0
M  V30 31 C -1.338918 0.387824 2.214279 0
M  V30 32 H 0.724749 -1.997311 1.300893 0
M  V30 33 H -0.745247 -1.629368 0.362137 0
M  V30 34 H 0.689729 -0.717854 -0.053257 0
M  V30 35 H 2.837129 -1.062927 0.836219 0
M  V30 36 H 5.075736 -0.128629 2.476882 0
M  V30 37 H 5.164447 -1.211456 1.007514 0
M  V30 38 H 5.492098 2.531467 1.952358 0
M  V30 39 H 5.885926 4.671499 -1.009312 0
M  V30 40 H 6.404567 4.664004 0.703601 0
M  V30 41 H 7.564045 4.176607 -0.638978 0
M  V30 42 H 6.319422 2.088474 -2.246514 0
M  V30 43 H -4.525829 2.037851 3.714395 0
M  V30 44 H -2.888894 -0.628341 0.111339 0
M  V30 45 H -3.107402 -2.408637 3.380147 0
M  V30 46 H -3.730649 -4.840998 3.603811 0
M  V30 47 H -4.217056 -6.080142 1.479779 0
M  V30 48 H -4.021647 -4.411886 -2.106540 0
M  V30 49 H -1.760171 -3.976519 -2.898352 0
M  V30 50 H -2.872315 -3.644527 -4.311357 0
M  V30 51 H -2.220754 -2.299576 -3.331802 0
M  V30 52 H -5.891754 -3.282294 -2.878024 0
M  V30 53 H -4.981724 -1.662969 -2.846169 0
M  V30 54 H -4.760459 -2.782423 -4.213611 0
M  V30 END ATOM
M  V30 BEGIN BOND
M  V30 1 1 1 2
M  V30 2 2 2 3
M  V30 3 1 3 4
M  V30 4 2 4 5
M  V30 5 1 4 6
M  V30 6 1 6 7
M  V30 7 1 7 8
M  V30 8 2 8 9
M  V30 9 1 9 10
M  V30 10 1 10 11
M  V30 11 1 10 12
M  V30 12 2 12 13
M  V30 13 1 3 14
M  V30 14 1 14 15
M  V30 15 2 15 16
M  V30 16 1 16 17
M  V30 17 2 17 18
M  V30 18 1 18 19
M  V30 19 1 19 20
M  V30 20 1 20 21
M  V30 21 2 21 22
M  V30 22 1 22 23
M  V30 23 2 23 24
M  V30 24 1 24 25
M  V30 25 2 25 26
M  V30 26 1 26 27
M  V30 27 1 27 28
M  V30 28 1 28 29
M  V30 29 1 28 30
M  V30 30 2 19 31
M  V30 31 1 31 2
M  V30 32 1 13 8
M  V30 33 1 31 15
M  V30 34 1 26 21
M  V30 35 1 1 32
M  V30 36 1 1 33
M  V30 37 1 1 34
M  V30 38 1 6 35
M  V30 39 1 7 36
M  V30 40 1 7 37
M  V30 41 1 9 38
M  V30 42 1 11 39
M  V30 43 1 11 40
M  V30 44 1 11 41
M  V30 45 1 12 42
M  V30 46 1 17 43
M  V30 47 1 20 44
M  V30 48 1 22 45
M  V30 49 1 23 46
M  V30 50 1 24 47
M  V30 51 1 28 48
M  V30 52 1 29 49
M  V30 53 1 29 50
M  V30 54 1 29 51
M  V30 55 1 30 52
M  V30 56 1 30 53
M  V30 57 1 30 54
M  V30 END BOND
M  V30 END CTAB
M  END
>  <Dataset>  (790) 
ChEMBL_Kinases

>  <Ligand_Instance>  (790) 
nan

>  <PDB_ID>  (790) 
nan

>  <Standardized_SMILES>  (790) 
Cc1c(C(=O)NCc2cn(C)cn2)sc2ncnc(Nc3cccnc3OC(C)C)c12

>  <Name>  (790) 
nan

>  <Pocket>  (790) 
nan

>  <ATP_Site>  (790) 
nan

>  <Peripheral>  (790) 
nan

>  <Num_H_Atoms_ProtBoundConf>  (790) 
nan

>  <Num_Resolved_Atoms>  (790) 
nan

>  <Num_Not_Resolved_Atoms>  (790) 
nan

$$$$
CHEMBL5074684
     RDKit          3D

  0  0  0  0  0  0  0  0  0  0999 V3000
M  V30 BEGIN CTAB
M  V30 COUNTS 58 62 0 0 0
M  V30 BEGIN ATOM
M  V30 1 C 4.508174 -5.140981 0.915743 0
M  V30 2 C 4.149968 -4.113357 1.922498 0
M  V30 3 N 4.653932 -3.959367 3.160117 0
M  V30 4 N 4.086676 -2.934691 3.754366 0
M  V30 5 C 3.205286 -2.416673 2.895941 0
M  V30 6 N 2.383693 -1.361193 3.045556 0
M  V30 7 C 1.563399 -1.010622 2.028395 0
M  V30 8 C 0.657424 0.129470 2.153733 0
M  V30 9 C 0.651389 0.845911 3.330552 0
M  V30 10 C -0.179968 1.935064 3.517063 0
M  V30 11 C -1.038375 2.329086 2.497629 0
M  V30 12 N -1.819862 3.461189 2.853055 0
M  V30 13 S -2.012639 4.762258 1.738800 0
M  V30 14 O -2.728819 5.904160 2.409687 0
M  V30 15 O -0.623552 5.274141 1.423179 0
M  V30 16 C -2.798413 4.279574 0.263470 0
M  V30 17 C -2.302032 4.354303 -1.020113 0
M  V30 18 C -3.053419 3.928415 -2.088176 0
M  V30 19 Cl -2.350638 4.055867 -3.696968 0
M  V30 20 C -4.326977 3.409499 -1.944803 0
M  V30 21 C -4.831937 3.333037 -0.643160 0
M  V30 22 C -4.081612 3.760305 0.442431 0
M  V30 23 F -4.709649 3.622478 1.649013 0
M  V30 24 C -1.036431 1.617871 1.321521 0
M  V30 25 C -0.201193 0.536505 1.155470 0
M  V30 26 N 1.541428 -1.685962 0.865336 0
M  V30 27 C 2.336311 -2.749414 0.650431 0
M  V30 28 O 2.478877 -3.568903 -0.431560 0
M  V30 29 C 1.814206 -3.523195 -1.649832 0
M  V30 30 C 0.322225 -3.675318 -1.581493 0
M  V30 31 C -0.173517 -4.958225 -0.985179 0
M  V30 32 N -1.629606 -4.989727 -0.972867 0
M  V30 33 C -0.496232 -2.465193 -1.291824 0
M  V30 34 O -1.433925 -2.933832 -2.243026 0
M  V30 35 C -0.350398 -3.471997 -2.934788 0
M  V30 36 C 3.193265 -3.129056 1.690789 0
M  V30 37 H 4.435419 -4.821057 -0.116246 0
M  V30 38 H 3.900665 -6.033067 1.071657 0
M  V30 39 H 5.590282 -5.413150 1.081855 0
M  V30 40 H 4.287515 -2.586107 4.723984 0
M  V30 41 H 1.336058 0.522889 4.129101 0
M  V30 42 H -0.096866 2.420476 4.484376 0
M  V30 43 H -2.288700 3.515419 3.801282 0
M  V30 44 H -1.303062 4.767306 -1.075314 0
M  V30 45 H -4.888096 3.084205 -2.811866 0
M  V30 46 H -5.829047 2.922175 -0.574858 0
M  V30 47 H -1.721920 1.981336 0.588324 0
M  V30 48 H -0.217487 -0.007253 0.221475 0
M  V30 49 H 2.086622 -2.664286 -2.292822 0
M  V30 50 H 2.175088 -4.422924 -2.230317 0
M  V30 51 H 0.146187 -5.809210 -1.641288 0
M  V30 52 H 0.169833 -5.115700 0.051844 0
M  V30 53 H -2.030184 -5.120040 -0.031104 0
M  V30 54 H -2.036575 -5.592912 -1.715090 0
M  V30 55 H -0.058381 -1.544657 -1.682353 0
M  V30 56 H -0.894907 -2.461571 -0.257757 0
M  V30 57 H -0.574083 -4.396293 -3.486935 0
M  V30 58 H 0.189188 -2.714858 -3.551668 0
M  V30 END ATOM
M  V30 BEGIN BOND
M  V30 1 1 1 2
M  V30 2 2 2 3
M  V30 3 1 3 4
M  V30 4 1 4 5
M  V30 5 2 5 6
M  V30 6 1 6 7
M  V30 7 1 7 8
M  V30 8 2 8 9
M  V30 9 1 9 10
M  V30 10 2 10 11
M  V30 11 1 11 12
M  V30 12 1 12 13
M  V30 13 2 13 14
M  V30 14 2 13 15
M  V30 15 1 13 16
M  V30 16 2 16 17
M  V30 17 1 17 18
M  V30 18 1 18 19
M  V30 19 2 18 20
M  V30 20 1 20 21
M  V30 21 2 21 22
M  V30 22 1 22 23
M  V30 23 1 11 24
M  V30 24 2 24 25
M  V30 25 2 7 26
M  V30 26 1 26 27
M  V30 27 1 27 28
M  V30 28 1 28 29
M  V30 29 1 29 30
M  V30 30 1 30 31
M  V30 31 1 31 32
M  V30 32 1 30 33
M  V30 33 1 33 34
M  V30 34 1 34 35
M  V30 35 2 27 36
M  V30 36 1 36 2
M  V30 37 1 36 5
M  V30 38 1 25 8
M  V30 39 1 35 30
M  V30 40 1 22 16
M  V30 41 1 1 37
M  V30 42 1 1 38
M  V30 43 1 1 39
M  V30 44 1 4 40
M  V30 45 1 9 41
M  V30 46 1 10 42
M  V30 47 1 12 43
M  V30 48 1 17 44
M  V30 49 1 20 45
M  V30 50 1 21 46
M  V30 51 1 24 47
M  V30 52 1 25 48
M  V30 53 1 29 49
M  V30 54 1 29 50
M  V30 55 1 31 51
M  V30 56 1 31 52
M  V30 57 1 32 53
M  V30 58 1 32 54
M  V30 59 1 33 55
M  V30 60 1 33 56
M  V30 61 1 35 57
M  V30 62 1 35 58
M  V30 END BOND
M  V30 END CTAB
M  END
>  <Dataset>  (791) 
ChEMBL_Kinases

>  <Ligand_Instance>  (791) 
nan

>  <PDB_ID>  (791) 
nan

>  <Standardized_SMILES>  (791) 
Cc1n[nH]c2nc(-c3ccc(NS(=O)(=O)c4cc(Cl)ccc4F)cc3)nc(OCC3(CN)COC3)c12

>  <Name>  (791) 
nan

>  <Pocket>  (791) 
nan

>  <ATP_Site>  (791) 
nan

>  <Peripheral>  (791) 
nan

>  <Num_H_Atoms_ProtBoundConf>  (791) 
nan

>  <Num_Resolved_Atoms>  (791) 
nan

>  <Num_Not_Resolved_Atoms>  (791) 
nan

$$$$
CHEMBL378714
     RDKit          3D

  0  0  0  0  0  0  0  0  0  0999 V3000
M  V30 BEGIN CTAB
M  V30 COUNTS 57 61 0 0 0
M  V30 BEGIN ATOM
M  V30 1 C -5.011207 3.500831 -0.060491 0
M  V30 2 C -4.799083 2.084013 -0.478833 0
M  V30 3 C -4.614096 0.950743 -0.798138 0
M  V30 4 C -4.372539 -0.421932 -1.168171 0
M  V30 5 C -3.474502 -1.094624 -0.292407 0
M  V30 6 C -3.014595 -2.325415 -0.721818 0
M  V30 7 C -1.961776 -2.773668 -0.007347 0
M  V30 8 C -1.241174 -3.868376 -0.508796 0
M  V30 9 C -0.133435 -4.433874 0.228522 0
M  V30 10 C 0.899285 -4.950851 0.877280 0
M  V30 11 N 2.260649 -4.717537 1.123078 0
M  V30 12 C 2.793252 -3.611518 0.530385 0
M  V30 13 C 2.033474 -2.783104 -0.243711 0
M  V30 14 O 2.695871 -1.683842 -0.750912 0
M  V30 15 C 1.916796 -0.760619 -1.550961 0
M  V30 16 C 2.783055 0.502350 -1.773698 0 CFG=1
M  V30 17 N 2.083720 1.461755 -2.530343 0
M  V30 18 C 3.060771 1.092266 -0.369033 0
M  V30 19 C 1.851626 1.583402 0.341386 0
M  V30 20 C 0.915247 0.927946 1.090774 0
M  V30 21 N -0.082026 1.746708 1.546655 0
M  V30 22 C 0.181599 2.966128 1.097971 0
M  V30 23 C -0.470237 4.177308 1.286607 0
M  V30 24 C 0.021702 5.354360 0.749712 0
M  V30 25 C 1.191100 5.325798 0.004607 0
M  V30 26 C 1.792362 4.106398 -0.150935 0
M  V30 27 C 1.346566 2.908180 0.360038 0
M  V30 28 C 0.712428 -3.295788 -0.294990 0
M  V30 29 C -1.573265 -4.540593 -1.720692 0
M  V30 30 C -2.688809 -4.053740 -2.420695 0
M  V30 31 C -3.314443 -2.981818 -1.865683 0
M  V30 32 C -4.232946 -2.248528 -2.672143 0
M  V30 33 N -4.706847 -1.047101 -2.304098 0
M  V30 34 H -4.978495 3.568798 1.030919 0
M  V30 35 H -5.804354 4.000107 -0.594809 0
M  V30 36 H -4.050598 4.091239 -0.368610 0
M  V30 37 H -3.167120 -0.680364 0.638179 0
M  V30 38 H -1.574683 -2.411428 0.945165 0
M  V30 39 H 0.269097 -5.797320 1.261150 0
M  V30 40 H 3.833833 -3.582002 0.810371 0
M  V30 41 H 1.021563 -0.392071 -1.059613 0
M  V30 42 H 1.709905 -1.163722 -2.543081 0
M  V30 43 H 3.762069 0.158649 -2.195881 0
M  V30 44 H 2.821273 2.087872 -2.991762 0
M  V30 45 H 1.630452 0.973779 -3.331791 0
M  V30 46 H 3.817343 1.930166 -0.516290 0
M  V30 47 H 3.507386 0.305990 0.273911 0
M  V30 48 H 0.926425 -0.155158 1.328838 0
M  V30 49 H -0.917269 1.530439 2.121718 0
M  V30 50 H -1.405414 4.226002 1.869589 0
M  V30 51 H -0.439216 6.314377 0.888036 0
M  V30 52 H 1.589280 6.238732 -0.403805 0
M  V30 53 H 2.690365 4.091279 -0.712398 0
M  V30 54 H 0.408002 -2.438703 -0.986634 0
M  V30 55 H -0.966504 -5.381698 -2.035242 0
M  V30 56 H -2.961219 -4.544154 -3.337089 0
M  V30 57 H -4.530926 -2.735099 -3.610431 0
M  V30 END ATOM
M  V30 BEGIN BOND
M  V30 1 1 1 2
M  V30 2 3 2 3
M  V30 3 1 3 4
M  V30 4 2 4 5
M  V30 5 1 5 6
M  V30 6 2 6 7
M  V30 7 1 7 8
M  V30 8 1 8 9
M  V30 9 2 9 10
M  V30 10 1 10 11
M  V30 11 2 11 12
M  V30 12 1 12 13
M  V30 13 1 13 14
M  V30 14 1 14 15
M  V30 15 1 15 16
M  V30 16 1 16 17
M  V30 17 1 16 18
M  V30 18 1 18 19
M  V30 19 2 19 20
M  V30 20 1 20 21
M  V30 21 1 21 22
M  V30 22 2 22 23
M  V30 23 1 23 24
M  V30 24 2 24 25
M  V30 25 1 25 26
M  V30 26 2 26 27
M  V30 27 2 13 28
M  V30 28 2 8 29
M  V30 29 1 29 30
M  V30 30 2 30 31
M  V30 31 1 31 32
M  V30 32 2 32 33
M  V30 33 1 33 4
M  V30 34 1 31 6
M  V30 35 1 28 9
M  V30 36 1 27 19
M  V30 37 1 27 22
M  V30 38 1 1 34
M  V30 39 1 1 35
M  V30 40 1 1 36
M  V30 41 1 5 37
M  V30 42 1 7 38
M  V30 43 1 10 39
M  V30 44 1 12 40
M  V30 45 1 15 41
M  V30 46 1 15 42
M  V30 47 1 16 43 CFG=3
M  V30 48 1 17 44
M  V30 49 1 17 45
M  V30 50 1 18 46
M  V30 51 1 18 47
M  V30 52 1 20 48
M  V30 53 1 21 49
M  V30 54 1 23 50
M  V30 55 1 24 51
M  V30 56 1 25 52
M  V30 57 1 26 53
M  V30 58 1 28 54
M  V30 59 1 29 55
M  V30 60 1 30 56
M  V30 61 1 32 57
M  V30 END BOND
M  V30 END CTAB
M  END
>  <Dataset>  (792) 
ChEMBL_Kinases

>  <Ligand_Instance>  (792) 
nan

>  <PDB_ID>  (792) 
nan

>  <Standardized_SMILES>  (792) 
CC#Cc1cc2cc(-c3cncc(OC[C@@H](N)Cc4c[nH]c5ccccc45)c3)ccc2cn1

>  <Name>  (792) 
nan

>  <Pocket>  (792) 
nan

>  <ATP_Site>  (792) 
nan

>  <Peripheral>  (792) 
nan

>  <Num_H_Atoms_ProtBoundConf>  (792) 
nan

>  <Num_Resolved_Atoms>  (792) 
nan

>  <Num_Not_Resolved_Atoms>  (792) 
nan

$$$$
CHEMBL5074701
     RDKit          3D

  0  0  0  0  0  0  0  0  0  0999 V3000
M  V30 BEGIN CTAB
M  V30 COUNTS 64 68 0 0 0
M  V30 BEGIN ATOM
M  V30 1 C 2.825722 -0.706546 3.714102 0
M  V30 2 C 3.436739 -1.976264 3.123153 0
M  V30 3 C 2.264562 -2.888766 2.837918 0
M  V30 4 N 4.250639 -1.733392 1.976384 0
M  V30 5 C 5.286959 -0.794110 2.279646 0
M  V30 6 C 4.853406 0.524980 1.639171 0
M  V30 7 C 4.147164 0.061934 0.410445 0 CFG=2
M  V30 8 N 3.031359 0.859838 -0.004013 0
M  V30 9 C 2.647108 1.560689 -1.199777 0
M  V30 10 O 3.570530 1.392701 -2.058469 0
M  V30 11 C 1.352139 2.248649 -1.109316 0
M  V30 12 C 0.243541 1.418092 -0.891873 0
M  V30 13 C -1.029207 1.914384 -0.785429 0
M  V30 14 C -2.216557 1.088168 -0.560683 0
M  V30 15 C -2.134371 -0.289600 -0.437181 0
M  V30 16 C -3.259093 -1.061212 -0.232131 0
M  V30 17 C -4.511239 -0.494480 -0.141526 0
M  V30 18 N -5.763469 -1.182689 0.067440 0
M  V30 19 S -6.141101 -2.568503 -0.844930 0
M  V30 20 O -6.103413 -2.235884 -2.319945 0
M  V30 21 O -7.517233 -3.022184 -0.449347 0
M  V30 22 C -4.993795 -3.854081 -0.568677 0
M  V30 23 C -4.237277 -4.381550 -1.627140 0
M  V30 24 C -3.310725 -5.400945 -1.506636 0
M  V30 25 C -3.099456 -5.950822 -0.273387 0
M  V30 26 C -3.827345 -5.450949 0.775635 0
M  V30 27 Cl -3.511739 -6.199433 2.344051 0
M  V30 28 C -4.740982 -4.444492 0.651304 0
M  V30 29 Cl -5.632893 -3.858663 2.034413 0
M  V30 30 C -4.528969 0.881981 -0.271745 0
M  V30 31 C -3.451236 1.720755 -0.478094 0
M  V30 32 N -1.147502 3.245599 -0.901913 0
M  V30 33 C -0.133934 4.102245 -1.110159 0
M  V30 34 N 0.034715 5.427337 -1.261565 0
M  V30 35 N 1.310698 5.732256 -1.448272 0
M  V30 36 C 2.063629 4.601500 -1.428660 0
M  V30 37 C 1.146835 3.605357 -1.217749 0
M  V30 38 C 3.585561 -1.314534 0.796074 0
M  V30 39 H 2.124680 -1.060417 4.517241 0
M  V30 40 H 2.211035 -0.154550 2.998735 0
M  V30 41 H 3.602819 -0.125638 4.236964 0
M  V30 42 H 4.051926 -2.438133 3.908546 0
M  V30 43 H 1.277306 -2.400489 2.989641 0
M  V30 44 H 2.237205 -3.237783 1.767711 0
M  V30 45 H 2.258632 -3.756141 3.528676 0
M  V30 46 H 5.554906 -0.686097 3.329491 0
M  V30 47 H 6.207768 -1.142376 1.732664 0
M  V30 48 H 4.230125 1.143108 2.303236 0
M  V30 49 H 5.804410 1.052947 1.373201 0
M  V30 50 H 4.920008 -0.063423 -0.371593 0
M  V30 51 H 2.393891 0.880945 0.850916 0
M  V30 52 H 0.406147 0.335897 -0.805170 0
M  V30 53 H -1.198490 -0.821508 -0.495437 0
M  V30 54 H -3.212999 -2.132192 -0.131174 0
M  V30 55 H -6.334399 -0.715281 0.810274 0
M  V30 56 H -4.407465 -3.937232 -2.617109 0
M  V30 57 H -2.799489 -5.704950 -2.421000 0
M  V30 58 H -2.378110 -6.740371 -0.199905 0
M  V30 59 H -5.494152 1.386886 -0.208931 0
M  V30 60 H -3.583112 2.790515 -0.564981 0
M  V30 61 H -0.778615 6.108383 -1.229600 0
M  V30 62 H 3.126778 4.505203 -1.548930 0
M  V30 63 H 2.488640 -1.263582 0.934929 0
M  V30 64 H 3.741249 -1.986468 -0.075796 0
M  V30 END ATOM
M  V30 BEGIN BOND
M  V30 1 1 1 2
M  V30 2 1 2 3
M  V30 3 1 2 4
M  V30 4 1 4 5
M  V30 5 1 5 6
M  V30 6 1 6 7
M  V30 7 1 7 8
M  V30 8 1 8 9
M  V30 9 2 9 10
M  V30 10 1 9 11
M  V30 11 2 11 12
M  V30 12 1 12 13
M  V30 13 1 13 14
M  V30 14 2 14 15
M  V30 15 1 15 16
M  V30 16 2 16 17
M  V30 17 1 17 18
M  V30 18 1 18 19
M  V30 19 2 19 20
M  V30 20 2 19 21
M  V30 21 1 19 22
M  V30 22 2 22 23
M  V30 23 1 23 24
M  V30 24 2 24 25
M  V30 25 1 25 26
M  V30 26 1 26 27
M  V30 27 2 26 28
M  V30 28 1 28 29
M  V30 29 1 17 30
M  V30 30 2 30 31
M  V30 31 2 13 32
M  V30 32 1 32 33
M  V30 33 1 33 34
M  V30 34 1 34 35
M  V30 35 2 35 36
M  V30 36 1 36 37
M  V30 37 1 7 38
M  V30 38 1 38 4
M  V30 39 1 37 11
M  V30 40 1 31 14
M  V30 41 2 37 33
M  V30 42 1 28 22
M  V30 43 1 1 39
M  V30 44 1 1 40
M  V30 45 1 1 41
M  V30 46 1 2 42
M  V30 47 1 3 43
M  V30 48 1 3 44
M  V30 49 1 3 45
M  V30 50 1 5 46
M  V30 51 1 5 47
M  V30 52 1 6 48
M  V30 53 1 6 49
M  V30 54 1 7 50 CFG=3
M  V30 55 1 8 51
M  V30 56 1 12 52
M  V30 57 1 15 53
M  V30 58 1 16 54
M  V30 59 1 18 55
M  V30 60 1 23 56
M  V30 61 1 24 57
M  V30 62 1 25 58
M  V30 63 1 30 59
M  V30 64 1 31 60
M  V30 65 1 34 61
M  V30 66 1 36 62
M  V30 67 1 38 63
M  V30 68 1 38 64
M  V30 END BOND
M  V30 END CTAB
M  END
>  <Dataset>  (793) 
ChEMBL_Kinases

>  <Ligand_Instance>  (793) 
nan

>  <PDB_ID>  (793) 
nan

>  <Standardized_SMILES>  (793) 
CC(C)N1CC[C@H](NC(=O)c2cc(-c3ccc(NS(=O)(=O)c4cccc(Cl)c4Cl)cc3)nc3[nH]ncc23)C1

>  <Name>  (793) 
nan

>  <Pocket>  (793) 
nan

>  <ATP_Site>  (793) 
nan

>  <Peripheral>  (793) 
nan

>  <Num_H_Atoms_ProtBoundConf>  (793) 
nan

>  <Num_Resolved_Atoms>  (793) 
nan

>  <Num_Not_Resolved_Atoms>  (793) 
nan

$$$$
CHEMBL3787135
     RDKit          3D

  0  0  0  0  0  0  0  0  0  0999 V3000
M  V30 BEGIN CTAB
M  V30 COUNTS 48 52 0 0 0
M  V30 BEGIN ATOM
M  V30 1 O 0.201336 0.384642 1.902137 0
M  V30 2 C 1.078375 -0.317005 1.395001 0
M  V30 3 N 1.861653 0.294313 0.404966 0
M  V30 4 C 1.828412 1.599051 -0.131056 0
M  V30 5 C 0.984383 2.628964 0.201048 0
M  V30 6 C 0.990652 3.889904 -0.352730 0
M  V30 7 C 1.924745 4.146402 -1.327174 0
M  V30 8 C 1.969594 5.392849 -1.910490 0
M  V30 9 C 2.891057 5.673355 -2.883734 0
M  V30 10 C 3.752606 4.640429 -3.230616 0
M  V30 11 C 3.715112 3.375709 -2.646220 0
M  V30 12 C 2.777444 3.118238 -1.668061 0
M  V30 13 N 2.720211 1.907813 -1.089117 0
M  V30 14 N 1.184017 -1.640034 1.871173 0
M  V30 15 C 0.252150 -2.028932 2.902355 0
M  V30 16 C 0.766696 -1.773330 4.153434 0
M  V30 17 C 0.026998 -2.074834 5.284934 0
M  V30 18 C -1.238910 -2.638533 5.103040 0
M  V30 19 C -1.747230 -2.891494 3.845457 0
M  V30 20 C -0.994573 -2.583895 2.729921 0
M  V30 21 C -1.653259 -2.903559 1.444818 0
M  V30 22 C -0.887323 -3.902237 0.606877 0
M  V30 23 C -1.816117 -4.473089 -0.435945 0
M  V30 24 C -3.160614 -3.775200 -0.436041 0
M  V30 25 C -3.837822 -3.881240 0.915163 0
M  V30 26 N -2.911633 -3.449358 1.914913 0
M  V30 27 C -2.983610 -3.449591 3.323553 0
M  V30 28 O -3.922500 -3.848061 4.057076 0
M  V30 29 H 2.558235 -0.395313 0.059692 0
M  V30 30 H 0.242427 2.453925 0.962508 0
M  V30 31 H 0.304483 4.641635 -0.045532 0
M  V30 32 H 1.274942 6.187919 -1.614325 0
M  V30 33 H 2.984955 6.617914 -3.381133 0
M  V30 34 H 4.518387 4.757486 -3.988911 0
M  V30 35 H 4.403162 2.597174 -2.943449 0
M  V30 36 H 1.942218 -2.243686 1.431263 0
M  V30 37 H 1.725072 -1.343839 4.413211 0
M  V30 38 H 0.362668 -1.903304 6.318286 0
M  V30 39 H -1.841456 -2.885486 5.964529 0
M  V30 40 H -1.864078 -2.023280 0.835775 0
M  V30 41 H -0.112744 -3.314043 0.072640 0
M  V30 42 H -0.481534 -4.730296 1.191839 0
M  V30 43 H -1.966358 -5.558344 -0.264447 0
M  V30 44 H -1.394511 -4.334053 -1.466996 0
M  V30 45 H -3.045911 -2.703421 -0.678873 0
M  V30 46 H -3.781937 -4.204893 -1.237525 0
M  V30 47 H -4.741971 -3.238265 0.879805 0
M  V30 48 H -4.113873 -4.966318 1.041685 0
M  V30 END ATOM
M  V30 BEGIN BOND
M  V30 1 2 1 2
M  V30 2 1 2 3
M  V30 3 1 3 4
M  V30 4 2 4 5
M  V30 5 1 5 6
M  V30 6 2 6 7
M  V30 7 1 7 8
M  V30 8 2 8 9
M  V30 9 1 9 10
M  V30 10 2 10 11
M  V30 11 1 11 12
M  V30 12 2 12 13
M  V30 13 1 2 14
M  V30 14 1 14 15
M  V30 15 2 15 16
M  V30 16 1 16 17
M  V30 17 2 17 18
M  V30 18 1 18 19
M  V30 19 2 19 20
M  V30 20 1 20 21
M  V30 21 1 21 22
M  V30 22 1 22 23
M  V30 23 1 23 24
M  V30 24 1 24 25
M  V30 25 1 25 26
M  V30 26 1 26 27
M  V30 27 2 27 28
M  V30 28 1 13 4
M  V30 29 1 20 15
M  V30 30 1 26 21
M  V30 31 1 12 7
M  V30 32 1 27 19
M  V30 33 1 3 29
M  V30 34 1 5 30
M  V30 35 1 6 31
M  V30 36 1 8 32
M  V30 37 1 9 33
M  V30 38 1 10 34
M  V30 39 1 11 35
M  V30 40 1 14 36
M  V30 41 1 16 37
M  V30 42 1 17 38
M  V30 43 1 18 39
M  V30 44 1 21 40
M  V30 45 1 22 41
M  V30 46 1 22 42
M  V30 47 1 23 43
M  V30 48 1 23 44
M  V30 49 1 24 45
M  V30 50 1 24 46
M  V30 51 1 25 47
M  V30 52 1 25 48
M  V30 END BOND
M  V30 END CTAB
M  END
>  <Dataset>  (794) 
ChEMBL_Kinases

>  <Ligand_Instance>  (794) 
nan

>  <PDB_ID>  (794) 
nan

>  <Standardized_SMILES>  (794) 
O=C(Nc1ccc2ccccc2n1)Nc1cccc2c1C1CCCCN1C2=O

>  <Name>  (794) 
nan

>  <Pocket>  (794) 
nan

>  <ATP_Site>  (794) 
nan

>  <Peripheral>  (794) 
nan

>  <Num_H_Atoms_ProtBoundConf>  (794) 
nan

>  <Num_Resolved_Atoms>  (794) 
nan

>  <Num_Not_Resolved_Atoms>  (794) 
nan

$$$$
CHEMBL5074777
     RDKit          3D

  0  0  0  0  0  0  0  0  0  0999 V3000
M  V30 BEGIN CTAB
M  V30 COUNTS 48 49 0 0 0
M  V30 BEGIN ATOM
M  V30 1 C 1.563291 -4.976053 1.938383 0
M  V30 2 C 2.091607 -3.641673 2.514065 0
M  V30 3 C 1.146830 -3.311756 3.641097 0
M  V30 4 C 2.122726 -2.601420 1.440632 0
M  V30 5 C 2.631224 -1.253431 1.795936 0 CFG=2
M  V30 6 C 4.080156 -1.307862 2.294568 0
M  V30 7 N 1.849092 -0.676153 2.866051 0
M  V30 8 C 2.666444 -0.331021 0.589172 0
M  V30 9 O 1.540698 -0.039284 -0.052193 0
M  V30 10 C 0.338061 0.492222 -0.000066 0
M  V30 11 C -0.425276 1.106481 0.946697 0
M  V30 12 C -1.698022 1.618609 0.835427 0
M  V30 13 C -2.250061 1.475556 -0.418677 0
M  V30 14 C -3.596488 1.984887 -0.639103 0
M  V30 15 C -4.057922 3.092049 0.040540 0
M  V30 16 C -5.346085 3.501039 -0.233158 0
M  V30 17 N -6.176573 2.887776 -1.119579 0
M  V30 18 C -5.645131 1.802377 -1.748760 0
M  V30 19 C -4.374955 1.295430 -1.562789 0
M  V30 20 C -1.576244 0.872754 -1.455430 0
M  V30 21 C -0.275975 0.370557 -1.272191 0
M  V30 22 C 0.382186 -0.267534 -2.448232 0
M  V30 23 F -0.494354 -0.212381 -3.506230 0
M  V30 24 F 1.514617 0.414543 -2.813445 0
M  V30 25 F 0.648125 -1.600119 -2.231677 0
M  V30 26 H 1.102633 -5.564545 2.759123 0
M  V30 27 H 2.370427 -5.515569 1.441802 0
M  V30 28 H 0.742346 -4.788076 1.211061 0
M  V30 29 H 3.070634 -3.871496 2.942118 0
M  V30 30 H 0.455385 -2.508020 3.392492 0
M  V30 31 H 1.714546 -3.134843 4.579864 0
M  V30 32 H 0.536334 -4.226975 3.861522 0
M  V30 33 H 2.820336 -3.005017 0.640964 0
M  V30 34 H 1.144862 -2.515800 0.915876 0
M  V30 35 H 4.341164 -0.261660 2.567819 0
M  V30 36 H 4.776396 -1.654512 1.522047 0
M  V30 37 H 4.113261 -1.960356 3.195768 0
M  V30 38 H 1.963972 0.388579 2.840490 0
M  V30 39 H 2.218620 -0.997342 3.812406 0
M  V30 40 H 3.458830 -0.700934 -0.135978 0
M  V30 41 H 3.159639 0.626918 0.971414 0
M  V30 42 H 0.035502 1.204556 1.905321 0
M  V30 43 H -2.184970 2.076730 1.658326 0
M  V30 44 H -3.442098 3.619278 0.756404 0
M  V30 45 H -5.797152 4.371636 0.259921 0
M  V30 46 H -6.324211 1.312943 -2.463720 0
M  V30 47 H -4.087416 0.433641 -2.125520 0
M  V30 48 H -2.102985 0.808060 -2.415827 0
M  V30 END ATOM
M  V30 BEGIN BOND
M  V30 1 1 1 2
M  V30 2 1 2 3
M  V30 3 1 2 4
M  V30 4 1 4 5
M  V30 5 1 5 6
M  V30 6 1 5 7 CFG=1
M  V30 7 1 5 8
M  V30 8 1 8 9
M  V30 9 1 9 10
M  V30 10 2 10 11
M  V30 11 1 11 12
M  V30 12 2 12 13
M  V30 13 1 13 14
M  V30 14 2 14 15
M  V30 15 1 15 16
M  V30 16 2 16 17
M  V30 17 1 17 18
M  V30 18 2 18 19
M  V30 19 1 13 20
M  V30 20 2 20 21
M  V30 21 1 21 22
M  V30 22 1 22 23
M  V30 23 1 22 24
M  V30 24 1 22 25
M  V30 25 1 21 10
M  V30 26 1 19 14
M  V30 27 1 1 26
M  V30 28 1 1 27
M  V30 29 1 1 28
M  V30 30 1 2 29
M  V30 31 1 3 30
M  V30 32 1 3 31
M  V30 33 1 3 32
M  V30 34 1 4 33
M  V30 35 1 4 34
M  V30 36 1 6 35
M  V30 37 1 6 36
M  V30 38 1 6 37
M  V30 39 1 7 38
M  V30 40 1 7 39
M  V30 41 1 8 40
M  V30 42 1 8 41
M  V30 43 1 11 42
M  V30 44 1 12 43
M  V30 45 1 15 44
M  V30 46 1 16 45
M  V30 47 1 18 46
M  V30 48 1 19 47
M  V30 49 1 20 48
M  V30 END BOND
M  V30 END CTAB
M  END
>  <Dataset>  (795) 
ChEMBL_Kinases

>  <Ligand_Instance>  (795) 
nan

>  <PDB_ID>  (795) 
nan

>  <Standardized_SMILES>  (795) 
CC(C)C[C@](C)(N)COc1ccc(-c2ccncc2)cc1C(F)(F)F

>  <Name>  (795) 
nan

>  <Pocket>  (795) 
nan

>  <ATP_Site>  (795) 
nan

>  <Peripheral>  (795) 
nan

>  <Num_H_Atoms_ProtBoundConf>  (795) 
nan

>  <Num_Resolved_Atoms>  (795) 
nan

>  <Num_Not_Resolved_Atoms>  (795) 
nan

$$$$
CHEMBL5074790
     RDKit          3D

  0  0  0  0  0  0  0  0  0  0999 V3000
M  V30 BEGIN CTAB
M  V30 COUNTS 50 53 0 0 0
M  V30 BEGIN ATOM
M  V30 1 C 3.651097 -0.631546 3.376356 0
M  V30 2 C 3.950756 -1.943689 2.736269 0 CFG=2
M  V30 3 C 5.420052 -2.261196 2.685756 0
M  V30 4 C 5.506431 -3.223295 1.527289 0
M  V30 5 C 4.377632 -2.892717 0.577628 0
M  V30 6 N 3.520530 -2.032939 1.356215 0
M  V30 7 C 2.354353 -1.308407 0.976009 0
M  V30 8 C 2.283543 -0.142732 0.244755 0
M  V30 9 C 3.458597 0.527332 -0.270815 0
M  V30 10 N 4.380262 1.059724 -0.696225 0
M  V30 11 C 0.964077 0.232144 0.117706 0
M  V30 12 C 0.351309 1.296875 -0.497590 0
M  V30 13 N 1.181115 2.214252 -1.159195 0
M  V30 14 N -1.012097 1.389751 -0.432182 0
M  V30 15 C -1.707004 0.450941 0.220822 0
M  V30 16 N -3.093740 0.707796 0.212970 0
M  V30 17 C -4.290464 0.601557 -0.494355 0
M  V30 18 C -4.447274 0.030743 -1.763813 0
M  V30 19 N -5.757957 0.178131 -2.011954 0
M  V30 20 C -6.623632 -0.176741 -3.126205 0
M  V30 21 N -6.359556 0.776528 -1.006045 0
M  V30 22 C -5.517538 1.068924 -0.029803 0
M  V30 23 C -5.749384 1.726910 1.293194 0
M  V30 24 F -5.411714 0.815127 2.273380 0
M  V30 25 F -7.082199 2.030649 1.419580 0
M  V30 26 F -5.022489 2.896061 1.405713 0
M  V30 27 N -1.063049 -0.567220 0.802549 0
M  V30 28 C 0.265890 -0.734733 0.787692 0
M  V30 29 N 1.074871 -1.670950 1.312047 0
M  V30 30 C 0.764903 -2.843675 2.078910 0
M  V30 31 H 2.693825 -0.224643 2.999661 0
M  V30 32 H 4.437266 0.129431 3.225091 0
M  V30 33 H 3.522788 -0.775760 4.470447 0
M  V30 34 H 3.405297 -2.720914 3.360602 0
M  V30 35 H 5.742833 -2.751709 3.642659 0
M  V30 36 H 6.026879 -1.342540 2.553522 0
M  V30 37 H 6.488308 -3.220766 1.051944 0
M  V30 38 H 5.359570 -4.242824 1.952588 0
M  V30 39 H 4.829812 -2.297777 -0.256745 0
M  V30 40 H 3.868804 -3.797297 0.211434 0
M  V30 41 H 1.883273 1.767482 -1.817227 0
M  V30 42 H 1.712299 2.985191 -1.568017 0
M  V30 43 H -3.092850 1.150890 1.180187 0
M  V30 44 H -3.757453 -0.428488 -2.437523 0
M  V30 45 H -7.286201 -0.998567 -2.791594 0
M  V30 46 H -7.299761 0.671813 -3.418509 0
M  V30 47 H -6.060658 -0.558932 -3.984017 0
M  V30 48 H 1.509415 -3.673171 1.887464 0
M  V30 49 H 0.778443 -2.627141 3.160320 0
M  V30 50 H -0.227688 -3.259318 1.830321 0
M  V30 END ATOM
M  V30 BEGIN BOND
M  V30 1 1 1 2
M  V30 2 1 2 3
M  V30 3 1 3 4
M  V30 4 1 4 5
M  V30 5 1 5 6
M  V30 6 1 6 7
M  V30 7 2 7 8
M  V30 8 1 8 9
M  V30 9 3 9 10
M  V30 10 1 8 11
M  V30 11 2 11 12
M  V30 12 1 12 13
M  V30 13 1 12 14
M  V30 14 2 14 15
M  V30 15 1 15 16
M  V30 16 1 16 17
M  V30 17 2 17 18
M  V30 18 1 18 19
M  V30 19 1 19 20
M  V30 20 1 19 21
M  V30 21 2 21 22
M  V30 22 1 22 23
M  V30 23 1 23 24
M  V30 24 1 23 25
M  V30 25 1 23 26
M  V30 26 1 15 27
M  V30 27 2 27 28
M  V30 28 1 28 29
M  V30 29 1 29 30
M  V30 30 1 6 2
M  V30 31 1 29 7
M  V30 32 1 28 11
M  V30 33 1 22 17
M  V30 34 1 1 31
M  V30 35 1 1 32
M  V30 36 1 1 33
M  V30 37 1 2 34 CFG=1
M  V30 38 1 3 35
M  V30 39 1 3 36
M  V30 40 1 4 37
M  V30 41 1 4 38
M  V30 42 1 5 39
M  V30 43 1 5 40
M  V30 44 1 13 41
M  V30 45 1 13 42
M  V30 46 1 16 43
M  V30 47 1 18 44
M  V30 48 1 20 45
M  V30 49 1 20 46
M  V30 50 1 20 47
M  V30 51 1 30 48
M  V30 52 1 30 49
M  V30 53 1 30 50
M  V30 END BOND
M  V30 END CTAB
M  END
>  <Dataset>  (796) 
ChEMBL_Kinases

>  <Ligand_Instance>  (796) 
nan

>  <PDB_ID>  (796) 
nan

>  <Standardized_SMILES>  (796) 
C[C@@H]1CCCN1c1c(C#N)c2c(N)nc(Nc3cn(C)nc3C(F)(F)F)nc2n1C

>  <Name>  (796) 
nan

>  <Pocket>  (796) 
nan

>  <ATP_Site>  (796) 
nan

>  <Peripheral>  (796) 
nan

>  <Num_H_Atoms_ProtBoundConf>  (796) 
nan

>  <Num_Resolved_Atoms>  (796) 
nan

>  <Num_Not_Resolved_Atoms>  (796) 
nan

$$$$
CHEMBL5074799
     RDKit          3D

  0  0  0  0  0  0  0  0  0  0999 V3000
M  V30 BEGIN CTAB
M  V30 COUNTS 65 70 0 0 0
M  V30 BEGIN ATOM
M  V30 1 C 0.631979 -5.862940 -0.590745 0
M  V30 2 C 0.081241 -5.190532 0.620557 0
M  V30 3 C 0.568440 -3.963969 1.086563 0
M  V30 4 N 1.619579 -3.178416 0.524840 0
M  V30 5 C 2.045782 -1.929576 1.071981 0
M  V30 6 N 2.976450 -1.665379 2.001473 0
M  V30 7 C 3.197702 -0.385637 2.351386 0
M  V30 8 C 2.522498 0.678985 1.810129 0
M  V30 9 C 2.724798 1.999637 2.145553 0
M  V30 10 C 2.031184 3.051699 1.584546 0
M  V30 11 C 1.066325 2.746960 0.617462 0
M  V30 12 C 0.289015 3.831998 -0.022509 0
M  V30 13 C 1.220044 4.757932 -0.764430 0
M  V30 14 C 0.491347 5.955592 -1.316068 0
M  V30 15 N -0.898525 5.998101 -1.087990 0
M  V30 16 C -1.782177 5.685536 -2.138458 0
M  V30 17 C -1.719586 6.571064 -3.362970 0
M  V30 18 O -2.165452 5.447325 -4.083730 0
M  V30 19 C -1.342699 4.707586 -3.200027 0
M  V30 20 C -1.358909 5.614558 0.197302 0
M  V30 21 C -0.472449 4.683656 0.966449 0
M  V30 22 C 0.872342 1.432378 0.290821 0
M  V30 23 C 1.562674 0.376264 0.848280 0
M  V30 24 N 1.356059 -0.916123 0.511242 0
M  V30 25 C -0.184538 -3.675895 2.208192 0
M  V30 26 N -1.055060 -4.672130 2.383824 0
M  V30 27 N -0.912652 -5.595270 1.439046 0
M  V30 28 C -1.642436 -6.834221 1.244342 0
M  V30 29 C -2.849574 -6.811758 2.119159 0
M  V30 30 C -3.068041 -8.129360 2.791484 0
M  V30 31 O -2.872613 -9.121239 1.857290 0
M  V30 32 C -1.502737 -9.298069 1.726016 0
M  V30 33 C -0.761547 -8.028813 1.441407 0
M  V30 34 H -0.174358 -6.438400 -1.107978 0
M  V30 35 H 1.464429 -6.509631 -0.245175 0
M  V30 36 H 1.036314 -5.103541 -1.277972 0
M  V30 37 H 2.089552 -3.547738 -0.326166 0
M  V30 38 H 3.948958 -0.189031 3.099923 0
M  V30 39 H 3.485341 2.176635 2.901195 0
M  V30 40 H 2.210784 4.075936 1.866681 0
M  V30 41 H -0.398314 3.386052 -0.742535 0
M  V30 42 H 1.782390 4.220714 -1.552778 0
M  V30 43 H 1.980405 5.082077 -0.025321 0
M  V30 44 H 0.746825 6.033895 -2.372318 0
M  V30 45 H 0.927679 6.888636 -0.845695 0
M  V30 46 H -2.840486 5.506210 -1.892482 0
M  V30 47 H -2.435945 7.416920 -3.361803 0
M  V30 48 H -0.667661 6.851615 -3.564443 0
M  V30 49 H -0.323216 4.791959 -3.580452 0
M  V30 50 H -1.704937 3.667795 -3.059840 0
M  V30 51 H -2.363002 5.110500 0.086017 0
M  V30 52 H -1.585768 6.528013 0.818684 0
M  V30 53 H -1.071084 4.073279 1.660586 0
M  V30 54 H 0.228777 5.287684 1.579624 0
M  V30 55 H 0.124138 1.148347 -0.463902 0
M  V30 56 H -0.063521 -2.791311 2.813205 0
M  V30 57 H -2.029465 -6.889080 0.185320 0
M  V30 58 H -3.794344 -6.538409 1.575352 0
M  V30 59 H -2.778132 -6.023180 2.924943 0
M  V30 60 H -4.120100 -8.106404 3.187067 0
M  V30 61 H -2.349651 -8.210356 3.651201 0
M  V30 62 H -1.135230 -9.742180 2.675100 0
M  V30 63 H -1.350738 -10.063843 0.937301 0
M  V30 64 H -0.040999 -7.791402 2.258373 0
M  V30 65 H -0.148167 -8.189509 0.530665 0
M  V30 END ATOM
M  V30 BEGIN BOND
M  V30 1 1 1 2
M  V30 2 2 2 3
M  V30 3 1 3 4
M  V30 4 1 4 5
M  V30 5 2 5 6
M  V30 6 1 6 7
M  V30 7 2 7 8
M  V30 8 1 8 9
M  V30 9 2 9 10
M  V30 10 1 10 11
M  V30 11 1 11 12
M  V30 12 1 12 13
M  V30 13 1 13 14
M  V30 14 1 14 15
M  V30 15 1 15 16
M  V30 16 1 16 17
M  V30 17 1 17 18
M  V30 18 1 18 19
M  V30 19 1 15 20
M  V30 20 1 20 21
M  V30 21 2 11 22
M  V30 22 1 22 23
M  V30 23 2 23 24
M  V30 24 1 3 25
M  V30 25 2 25 26
M  V30 26 1 26 27
M  V30 27 1 27 28
M  V30 28 1 28 29
M  V30 29 1 29 30
M  V30 30 1 30 31
M  V30 31 1 31 32
M  V30 32 1 32 33
M  V30 33 1 27 2
M  V30 34 1 33 28
M  V30 35 1 24 5
M  V30 36 1 23 8
M  V30 37 1 21 12
M  V30 38 1 19 16
M  V30 39 1 1 34
M  V30 40 1 1 35
M  V30 41 1 1 36
M  V30 42 1 4 37
M  V30 43 1 7 38
M  V30 44 1 9 39
M  V30 45 1 10 40
M  V30 46 1 12 41
M  V30 47 1 13 42
M  V30 48 1 13 43
M  V30 49 1 14 44
M  V30 50 1 14 45
M  V30 51 1 16 46
M  V30 52 1 17 47
M  V30 53 1 17 48
M  V30 54 1 19 49
M  V30 55 1 19 50
M  V30 56 1 20 51
M  V30 57 1 20 52
M  V30 58 1 21 53
M  V30 59 1 21 54
M  V30 60 1 22 55
M  V30 61 1 25 56
M  V30 62 1 28 57
M  V30 63 1 29 58
M  V30 64 1 29 59
M  V30 65 1 30 60
M  V30 66 1 30 61
M  V30 67 1 32 62
M  V30 68 1 32 63
M  V30 69 1 33 64
M  V30 70 1 33 65
M  V30 END BOND
M  V30 END CTAB
M  END
>  <Dataset>  (797) 
ChEMBL_Kinases

>  <Ligand_Instance>  (797) 
nan

>  <PDB_ID>  (797) 
nan

>  <Standardized_SMILES>  (797) 
Cc1c(Nc2ncc3ccc(C4CCN(C5COC5)CC4)cc3n2)cnn1C1CCOCC1

>  <Name>  (797) 
nan

>  <Pocket>  (797) 
nan

>  <ATP_Site>  (797) 
nan

>  <Peripheral>  (797) 
nan

>  <Num_H_Atoms_ProtBoundConf>  (797) 
nan

>  <Num_Resolved_Atoms>  (797) 
nan

>  <Num_Not_Resolved_Atoms>  (797) 
nan

$$$$
CHEMBL5074845
     RDKit          3D

  0  0  0  0  0  0  0  0  0  0999 V3000
M  V30 BEGIN CTAB
M  V30 COUNTS 53 56 0 0 0
M  V30 BEGIN ATOM
M  V30 1 O 5.771153 -2.998387 5.389455 0
M  V30 2 C 5.984598 -2.106896 4.529473 0
M  V30 3 O 5.418519 -1.554819 5.662844 0
M  V30 4 C 6.599519 -2.681712 3.288801 0
M  V30 5 C 6.869218 -1.680978 2.222987 0
M  V30 6 N 5.736504 -1.018366 1.688226 0
M  V30 7 C 4.672429 -1.696088 1.029358 0
M  V30 8 O 4.868643 -2.955272 0.998918 0
M  V30 9 C 3.436851 -1.387577 0.372464 0
M  V30 10 C 3.114201 -2.176688 -0.741432 0
M  V30 11 C 1.933351 -2.032415 -1.482220 0
M  V30 12 C 1.082429 -1.040462 -1.033826 0
M  V30 13 C 1.333905 -0.226997 0.054498 0
M  V30 14 C 2.533262 -0.420982 0.749328 0
M  V30 15 C 0.555642 0.826981 0.714785 0
M  V30 16 O 1.138693 1.722008 1.371616 0
M  V30 17 C -0.923565 0.798697 0.571696 0
M  V30 18 C -1.484775 1.763682 1.431195 0
M  V30 19 C -2.851623 1.969743 1.525638 0
M  V30 20 C -3.688025 1.192409 0.736239 0
M  V30 21 N -5.130147 1.319476 0.745550 0
M  V30 22 C -5.928516 0.383170 0.009283 0
M  V30 23 C -6.662341 1.040771 -0.989702 0
M  V30 24 C -7.474118 0.228814 -1.778267 0
M  V30 25 C -7.557625 -1.155576 -1.594417 0
M  V30 26 F -8.347822 -1.887117 -2.386756 0
M  V30 27 C -6.815135 -1.735023 -0.599479 0
M  V30 28 C -5.981778 -0.999752 0.233669 0
M  V30 29 F -5.191288 -1.441838 1.253782 0
M  V30 30 C -3.147918 0.245332 -0.098712 0
M  V30 31 C -1.780646 0.036356 -0.197543 0
M  V30 32 C -1.441249 -1.015546 -1.162931 0
M  V30 33 C -0.128617 -0.920674 -1.844769 0
M  V30 34 H 5.711024 -0.602042 5.949672 0
M  V30 35 H 7.580497 -3.139976 3.628260 0
M  V30 36 H 5.907588 -3.479080 2.966115 0
M  V30 37 H 7.503212 -2.144052 1.428050 0
M  V30 38 H 7.525931 -0.894821 2.700762 0
M  V30 39 H 5.488236 0.010360 1.678820 0
M  V30 40 H 3.756083 -2.977469 -1.140030 0
M  V30 41 H 1.722176 -2.656071 -2.333585 0
M  V30 42 H 2.757714 0.215636 1.603052 0
M  V30 43 H -0.811448 2.377227 2.053834 0
M  V30 44 H -3.319329 2.700503 2.169251 0
M  V30 45 H -5.486570 2.111728 1.311640 0
M  V30 46 H -6.652315 2.102318 -1.194785 0
M  V30 47 H -8.044501 0.736097 -2.554980 0
M  V30 48 H -6.816601 -2.789849 -0.386550 0
M  V30 49 H -3.762079 -0.377037 -0.735889 0
M  V30 50 H -1.578004 -2.025760 -0.728391 0
M  V30 51 H -2.219209 -0.939665 -1.983667 0
M  V30 52 H -0.090809 -1.702133 -2.638311 0
M  V30 53 H -0.099260 0.065831 -2.395415 0
M  V30 END ATOM
M  V30 BEGIN BOND
M  V30 1 2 1 2
M  V30 2 1 2 3
M  V30 3 1 2 4
M  V30 4 1 4 5
M  V30 5 1 5 6
M  V30 6 1 6 7
M  V30 7 2 7 8
M  V30 8 1 7 9
M  V30 9 2 9 10
M  V30 10 1 10 11
M  V30 11 2 11 12
M  V30 12 1 12 13
M  V30 13 2 13 14
M  V30 14 1 13 15
M  V30 15 2 15 16
M  V30 16 1 15 17
M  V30 17 2 17 18
M  V30 18 1 18 19
M  V30 19 2 19 20
M  V30 20 1 20 21
M  V30 21 1 21 22
M  V30 22 2 22 23
M  V30 23 1 23 24
M  V30 24 2 24 25
M  V30 25 1 25 26
M  V30 26 1 25 27
M  V30 27 2 27 28
M  V30 28 1 28 29
M  V30 29 1 20 30
M  V30 30 2 30 31
M  V30 31 1 31 32
M  V30 32 1 32 33
M  V30 33 1 14 9
M  V30 34 1 31 17
M  V30 35 1 33 12
M  V30 36 1 28 22
M  V30 37 1 3 34
M  V30 38 1 4 35
M  V30 39 1 4 36
M  V30 40 1 5 37
M  V30 41 1 5 38
M  V30 42 1 6 39
M  V30 43 1 10 40
M  V30 44 1 11 41
M  V30 45 1 14 42
M  V30 46 1 18 43
M  V30 47 1 19 44
M  V30 48 1 21 45
M  V30 49 1 23 46
M  V30 50 1 24 47
M  V30 51 1 27 48
M  V30 52 1 30 49
M  V30 53 1 32 50
M  V30 54 1 32 51
M  V30 55 1 33 52
M  V30 56 1 33 53
M  V30 END BOND
M  V30 END CTAB
M  END
>  <Dataset>  (798) 
ChEMBL_Kinases

>  <Ligand_Instance>  (798) 
nan

>  <PDB_ID>  (798) 
nan

>  <Standardized_SMILES>  (798) 
O=C(O)CCNC(=O)c1ccc2c(c1)C(=O)c1ccc(Nc3ccc(F)cc3F)cc1CC2

>  <Name>  (798) 
nan

>  <Pocket>  (798) 
nan

>  <ATP_Site>  (798) 
nan

>  <Peripheral>  (798) 
nan

>  <Num_H_Atoms_ProtBoundConf>  (798) 
nan

>  <Num_Resolved_Atoms>  (798) 
nan

>  <Num_Not_Resolved_Atoms>  (798) 
nan

$$$$
CHEMBL5074857
     RDKit          3D

  0  0  0  0  0  0  0  0  0  0999 V3000
M  V30 BEGIN CTAB
M  V30 COUNTS 56 59 0 0 0
M  V30 BEGIN ATOM
M  V30 1 C 4.895896 -0.037896 6.505351 0
M  V30 2 O 4.544273 1.338270 6.341142 0
M  V30 3 C 4.411862 1.915735 5.091643 0
M  V30 4 O 4.569491 1.358622 3.981818 0
M  V30 5 C 4.044663 3.349969 4.961504 0
M  V30 6 C 3.976532 3.692949 3.469704 0
M  V30 7 N 2.963014 2.822322 2.923190 0
M  V30 8 C 2.797158 3.038369 1.532663 0
M  V30 9 O 3.526815 3.911729 1.032300 0
M  V30 10 C 1.853634 2.321988 0.681248 0
M  V30 11 C 1.847239 2.678593 -0.651254 0
M  V30 12 C 0.976060 2.045044 -1.543127 0
M  V30 13 C 0.130096 1.061957 -1.058887 0
M  V30 14 C 0.133558 0.699012 0.286355 0
M  V30 15 C 1.013122 1.342958 1.171082 0
M  V30 16 C -0.660935 -0.301871 1.026298 0
M  V30 17 O -0.627196 -0.287581 2.283144 0
M  V30 18 C -1.487227 -1.311755 0.369937 0
M  V30 19 C -2.245781 -2.023343 1.287534 0
M  V30 20 C -3.115034 -3.035885 0.952944 0
M  V30 21 C -3.248255 -3.373308 -0.379150 0
M  V30 22 N -4.112702 -4.398826 -0.851997 0
M  V30 23 C -4.311863 -4.855675 -2.184207 0
M  V30 24 C -5.488363 -4.851355 -2.909383 0
M  V30 25 C -5.524294 -5.332883 -4.201140 0
M  V30 26 C -4.400140 -5.833765 -4.817408 0
M  V30 27 F -4.496227 -6.296907 -6.098133 0
M  V30 28 C -3.220613 -5.846129 -4.111172 0
M  V30 29 C -3.167562 -5.364196 -2.807754 0
M  V30 30 F -1.914289 -5.463170 -2.280614 0
M  V30 31 C -2.500134 -2.674878 -1.308343 0
M  V30 32 C -1.623591 -1.655533 -0.983178 0
M  V30 33 C -0.903514 -1.009697 -2.062812 0
M  V30 34 C -0.737505 0.451879 -2.028036 0
M  V30 35 H 5.543097 -0.108797 7.404368 0
M  V30 36 H 5.547158 -0.369488 5.645855 0
M  V30 37 H 3.996811 -0.670695 6.588217 0
M  V30 38 H 3.056532 3.541097 5.432121 0
M  V30 39 H 4.798343 3.994061 5.485027 0
M  V30 40 H 4.952021 3.383148 3.042287 0
M  V30 41 H 3.755820 4.744974 3.295451 0
M  V30 42 H 2.361760 2.090287 3.381907 0
M  V30 43 H 2.452380 3.421741 -1.144087 0
M  V30 44 H 0.902177 2.257703 -2.596725 0
M  V30 45 H 1.029704 1.074144 2.219425 0
M  V30 46 H -2.178676 -1.797302 2.351793 0
M  V30 47 H -3.696890 -3.578290 1.680880 0
M  V30 48 H -4.694008 -4.899856 -0.124243 0
M  V30 49 H -6.331294 -4.449324 -2.377157 0
M  V30 50 H -6.458695 -5.316094 -4.742087 0
M  V30 51 H -2.380103 -6.252455 -4.655888 0
M  V30 52 H -2.509963 -2.836712 -2.380088 0
M  V30 53 H -1.338237 -1.336083 -3.030307 0
M  V30 54 H 0.128773 -1.470310 -2.088537 0
M  V30 55 H -1.759109 0.876902 -1.849444 0
M  V30 56 H -0.452284 0.820739 -3.037185 0
M  V30 END ATOM
M  V30 BEGIN BOND
M  V30 1 1 1 2
M  V30 2 1 2 3
M  V30 3 2 3 4
M  V30 4 1 3 5
M  V30 5 1 5 6
M  V30 6 1 6 7
M  V30 7 1 7 8
M  V30 8 2 8 9
M  V30 9 1 8 10
M  V30 10 2 10 11
M  V30 11 1 11 12
M  V30 12 2 12 13
M  V30 13 1 13 14
M  V30 14 2 14 15
M  V30 15 1 14 16
M  V30 16 2 16 17
M  V30 17 1 16 18
M  V30 18 2 18 19
M  V30 19 1 19 20
M  V30 20 2 20 21
M  V30 21 1 21 22
M  V30 22 1 22 23
M  V30 23 2 23 24
M  V30 24 1 24 25
M  V30 25 2 25 26
M  V30 26 1 26 27
M  V30 27 1 26 28
M  V30 28 2 28 29
M  V30 29 1 29 30
M  V30 30 1 21 31
M  V30 31 2 31 32
M  V30 32 1 32 33
M  V30 33 1 33 34
M  V30 34 1 15 10
M  V30 35 1 32 18
M  V30 36 1 34 13
M  V30 37 1 29 23
M  V30 38 1 1 35
M  V30 39 1 1 36
M  V30 40 1 1 37
M  V30 41 1 5 38
M  V30 42 1 5 39
M  V30 43 1 6 40
M  V30 44 1 6 41
M  V30 45 1 7 42
M  V30 46 1 11 43
M  V30 47 1 12 44
M  V30 48 1 15 45
M  V30 49 1 19 46
M  V30 50 1 20 47
M  V30 51 1 22 48
M  V30 52 1 24 49
M  V30 53 1 25 50
M  V30 54 1 28 51
M  V30 55 1 31 52
M  V30 56 1 33 53
M  V30 57 1 33 54
M  V30 58 1 34 55
M  V30 59 1 34 56
M  V30 END BOND
M  V30 END CTAB
M  END
>  <Dataset>  (799) 
ChEMBL_Kinases

>  <Ligand_Instance>  (799) 
nan

>  <PDB_ID>  (799) 
nan

>  <Standardized_SMILES>  (799) 
COC(=O)CCNC(=O)c1ccc2c(c1)C(=O)c1ccc(Nc3ccc(F)cc3F)cc1CC2

>  <Name>  (799) 
nan

>  <Pocket>  (799) 
nan

>  <ATP_Site>  (799) 
nan

>  <Peripheral>  (799) 
nan

>  <Num_H_Atoms_ProtBoundConf>  (799) 
nan

>  <Num_Resolved_Atoms>  (799) 
nan

>  <Num_Not_Resolved_Atoms>  (799) 
nan

$$$$
CHEMBL378922
     RDKit          3D

  0  0  0  0  0  0  0  0  0  0999 V3000
M  V30 BEGIN CTAB
M  V30 COUNTS 41 44 0 0 0
M  V30 BEGIN ATOM
M  V30 1 C -0.887813 -5.277183 1.551540 0
M  V30 2 C -1.188404 -3.823289 1.455951 0
M  V30 3 C -1.016228 -3.194938 0.116376 0
M  V30 4 N 0.295412 -3.261047 -0.442802 0
M  V30 5 C 1.449069 -2.764877 0.197162 0
M  V30 6 N 2.241350 -3.651682 0.824254 0
M  V30 7 N 3.259729 -3.042608 1.377196 0
M  V30 8 C 3.145596 -1.716244 1.114859 0
M  V30 9 C 3.850235 -0.564947 1.400328 0
M  V30 10 C 3.376422 0.643269 0.933713 0
M  V30 11 C 2.201107 0.741131 0.178073 0
M  V30 12 C 1.913631 2.114511 -0.186530 0
M  V30 13 O 2.650600 2.967608 -0.880019 0
M  V30 14 C 2.029323 4.118330 -0.988550 0
M  V30 15 N 0.827541 4.032675 -0.341362 0
M  V30 16 C 0.758643 2.786723 0.155535 0
M  V30 17 C -0.365295 2.242582 0.922905 0
M  V30 18 C -0.291936 1.768307 2.219228 0
M  V30 19 C -1.442523 1.289310 2.813454 0
M  V30 20 C -2.610340 1.306908 2.084413 0
M  V30 21 F -3.695616 0.820295 2.737156 0
M  V30 22 C -2.724787 1.778716 0.772617 0
M  V30 23 C -1.540624 2.255182 0.204385 0
M  V30 24 C 1.521069 -0.418459 -0.090123 0
M  V30 25 N 2.023966 -1.568629 0.386685 0
M  V30 26 H -1.810748 -5.918918 1.518630 0
M  V30 27 H -0.238713 -5.681612 0.754577 0
M  V30 28 H -0.449774 -5.492645 2.571831 0
M  V30 29 H -2.282679 -3.699896 1.713450 0
M  V30 30 H -0.639382 -3.225717 2.234999 0
M  V30 31 H -1.281164 -2.102054 0.250412 0
M  V30 32 H -1.758858 -3.556258 -0.633624 0
M  V30 33 H 0.504399 -3.686709 -1.377697 0
M  V30 34 H 4.746243 -0.662412 1.981853 0
M  V30 35 H 4.015075 1.490206 1.218338 0
M  V30 36 H 2.330429 5.041041 -1.484252 0
M  V30 37 H 0.697408 1.815302 2.674466 0
M  V30 38 H -1.357737 0.927206 3.825147 0
M  V30 39 H -3.701273 1.751634 0.281454 0
M  V30 40 H -1.639463 2.619522 -0.822749 0
M  V30 41 H 0.638948 -0.296382 -0.668196 0
M  V30 END ATOM
M  V30 BEGIN BOND
M  V30 1 1 1 2
M  V30 2 1 2 3
M  V30 3 1 3 4
M  V30 4 1 4 5
M  V30 5 2 5 6
M  V30 6 1 6 7
M  V30 7 2 7 8
M  V30 8 1 8 9
M  V30 9 2 9 10
M  V30 10 1 10 11
M  V30 11 1 11 12
M  V30 12 1 12 13
M  V30 13 1 13 14
M  V30 14 2 14 15
M  V30 15 1 15 16
M  V30 16 1 16 17
M  V30 17 2 17 18
M  V30 18 1 18 19
M  V30 19 2 19 20
M  V30 20 1 20 21
M  V30 21 1 20 22
M  V30 22 2 22 23
M  V30 23 2 11 24
M  V30 24 1 24 25
M  V30 25 1 25 5
M  V30 26 1 25 8
M  V30 27 2 16 12
M  V30 28 1 23 17
M  V30 29 1 1 26
M  V30 30 1 1 27
M  V30 31 1 1 28
M  V30 32 1 2 29
M  V30 33 1 2 30
M  V30 34 1 3 31
M  V30 35 1 3 32
M  V30 36 1 4 33
M  V30 37 1 9 34
M  V30 38 1 10 35
M  V30 39 1 14 36
M  V30 40 1 18 37
M  V30 41 1 19 38
M  V30 42 1 22 39
M  V30 43 1 23 40
M  V30 44 1 24 41
M  V30 END BOND
M  V30 END CTAB
M  END
>  <Dataset>  (800) 
ChEMBL_Kinases

>  <Ligand_Instance>  (800) 
nan

>  <PDB_ID>  (800) 
nan

>  <Standardized_SMILES>  (800) 
CCCNc1nnc2ccc(-c3ocnc3-c3ccc(F)cc3)cn12

>  <Name>  (800) 
nan

>  <Pocket>  (800) 
nan

>  <ATP_Site>  (800) 
nan

>  <Peripheral>  (800) 
nan

>  <Num_H_Atoms_ProtBoundConf>  (800) 
nan

>  <Num_Resolved_Atoms>  (800) 
nan

>  <Num_Not_Resolved_Atoms>  (800) 
nan

$$$$
CHEMBL5075075
     RDKit          3D

  0  0  0  0  0  0  0  0  0  0999 V3000
M  V30 BEGIN CTAB
M  V30 COUNTS 131 133 0 0 0
M  V30 BEGIN ATOM
M  V30 1 C 4.788391 3.411746 -5.218172 0
M  V30 2 O 4.594390 3.247196 -3.819329 0
M  V30 3 C 3.481325 2.521869 -3.346306 0
M  V30 4 O 3.072717 2.291574 -4.506147 0
M  V30 5 C 2.334453 1.773067 -2.812747 0 CFG=2
M  V30 6 C 2.820682 0.595511 -1.999503 0
M  V30 7 C 3.661293 0.929467 -0.821901 0
M  V30 8 C 4.011493 -0.421006 -0.167646 0
M  V30 9 C 4.961045 1.524404 -1.252067 0
M  V30 10 N 1.505065 1.203899 -3.890574 0
M  V30 11 C 0.089165 1.349952 -4.221648 0
M  V30 12 O -0.156241 2.139678 -3.244412 0
M  V30 13 C -0.141491 0.527887 -5.421555 0 CFG=2
M  V30 14 C 0.598015 1.193596 -6.619229 0
M  V30 15 C -0.033768 0.420862 -7.749237 0
M  V30 16 C -1.073021 -0.433783 -7.110489 0 CFG=1
M  V30 17 O -0.535190 -1.523029 -6.486814 0
M  V30 18 C -1.227200 -2.701842 -6.476913 0
M  V30 19 C -0.457300 -3.641838 -5.478251 0
M  V30 20 N -0.550348 -2.872300 -4.227687 0
M  V30 21 C -0.054791 -3.087634 -2.909797 0
M  V30 22 O 0.255526 -4.008685 -3.701211 0
M  V30 23 C -0.367938 -2.035083 -1.858667 0
M  V30 24 C 0.239442 -2.420054 -0.551998 0
M  V30 25 C -0.087213 -1.385852 0.472223 0 CFG=2
M  V30 26 N 0.389768 -1.781589 1.778987 0
M  V30 27 C 0.661614 -0.673142 2.643605 0
M  V30 28 O 0.531959 0.587103 2.465202 0
M  V30 29 C 1.180673 -0.880133 3.990305 0
M  V30 30 C 0.997280 -0.052706 5.054221 0
M  V30 31 C 1.543712 -0.222950 6.303300 0
M  V30 32 O 1.434460 0.522207 7.434101 0
M  V30 33 C 0.747488 1.681976 7.710799 0
M  V30 34 C 1.081123 2.897813 6.926884 0
M  V30 35 C 2.534925 3.311429 7.063261 0
M  V30 36 C 2.792072 4.541749 6.241641 0
M  V30 37 O 2.238897 5.544281 6.805228 0
M  V30 38 O 3.239343 5.371600 5.244858 0
M  V30 39 C 2.347641 -1.333159 6.481341 0
M  V30 40 C 2.602545 -2.239151 5.472863 0
M  V30 41 O 3.395292 -3.361552 5.579188 0
M  V30 42 C 4.052854 -3.710396 6.757680 0
M  V30 43 C 4.884621 -4.965602 6.597121 0
M  V30 44 N 4.151458 -6.129408 6.230536 0
M  V30 45 C 3.294471 -6.598942 7.301721 0
M  V30 46 C 5.071819 -7.195802 5.891550 0
M  V30 47 C 2.007763 -1.980474 4.260754 0
M  V30 48 C -1.572953 -1.096675 0.538560 0
M  V30 49 O -2.568830 -1.339503 1.252606 0
M  V30 50 N -2.413335 -0.335050 -0.303494 0
M  V30 51 C -3.751058 0.109034 -0.628144 0 CFG=1
M  V30 52 C -4.004225 1.387049 0.252745 0
M  V30 53 O -3.891352 1.038302 1.586019 0
M  V30 54 C -3.898535 0.567901 -2.006525 0
M  V30 55 O -5.091602 0.681284 -2.377597 0
M  V30 56 N -3.303039 0.986185 -3.219684 0
M  V30 57 C -3.705456 1.345376 -4.589248 0 CFG=1
M  V30 58 C -3.976099 2.836846 -4.680529 0 CFG=1
M  V30 59 C -2.859451 3.671014 -4.144285 0
M  V30 60 O -4.327616 3.105883 -5.976195 0
M  V30 61 P -5.931884 3.617713 -6.106227 0
M  V30 62 O -6.112549 5.065904 -5.697285 0
M  V30 63 O -6.481354 3.374590 -7.686338 0
M  V30 64 O -6.933390 2.692158 -5.104455 0
M  V30 65 C -2.777154 0.859993 -5.573273 0
M  V30 66 O -3.236436 0.673449 -6.699304 0
M  V30 67 N -1.472618 0.465289 -5.946590 0
M  V30 68 H 4.001543 3.975496 -5.712871 0
M  V30 69 H 5.743370 3.957549 -5.316971 0
M  V30 70 H 4.976434 2.416885 -5.716569 0
M  V30 71 H 1.713215 2.441238 -2.170590 0
M  V30 72 H 3.434143 -0.103350 -2.646716 0
M  V30 73 H 1.986692 -0.038446 -1.640198 0
M  V30 74 H 3.077271 1.549957 -0.107319 0
M  V30 75 H 3.133601 -1.029115 0.045744 0
M  V30 76 H 4.732803 -0.914358 -0.849423 0
M  V30 77 H 4.591260 -0.187218 0.768243 0
M  V30 78 H 5.757321 1.193889 -0.512655 0
M  V30 79 H 5.248660 1.130302 -2.228086 0
M  V30 80 H 4.955924 2.633158 -1.187610 0
M  V30 81 H 2.223412 0.603759 -4.426156 0
M  V30 82 H 0.343974 -0.440250 -5.308034 0
M  V30 83 H 1.657741 0.954047 -6.481346 0
M  V30 84 H 0.373825 2.265304 -6.633232 0
M  V30 85 H 0.705267 -0.276461 -8.227286 0
M  V30 86 H -0.444867 1.109156 -8.519806 0
M  V30 87 H -1.914100 -0.733093 -7.705186 0
M  V30 88 H -1.101876 -3.201308 -7.457659 0
M  V30 89 H -2.255519 -2.672934 -6.121139 0
M  V30 90 H 0.550316 -3.758801 -5.857457 0
M  V30 91 H -0.953410 -4.610990 -5.420068 0
M  V30 92 H -1.105516 -1.954631 -4.257777 0
M  V30 93 H -1.476682 -2.142840 -1.741419 0
M  V30 94 H -0.057680 -1.069844 -2.238919 0
M  V30 95 H -0.125633 -3.433996 -0.255510 0
M  V30 96 H 1.341184 -2.422843 -0.699782 0
M  V30 97 H 0.345654 -0.416909 0.213677 0
M  V30 98 H 0.567560 -2.714656 2.200357 0
M  V30 99 H 0.370125 0.812059 4.929392 0
M  V30 100 H 0.912992 1.925130 8.807402 0
M  V30 101 H -0.373491 1.560510 7.645813 0
M  V30 102 H 0.510579 3.752214 7.417546 0
M  V30 103 H 0.733310 2.925038 5.889325 0
M  V30 104 H 3.144620 2.493814 6.630372 0
M  V30 105 H 2.812239 3.513782 8.116211 0
M  V30 106 H 2.694406 5.514883 4.379427 0
M  V30 107 H 2.859808 -1.607297 7.413221 0
M  V30 108 H 3.305896 -3.818335 7.564629 0
M  V30 109 H 4.769177 -2.900549 7.050722 0
M  V30 110 H 5.714932 -4.777649 5.860766 0
M  V30 111 H 5.409344 -5.136304 7.573900 0
M  V30 112 H 3.000842 -7.670971 7.143726 0
M  V30 113 H 3.972638 -6.642477 8.202552 0
M  V30 114 H 2.469117 -5.938448 7.552736 0
M  V30 115 H 5.537662 -7.046181 4.891144 0
M  V30 116 H 5.929548 -7.233958 6.619233 0
M  V30 117 H 4.586476 -8.176965 5.950108 0
M  V30 118 H 2.186787 -2.680363 3.429169 0
M  V30 119 H -1.725174 0.079139 -0.959240 0
M  V30 120 H -4.560866 -0.550706 -0.295653 0
M  V30 121 H -5.016162 1.786670 0.042209 0
M  V30 122 H -3.279499 2.176353 -0.018487 0
M  V30 123 H -4.166940 1.795017 2.154365 0
M  V30 124 H -2.417583 0.918101 -2.697067 0
M  V30 125 H -4.696363 0.892080 -4.743515 0
M  V30 126 H -4.856180 3.018409 -4.034042 0
M  V30 127 H -2.583225 3.399398 -3.110933 0
M  V30 128 H -3.131239 4.747414 -4.100890 0
M  V30 129 H -1.947390 3.647291 -4.795724 0
M  V30 130 H -5.726632 3.208749 -8.306881 0
M  V30 131 H -7.143975 1.798480 -5.482243 0
M  V30 END ATOM
M  V30 BEGIN BOND
M  V30 1 1 1 2
M  V30 2 1 2 3
M  V30 3 2 3 4
M  V30 4 1 3 5
M  V30 5 1 5 6
M  V30 6 1 6 7
M  V30 7 1 7 8
M  V30 8 1 7 9
M  V30 9 1 5 10
M  V30 10 1 10 11
M  V30 11 2 11 12
M  V30 12 1 11 13
M  V30 13 1 13 14
M  V30 14 1 14 15
M  V30 15 1 15 16
M  V30 16 1 16 17
M  V30 17 1 17 18
M  V30 18 1 18 19
M  V30 19 1 19 20
M  V30 20 1 20 21
M  V30 21 2 21 22
M  V30 22 1 21 23
M  V30 23 1 23 24
M  V30 24 1 24 25
M  V30 25 1 25 26
M  V30 26 1 26 27
M  V30 27 2 27 28
M  V30 28 1 27 29
M  V30 29 2 29 30
M  V30 30 1 30 31
M  V30 31 1 31 32
M  V30 32 1 32 33
M  V30 33 1 33 34
M  V30 34 1 34 35
M  V30 35 1 35 36
M  V30 36 2 36 37
M  V30 37 1 36 38
M  V30 38 2 31 39
M  V30 39 1 39 40
M  V30 40 1 40 41
M  V30 41 1 41 42
M  V30 42 1 42 43
M  V30 43 1 43 44
M  V30 44 1 44 45
M  V30 45 1 44 46
M  V30 46 2 40 47
M  V30 47 1 25 48
M  V30 48 2 48 49
M  V30 49 1 48 50
M  V30 50 1 50 51
M  V30 51 1 51 52
M  V30 52 1 52 53
M  V30 53 1 51 54
M  V30 54 2 54 55
M  V30 55 1 54 56
M  V30 56 1 56 57
M  V30 57 1 57 58
M  V30 58 1 58 59
M  V30 59 1 58 60
M  V30 60 1 60 61
M  V30 61 2 61 62
M  V30 62 1 61 63
M  V30 63 1 61 64
M  V30 64 1 57 65
M  V30 65 2 65 66
M  V30 66 1 65 67
M  V30 67 1 67 13
M  V30 68 1 67 16
M  V30 69 1 47 29
M  V30 70 1 1 68
M  V30 71 1 1 69
M  V30 72 1 1 70
M  V30 73 1 5 71 CFG=1
M  V30 74 1 6 72
M  V30 75 1 6 73
M  V30 76 1 7 74
M  V30 77 1 8 75
M  V30 78 1 8 76
M  V30 79 1 8 77
M  V30 80 1 9 78
M  V30 81 1 9 79
M  V30 82 1 9 80
M  V30 83 1 10 81
M  V30 84 1 13 82 CFG=1
M  V30 85 1 14 83
M  V30 86 1 14 84
M  V30 87 1 15 85
M  V30 88 1 15 86
M  V30 89 1 16 87 CFG=3
M  V30 90 1 18 88
M  V30 91 1 18 89
M  V30 92 1 19 90
M  V30 93 1 19 91
M  V30 94 1 20 92
M  V30 95 1 23 93
M  V30 96 1 23 94
M  V30 97 1 24 95
M  V30 98 1 24 96
M  V30 99 1 25 97 CFG=3
M  V30 100 1 26 98
M  V30 101 1 30 99
M  V30 102 1 33 100
M  V30 103 1 33 101
M  V30 104 1 34 102
M  V30 105 1 34 103
M  V30 106 1 35 104
M  V30 107 1 35 105
M  V30 108 1 38 106
M  V30 109 1 39 107
M  V30 110 1 42 108
M  V30 111 1 42 109
M  V30 112 1 43 110
M  V30 113 1 43 111
M  V30 114 1 45 112
M  V30 115 1 45 113
M  V30 116 1 45 114
M  V30 117 1 46 115
M  V30 118 1 46 116
M  V30 119 1 46 117
M  V30 120 1 47 118
M  V30 121 1 50 119
M  V30 122 1 51 120 CFG=1
M  V30 123 1 52 121
M  V30 124 1 52 122
M  V30 125 1 53 123
M  V30 126 1 56 124
M  V30 127 1 57 125 CFG=3
M  V30 128 1 58 126 CFG=1
M  V30 129 1 59 127
M  V30 130 1 59 128
M  V30 131 1 59 129
M  V30 132 1 63 130
M  V30 133 1 64 131
M  V30 END BOND
M  V30 END CTAB
M  END
>  <Dataset>  (801) 
ChEMBL_Kinases

>  <Ligand_Instance>  (801) 
nan

>  <PDB_ID>  (801) 
nan

>  <Standardized_SMILES>  (801) 
COC(=O)[C@H](CC(C)C)NC(=O)[C@@H]1CC[C@H]2OCCNC(=O)CC[C@H](NC(=O)c3cc(OCCCC(=O)O)cc(OCCN(C)C)c3)C(=O)N[C@@H](CO)C(=O)N[C@@H]([C@@H](C)OP(=O)(O)O)C(=O)N21

>  <Name>  (801) 
nan

>  <Pocket>  (801) 
nan

>  <ATP_Site>  (801) 
nan

>  <Peripheral>  (801) 
nan

>  <Num_H_Atoms_ProtBoundConf>  (801) 
nan

>  <Num_Resolved_Atoms>  (801) 
nan

>  <Num_Not_Resolved_Atoms>  (801) 
nan

$$$$
CHEMBL5075137
     RDKit          3D

  0  0  0  0  0  0  0  0  0  0999 V3000
M  V30 BEGIN CTAB
M  V30 COUNTS 27 28 0 0 0
M  V30 BEGIN ATOM
M  V30 1 C 1.278933 -4.096331 3.860000 0
M  V30 2 O 0.084676 -3.314879 3.704724 0
M  V30 3 C 0.085224 -2.337144 2.708514 0
M  V30 4 C 1.168703 -2.100236 1.885511 0
M  V30 5 C 1.094491 -1.113625 0.920586 0
M  V30 6 C -0.066067 -0.377681 0.794463 0
M  V30 7 C -0.178538 0.671734 -0.216377 0
M  V30 8 C -0.975458 1.768540 0.054159 0
M  V30 9 C -1.119243 2.794709 -0.871209 0
M  V30 10 N -0.446540 2.645973 -2.013737 0
M  V30 11 C 0.337327 1.596802 -2.315008 0
M  V30 12 N 1.033480 1.499279 -3.565602 0
M  V30 13 C 0.510677 0.554295 -1.427956 0
M  V30 14 C -1.128682 -0.639534 1.631935 0
M  V30 15 C -1.115663 -1.624160 2.627369 0
M  V30 16 H 1.163317 -4.862499 4.626792 0
M  V30 17 H 1.621001 -4.485366 2.884703 0
M  V30 18 H 2.071822 -3.404375 4.219584 0
M  V30 19 H 2.063346 -2.692681 2.007911 0
M  V30 20 H 1.937492 -0.936530 0.287538 0
M  V30 21 H -1.516050 1.875024 0.986405 0
M  V30 22 H -1.732014 3.673524 -0.703922 0
M  V30 23 H 0.471802 1.435192 -4.443738 0
M  V30 24 H 2.077220 1.510504 -3.360258 0
M  V30 25 H 1.123660 -0.313257 -1.606417 0
M  V30 26 H -2.042340 -0.057963 1.529895 0
M  V30 27 H -1.956914 -1.813679 3.272369 0
M  V30 END ATOM
M  V30 BEGIN BOND
M  V30 1 1 1 2
M  V30 2 1 2 3
M  V30 3 2 3 4
M  V30 4 1 4 5
M  V30 5 2 5 6
M  V30 6 1 6 7
M  V30 7 2 7 8
M  V30 8 1 8 9
M  V30 9 2 9 10
M  V30 10 1 10 11
M  V30 11 1 11 12
M  V30 12 2 11 13
M  V30 13 1 6 14
M  V30 14 2 14 15
M  V30 15 1 15 3
M  V30 16 1 13 7
M  V30 17 1 1 16
M  V30 18 1 1 17
M  V30 19 1 1 18
M  V30 20 1 4 19
M  V30 21 1 5 20
M  V30 22 1 8 21
M  V30 23 1 9 22
M  V30 24 1 12 23
M  V30 25 1 12 24
M  V30 26 1 13 25
M  V30 27 1 14 26
M  V30 28 1 15 27
M  V30 END BOND
M  V30 END CTAB
M  END
>  <Dataset>  (802) 
ChEMBL_Kinases

>  <Ligand_Instance>  (802) 
nan

>  <PDB_ID>  (802) 
nan

>  <Standardized_SMILES>  (802) 
COc1ccc(-c2ccnc(N)c2)cc1

>  <Name>  (802) 
nan

>  <Pocket>  (802) 
nan

>  <ATP_Site>  (802) 
nan

>  <Peripheral>  (802) 
nan

>  <Num_H_Atoms_ProtBoundConf>  (802) 
nan

>  <Num_Resolved_Atoms>  (802) 
nan

>  <Num_Not_Resolved_Atoms>  (802) 
nan

$$$$
CHEMBL5075142
     RDKit          3D

  0  0  0  0  0  0  0  0  0  0999 V3000
M  V30 BEGIN CTAB
M  V30 COUNTS 69 73 0 0 0
M  V30 BEGIN ATOM
M  V30 1 C 2.334522 -4.958929 2.397716 0
M  V30 2 C 2.335946 -3.813387 1.451587 0
M  V30 3 C 3.526096 -3.525260 0.817426 0
M  V30 4 C 3.493363 -2.449644 -0.055303 0
M  V30 5 C 2.367338 -1.694957 -0.299229 0
M  V30 6 N 2.503016 -0.623078 -1.225305 0
M  V30 7 C 2.271096 -0.797162 -2.617778 0
M  V30 8 O 1.942107 -1.995969 -2.884318 0
M  V30 9 C 2.397522 0.264975 -3.594438 0
M  V30 10 C 2.757595 1.573335 -3.330917 0
M  V30 11 C 2.841977 2.502790 -4.372102 0
M  V30 12 O 3.216060 3.755335 -3.909399 0
M  V30 13 C 3.351955 4.820723 -4.822793 0
M  V30 14 C 2.077597 5.131435 -5.565792 0
M  V30 15 O 1.084400 5.480631 -4.662194 0
M  V30 16 N 2.571933 2.135842 -5.657458 0
M  V30 17 C 2.221874 0.853811 -5.895751 0
M  V30 18 C 1.937402 0.500543 -7.307051 0
M  V30 19 F 2.371943 -0.799691 -7.550850 0
M  V30 20 F 2.651582 1.312263 -8.183119 0
M  V30 21 F 0.601114 0.539378 -7.582105 0
M  V30 22 C 2.121571 -0.107049 -4.913145 0
M  V30 23 C 1.211164 -2.025406 0.358272 0
M  V30 24 C 1.171692 -3.100861 1.254890 0
M  V30 25 C -0.095990 -3.398979 1.918068 0
M  V30 26 C -0.722040 -4.617712 2.089615 0
M  V30 27 C -1.929088 -4.682709 2.756518 0
M  V30 28 C -2.530191 -3.545757 3.260522 0
M  V30 29 C -1.918430 -2.316312 3.098458 0
M  V30 30 C -0.710722 -2.248212 2.431716 0
M  V30 31 O -2.391821 -1.086586 3.544554 0
M  V30 32 C -3.539786 -0.713439 4.271304 0
M  V30 33 C -3.427774 -0.983812 5.757386 0
M  V30 34 C -4.086634 0.130173 6.545284 0
M  V30 35 O -5.168029 0.687543 5.909938 0
M  V30 36 C -4.764188 1.427676 4.821805 0
M  V30 37 C -3.706026 0.777517 3.997050 0
M  V30 38 C -4.805678 -1.397389 3.810867 0
M  V30 39 C -4.768929 -2.850700 4.218588 0
M  V30 40 O -5.719026 -3.297565 4.909682 0
M  V30 41 N -3.766155 -3.814801 3.913299 0
M  V30 42 H 1.568720 -4.867421 3.188368 0
M  V30 43 H 3.347171 -5.086895 2.869977 0
M  V30 44 H 2.159204 -5.902728 1.846227 0
M  V30 45 H 4.421619 -4.106609 0.995942 0
M  V30 46 H 4.441076 -2.219907 -0.560505 0
M  V30 47 H 2.785072 0.332269 -0.866427 0
M  V30 48 H 2.950839 1.773369 -2.300355 0
M  V30 49 H 3.715641 5.739445 -4.348020 0
M  V30 50 H 4.133061 4.559746 -5.595219 0
M  V30 51 H 1.762390 4.299421 -6.236413 0
M  V30 52 H 2.273774 6.037874 -6.177042 0
M  V30 53 H 0.563499 4.718768 -4.326664 0
M  V30 54 H 1.834822 -1.108194 -5.195232 0
M  V30 55 H 0.352484 -1.409144 0.138627 0
M  V30 56 H -0.183028 -5.445390 1.663632 0
M  V30 57 H -2.385736 -5.656432 2.869470 0
M  V30 58 H -0.318786 -1.251194 2.358606 0
M  V30 59 H -3.974866 -1.924035 6.043690 0
M  V30 60 H -2.360275 -1.090247 6.057641 0
M  V30 61 H -3.289079 0.879705 6.740883 0
M  V30 62 H -4.478099 -0.284431 7.513581 0
M  V30 63 H -5.617486 1.756246 4.188511 0
M  V30 64 H -4.329303 2.391400 5.211735 0
M  V30 65 H -2.713299 1.290282 4.086578 0
M  V30 66 H -3.938702 0.853609 2.900829 0
M  V30 67 H -4.867812 -1.420492 2.702849 0
M  V30 68 H -5.659265 -0.894102 4.260975 0
M  V30 69 H -3.895155 -4.819293 4.166581 0
M  V30 END ATOM
M  V30 BEGIN BOND
M  V30 1 1 1 2
M  V30 2 2 2 3
M  V30 3 1 3 4
M  V30 4 2 4 5
M  V30 5 1 5 6
M  V30 6 1 6 7
M  V30 7 2 7 8
M  V30 8 1 7 9
M  V30 9 2 9 10
M  V30 10 1 10 11
M  V30 11 1 11 12
M  V30 12 1 12 13
M  V30 13 1 13 14
M  V30 14 1 14 15
M  V30 15 2 11 16
M  V30 16 1 16 17
M  V30 17 1 17 18
M  V30 18 1 18 19
M  V30 19 1 18 20
M  V30 20 1 18 21
M  V30 21 2 17 22
M  V30 22 1 5 23
M  V30 23 2 23 24
M  V30 24 1 24 25
M  V30 25 2 25 26
M  V30 26 1 26 27
M  V30 27 2 27 28
M  V30 28 1 28 29
M  V30 29 2 29 30
M  V30 30 1 29 31
M  V30 31 1 31 32
M  V30 32 1 32 33
M  V30 33 1 33 34
M  V30 34 1 34 35
M  V30 35 1 35 36
M  V30 36 1 36 37
M  V30 37 1 32 38
M  V30 38 1 38 39
M  V30 39 2 39 40
M  V30 40 1 39 41
M  V30 41 1 24 2
M  V30 42 1 30 25
M  V30 43 1 37 32
M  V30 44 1 22 9
M  V30 45 1 41 28
M  V30 46 1 1 42
M  V30 47 1 1 43
M  V30 48 1 1 44
M  V30 49 1 3 45
M  V30 50 1 4 46
M  V30 51 1 6 47
M  V30 52 1 10 48
M  V30 53 1 13 49
M  V30 54 1 13 50
M  V30 55 1 14 51
M  V30 56 1 14 52
M  V30 57 1 15 53
M  V30 58 1 22 54
M  V30 59 1 23 55
M  V30 60 1 26 56
M  V30 61 1 27 57
M  V30 62 1 30 58
M  V30 63 1 33 59
M  V30 64 1 33 60
M  V30 65 1 34 61
M  V30 66 1 34 62
M  V30 67 1 36 63
M  V30 68 1 36 64
M  V30 69 1 37 65
M  V30 70 1 37 66
M  V30 71 1 38 67
M  V30 72 1 38 68
M  V30 73 1 41 69
M  V30 END BOND
M  V30 END CTAB
M  END
>  <Dataset>  (803) 
ChEMBL_Kinases

>  <Ligand_Instance>  (803) 
nan

>  <PDB_ID>  (803) 
nan

>  <Standardized_SMILES>  (803) 
Cc1ccc(NC(=O)c2cc(OCCO)nc(C(F)(F)F)c2)cc1-c1ccc2c(c1)OC1(CCOCC1)CC(=O)N2

>  <Name>  (803) 
nan

>  <Pocket>  (803) 
nan

>  <ATP_Site>  (803) 
nan

>  <Peripheral>  (803) 
nan

>  <Num_H_Atoms_ProtBoundConf>  (803) 
nan

>  <Num_Resolved_Atoms>  (803) 
nan

>  <Num_Not_Resolved_Atoms>  (803) 
nan

$$$$
CHEMBL5075200
     RDKit          3D

  0  0  0  0  0  0  0  0  0  0999 V3000
M  V30 BEGIN CTAB
M  V30 COUNTS 57 61 0 0 0
M  V30 BEGIN ATOM
M  V30 1 C 1.401429 2.951524 6.250593 0
M  V30 2 O 1.951105 3.732005 5.183453 0
M  V30 3 C 2.234979 3.084228 3.987198 0
M  V30 4 C 2.762529 3.747545 2.901485 0
M  V30 5 C 3.067084 3.175858 1.688748 0
M  V30 6 C 2.833218 1.820700 1.519428 0
M  V30 7 S 3.113452 0.840274 0.098298 0
M  V30 8 O 4.265332 1.362546 -0.725718 0
M  V30 9 O 3.470180 -0.543740 0.546634 0
M  V30 10 N 1.650281 0.765177 -0.844907 0
M  V30 11 C 1.223710 2.040201 -1.317708 0
M  V30 12 C -0.034664 2.055235 -2.115666 0
M  V30 13 N -0.052586 1.271579 -3.320317 0
M  V30 14 C 0.052171 -0.113494 -3.611693 0
M  V30 15 N 1.030244 -0.931943 -4.035276 0
M  V30 16 C 0.763522 -2.245043 -4.185027 0
M  V30 17 C -0.474032 -2.830898 -3.929816 0
M  V30 18 C -1.449305 -1.926231 -3.493783 0
M  V30 19 C -2.751199 -2.571251 -3.220112 0
M  V30 20 C -3.249608 -2.379153 -1.955859 0
M  V30 21 C -2.965300 -1.715263 -0.689675 0
M  V30 22 C -2.939983 -0.311187 -0.708333 0
M  V30 23 C -2.677538 0.388886 0.455630 0
M  V30 24 C -2.438307 -0.284991 1.640058 0
M  V30 25 C -2.465722 -1.650287 1.642159 0
M  V30 26 C -2.726393 -2.397896 0.495846 0
M  V30 27 N -4.399959 -3.023576 -1.878572 0
M  V30 28 C -4.606189 -3.609997 -3.096827 0
M  V30 29 S -5.732226 -4.617538 -4.004505 0
M  V30 30 C -4.653173 -4.582221 -5.564826 0
M  V30 31 C -3.531276 -3.778417 -5.181214 0
M  V30 32 N -3.604208 -3.341280 -3.927425 0
M  V30 33 N -1.163396 -0.621837 -3.350460 0
M  V30 34 C 2.299490 1.143989 2.616982 0
M  V30 35 C 1.991827 1.716710 3.837883 0
M  V30 36 H 2.107522 2.111215 6.379847 0
M  V30 37 H 0.474658 2.493401 5.804445 0
M  V30 38 H 1.203645 3.539686 7.147059 0
M  V30 39 H 2.969059 4.825014 2.977251 0
M  V30 40 H 3.475867 3.658782 0.826741 0
M  V30 41 H 1.861397 0.179945 -1.697351 0
M  V30 42 H 1.093895 2.767851 -0.469204 0
M  V30 43 H 2.023829 2.474250 -1.993026 0
M  V30 44 H -0.344296 3.103094 -2.304537 0
M  V30 45 H -0.880164 1.617617 -1.491161 0
M  V30 46 H -0.162760 1.662650 -4.294074 0
M  V30 47 H 1.602773 -2.814037 -4.524519 0
M  V30 48 H -0.604131 -3.891196 -4.077573 0
M  V30 49 H -3.120081 0.279436 -1.604705 0
M  V30 50 H -2.666376 1.485979 0.403649 0
M  V30 51 H -2.236891 0.321909 2.518424 0
M  V30 52 H -2.276323 -2.153911 2.575995 0
M  V30 53 H -2.756122 -3.472005 0.479509 0
M  V30 54 H -4.795168 -5.060290 -6.598124 0
M  V30 55 H -2.789948 -3.638306 -5.949528 0
M  V30 56 H 2.081840 0.067387 2.570583 0
M  V30 57 H 1.582007 1.152282 4.647185 0
M  V30 END ATOM
M  V30 BEGIN BOND
M  V30 1 1 1 2
M  V30 2 1 2 3
M  V30 3 2 3 4
M  V30 4 1 4 5
M  V30 5 2 5 6
M  V30 6 1 6 7
M  V30 7 2 7 8
M  V30 8 2 7 9
M  V30 9 1 7 10
M  V30 10 1 10 11
M  V30 11 1 11 12
M  V30 12 1 12 13
M  V30 13 1 13 14
M  V30 14 2 14 15
M  V30 15 1 15 16
M  V30 16 2 16 17
M  V30 17 1 17 18
M  V30 18 1 18 19
M  V30 19 2 19 20
M  V30 20 1 20 21
M  V30 21 2 21 22
M  V30 22 1 22 23
M  V30 23 2 23 24
M  V30 24 1 24 25
M  V30 25 2 25 26
M  V30 26 1 20 27
M  V30 27 2 27 28
M  V30 28 1 28 29
M  V30 29 1 29 30
M  V30 30 2 30 31
M  V30 31 1 31 32
M  V30 32 2 18 33
M  V30 33 1 6 34
M  V30 34 2 34 35
M  V30 35 1 35 3
M  V30 36 1 33 14
M  V30 37 1 32 19
M  V30 38 1 26 21
M  V30 39 1 32 28
M  V30 40 1 1 36
M  V30 41 1 1 37
M  V30 42 1 1 38
M  V30 43 1 4 39
M  V30 44 1 5 40
M  V30 45 1 10 41
M  V30 46 1 11 42
M  V30 47 1 11 43
M  V30 48 1 12 44
M  V30 49 1 12 45
M  V30 50 1 13 46
M  V30 51 1 16 47
M  V30 52 1 17 48
M  V30 53 1 22 49
M  V30 54 1 23 50
M  V30 55 1 24 51
M  V30 56 1 25 52
M  V30 57 1 26 53
M  V30 58 1 30 54
M  V30 59 1 31 55
M  V30 60 1 34 56
M  V30 61 1 35 57
M  V30 END BOND
M  V30 END CTAB
M  END
>  <Dataset>  (804) 
ChEMBL_Kinases

>  <Ligand_Instance>  (804) 
nan

>  <PDB_ID>  (804) 
nan

>  <Standardized_SMILES>  (804) 
COc1ccc(S(=O)(=O)NCCNc2nccc(-c3c(-c4ccccc4)nc4sccn34)n2)cc1

>  <Name>  (804) 
nan

>  <Pocket>  (804) 
nan

>  <ATP_Site>  (804) 
nan

>  <Peripheral>  (804) 
nan

>  <Num_H_Atoms_ProtBoundConf>  (804) 
nan

>  <Num_Resolved_Atoms>  (804) 
nan

>  <Num_Not_Resolved_Atoms>  (804) 
nan

$$$$
CHEMBL590491
     RDKit          3D

  0  0  0  0  0  0  0  0  0  0999 V3000
M  V30 BEGIN CTAB
M  V30 COUNTS 40 43 0 0 0
M  V30 BEGIN ATOM
M  V30 1 C -0.628584 -7.540614 3.818008 0
M  V30 2 O 0.374174 -6.617498 3.449841 0
M  V30 3 C 0.135585 -5.296741 3.096060 0
M  V30 4 C -1.043447 -4.586260 3.014355 0
M  V30 5 C -1.012540 -3.266337 2.632953 0
M  V30 6 C 0.175878 -2.632861 2.328594 0
M  V30 7 N 0.164987 -1.263803 1.937433 0
M  V30 8 C 0.139839 -0.932105 0.616002 0
M  V30 9 C 0.134777 0.465456 0.547289 0
M  V30 10 C 0.111450 1.407672 -0.583867 0
M  V30 11 C -0.725539 1.265739 -1.677659 0
M  V30 12 C -0.685518 2.203295 -2.708078 0
M  V30 13 C 0.192706 3.264465 -2.621561 0
M  V30 14 C 1.026337 3.404895 -1.531067 0
M  V30 15 C 0.996903 2.489135 -0.510085 0
M  V30 16 C 1.881399 4.610744 -1.647608 0
M  V30 17 N 1.506651 5.220474 -2.920673 0
M  V30 18 C 0.493470 4.410213 -3.502019 0
M  V30 19 O -0.046448 4.663210 -4.608412 0
M  V30 20 C 0.157682 0.935881 1.865446 0
M  V30 21 N 0.161764 2.304658 2.291369 0
M  V30 22 N 0.175083 -0.160183 2.651272 0
M  V30 23 C 1.368706 -3.322605 2.402934 0
M  V30 24 C 1.331399 -4.658695 2.789629 0
M  V30 25 H -0.249952 -8.009786 4.771561 0
M  V30 26 H -0.692548 -8.385378 3.078022 0
M  V30 27 H -1.622075 -7.092508 3.968773 0
M  V30 28 H -1.898437 -5.193531 3.276743 0
M  V30 29 H -1.961634 -2.783046 2.592584 0
M  V30 30 H 0.124629 -1.515325 -0.299696 0
M  V30 31 H -1.399322 0.416443 -1.703122 0
M  V30 32 H -1.336950 2.101339 -3.569297 0
M  V30 33 H 1.648201 2.584211 0.358900 0
M  V30 34 H 2.962965 4.390901 -1.618718 0
M  V30 35 H 1.559719 5.357322 -0.875350 0
M  V30 36 H 1.964481 6.097230 -3.252056 0
M  V30 37 H -0.799434 2.742344 2.251582 0
M  V30 38 H 0.899678 2.957696 2.629134 0
M  V30 39 H 2.275950 -2.787879 2.155928 0
M  V30 40 H 2.341494 -5.096612 2.810684 0
M  V30 END ATOM
M  V30 BEGIN BOND
M  V30 1 1 1 2
M  V30 2 1 2 3
M  V30 3 2 3 4
M  V30 4 1 4 5
M  V30 5 2 5 6
M  V30 6 1 6 7
M  V30 7 1 7 8
M  V30 8 2 8 9
M  V30 9 1 9 10
M  V30 10 2 10 11
M  V30 11 1 11 12
M  V30 12 2 12 13
M  V30 13 1 13 14
M  V30 14 2 14 15
M  V30 15 1 14 16
M  V30 16 1 16 17
M  V30 17 1 17 18
M  V30 18 2 18 19
M  V30 19 1 9 20
M  V30 20 1 20 21
M  V30 21 2 20 22
M  V30 22 1 6 23
M  V30 23 2 23 24
M  V30 24 1 24 3
M  V30 25 1 22 7
M  V30 26 1 15 10
M  V30 27 1 18 13
M  V30 28 1 1 25
M  V30 29 1 1 26
M  V30 30 1 1 27
M  V30 31 1 4 28
M  V30 32 1 5 29
M  V30 33 1 8 30
M  V30 34 1 11 31
M  V30 35 1 12 32
M  V30 36 1 15 33
M  V30 37 1 16 34
M  V30 38 1 16 35
M  V30 39 1 17 36
M  V30 40 1 21 37
M  V30 41 1 21 38
M  V30 42 1 23 39
M  V30 43 1 24 40
M  V30 END BOND
M  V30 END CTAB
M  END
>  <Dataset>  (805) 
ChEMBL_Kinases

>  <Ligand_Instance>  (805) 
nan

>  <PDB_ID>  (805) 
nan

>  <Standardized_SMILES>  (805) 
COc1ccc(-n2cc(-c3ccc4c(c3)CNC4=O)c(N)n2)cc1

>  <Name>  (805) 
nan

>  <Pocket>  (805) 
nan

>  <ATP_Site>  (805) 
nan

>  <Peripheral>  (805) 
nan

>  <Num_H_Atoms_ProtBoundConf>  (805) 
nan

>  <Num_Resolved_Atoms>  (805) 
nan

>  <Num_Not_Resolved_Atoms>  (805) 
nan

$$$$
CHEMBL3702293
     RDKit          3D

  0  0  0  0  0  0  0  0  0  0999 V3000
M  V30 BEGIN CTAB
M  V30 COUNTS 57 59 0 0 0
M  V30 BEGIN ATOM
M  V30 1 C -0.347384 -2.214694 2.478954 0
M  V30 2 C -0.419176 -1.034969 1.570206 0
M  V30 3 C 0.670293 -0.127260 1.563384 0
M  V30 4 C 1.911310 -0.172860 2.328256 0
M  V30 5 O 2.403142 -0.956055 3.179565 0
M  V30 6 N 2.810382 0.895543 2.093225 0
M  V30 7 C 4.081261 0.962170 2.793035 0
M  V30 8 C 4.843405 2.158561 2.387123 0
M  V30 9 C 5.481143 3.149462 2.065570 0
M  V30 10 C 6.226386 4.348555 1.685196 0
M  V30 11 N 5.605543 5.016040 0.566532 0
M  V30 12 C 5.669223 4.300753 -0.660689 0
M  V30 13 C 4.299387 5.533968 0.874229 0
M  V30 14 S 0.192109 1.159267 0.356887 0
M  V30 15 C -1.449555 0.356111 -0.039207 0
M  V30 16 N -2.385947 0.804899 -0.920498 0
M  V30 17 C -3.488668 0.053712 -1.039646 0
M  V30 18 N -3.552037 -1.039273 -0.293088 0
M  V30 19 C -2.630197 -1.458686 0.558204 0
M  V30 20 N -3.014213 -2.662161 1.187735 0
M  V30 21 C -2.853945 -4.049504 0.889777 0
M  V30 22 C -2.236049 -5.037332 1.619655 0
M  V30 23 C -2.176009 -6.335767 1.172468 0
M  V30 24 C -2.742159 -6.689154 -0.038131 0
M  V30 25 N -3.358329 -5.719650 -0.772644 0
M  V30 26 C -3.410118 -4.457101 -0.325810 0
M  V30 27 O -4.059772 -3.546664 -1.148639 0
M  V30 28 C -4.608014 -3.999247 -2.355865 0
M  V30 29 C -6.061030 -3.672859 -2.532882 0
M  V30 30 C -3.834767 -3.407681 -3.526289 0
M  V30 31 C -1.464671 -0.775763 0.764264 0
M  V30 32 H -1.371060 -2.409876 2.919900 0
M  V30 33 H -0.067831 -3.146912 1.951364 0
M  V30 34 H 0.368421 -2.043706 3.283611 0
M  V30 35 H 2.594381 1.674127 1.409715 0
M  V30 36 H 4.733176 0.100628 2.559040 0
M  V30 37 H 3.902271 1.021563 3.901126 0
M  V30 38 H 6.289526 5.080108 2.519875 0
M  V30 39 H 7.247186 4.045252 1.377364 0
M  V30 40 H 6.433390 4.821963 -1.308545 0
M  V30 41 H 4.697563 4.379372 -1.205062 0
M  V30 42 H 5.982663 3.260125 -0.612361 0
M  V30 43 H 4.180654 5.510235 1.980302 0
M  V30 44 H 3.523068 4.844578 0.458517 0
M  V30 45 H 4.134119 6.552916 0.484556 0
M  V30 46 H -4.210384 0.432494 -1.742403 0
M  V30 47 H -3.559453 -2.766563 2.094964 0
M  V30 48 H -1.816011 -4.711467 2.550358 0
M  V30 49 H -1.690671 -7.074273 1.761608 0
M  V30 50 H -2.713602 -7.701392 -0.420758 0
M  V30 51 H -4.428009 -5.096237 -2.403009 0
M  V30 52 H -6.479275 -4.397463 -3.270469 0
M  V30 53 H -6.672728 -3.796247 -1.627541 0
M  V30 54 H -6.182732 -2.649288 -2.965967 0
M  V30 55 H -4.152221 -2.393753 -3.775334 0
M  V30 56 H -4.037697 -4.051699 -4.402814 0
M  V30 57 H -2.744271 -3.380594 -3.307825 0
M  V30 END ATOM
M  V30 BEGIN BOND
M  V30 1 1 1 2
M  V30 2 2 2 3
M  V30 3 1 3 4
M  V30 4 2 4 5
M  V30 5 1 4 6
M  V30 6 1 6 7
M  V30 7 1 7 8
M  V30 8 3 8 9
M  V30 9 1 9 10
M  V30 10 1 10 11
M  V30 11 1 11 12
M  V30 12 1 11 13
M  V30 13 1 3 14
M  V30 14 1 14 15
M  V30 15 2 15 16
M  V30 16 1 16 17
M  V30 17 2 17 18
M  V30 18 1 18 19
M  V30 19 1 19 20
M  V30 20 1 20 21
M  V30 21 2 21 22
M  V30 22 1 22 23
M  V30 23 2 23 24
M  V30 24 1 24 25
M  V30 25 2 25 26
M  V30 26 1 26 27
M  V30 27 1 27 28
M  V30 28 1 28 29
M  V30 29 1 28 30
M  V30 30 2 19 31
M  V30 31 1 31 2
M  V30 32 1 31 15
M  V30 33 1 26 21
M  V30 34 1 1 32
M  V30 35 1 1 33
M  V30 36 1 1 34
M  V30 37 1 6 35
M  V30 38 1 7 36
M  V30 39 1 7 37
M  V30 40 1 10 38
M  V30 41 1 10 39
M  V30 42 1 12 40
M  V30 43 1 12 41
M  V30 44 1 12 42
M  V30 45 1 13 43
M  V30 46 1 13 44
M  V30 47 1 13 45
M  V30 48 1 17 46
M  V30 49 1 20 47
M  V30 50 1 22 48
M  V30 51 1 23 49
M  V30 52 1 24 50
M  V30 53 1 28 51
M  V30 54 1 29 52
M  V30 55 1 29 53
M  V30 56 1 29 54
M  V30 57 1 30 55
M  V30 58 1 30 56
M  V30 59 1 30 57
M  V30 END BOND
M  V30 END CTAB
M  END
>  <Dataset>  (806) 
ChEMBL_Kinases

>  <Ligand_Instance>  (806) 
nan

>  <PDB_ID>  (806) 
nan

>  <Standardized_SMILES>  (806) 
Cc1c(C(=O)NCC#CCN(C)C)sc2ncnc(Nc3cccnc3OC(C)C)c12

>  <Name>  (806) 
nan

>  <Pocket>  (806) 
nan

>  <ATP_Site>  (806) 
nan

>  <Peripheral>  (806) 
nan

>  <Num_H_Atoms_ProtBoundConf>  (806) 
nan

>  <Num_Resolved_Atoms>  (806) 
nan

>  <Num_Not_Resolved_Atoms>  (806) 
nan

$$$$
CHEMBL5075203
     RDKit          3D

  0  0  0  0  0  0  0  0  0  0999 V3000
M  V30 BEGIN CTAB
M  V30 COUNTS 58 61 0 0 0
M  V30 BEGIN ATOM
M  V30 1 C 2.033246 -6.653994 0.962382 0
M  V30 2 C 2.191736 -5.474557 1.882634 0
M  V30 3 N 2.538977 -5.480601 3.176009 0
M  V30 4 N 2.574200 -4.248892 3.652471 0
M  V30 5 C 2.238468 -3.459555 2.621811 0
M  V30 6 N 2.132543 -2.121413 2.600973 0
M  V30 7 C 1.784479 -1.463090 1.486482 0
M  V30 8 C 1.676369 -0.008054 1.478713 0
M  V30 9 C 1.328399 0.659728 0.322401 0
M  V30 10 C 1.231066 2.039112 0.319955 0
M  V30 11 C 1.488118 2.741820 1.496697 0
M  V30 12 N 1.430695 4.152888 1.652195 0
M  V30 13 S 0.086532 5.026352 0.986063 0
M  V30 14 O 0.037972 4.771851 -0.489377 0
M  V30 15 O 0.235784 6.492001 1.178199 0
M  V30 16 C -1.426278 4.492756 1.730719 0
M  V30 17 C -2.463958 3.939690 1.007960 0
M  V30 18 C -3.617898 3.543416 1.652378 0
M  V30 19 Cl -4.877175 2.853916 0.651715 0
M  V30 20 C -3.725434 3.703522 3.016964 0
M  V30 21 C -2.697457 4.253937 3.748795 0
M  V30 22 C -1.529614 4.657711 3.114163 0
M  V30 23 F -0.559722 5.188663 3.882963 0
M  V30 24 C 1.836373 2.038190 2.644593 0
M  V30 25 C 1.942551 0.653586 2.679549 0
M  V30 26 N 1.542129 -2.172983 0.384135 0
M  V30 27 C 1.606095 -3.502555 0.250800 0
M  V30 28 O 1.418601 -4.384005 -0.698549 0
M  V30 29 C 1.099704 -4.670887 -1.959042 0
M  V30 30 C -0.240544 -4.321769 -2.510996 0
M  V30 31 C -0.475130 -2.871526 -2.510997 0
M  V30 32 O 0.061422 -1.772529 -2.251263 0
M  V30 33 N -1.815326 -2.598377 -2.983984 0
M  V30 34 C -2.836888 -3.537805 -3.422926 0
M  V30 35 C -2.455633 -1.299749 -3.122436 0
M  V30 36 C 1.973373 -4.162389 1.435968 0
M  V30 37 H 2.793950 -6.686908 0.184932 0
M  V30 38 H 1.043330 -6.620669 0.468042 0
M  V30 39 H 2.020130 -7.551937 1.618787 0
M  V30 40 H 2.808292 -3.947846 4.609854 0
M  V30 41 H 1.121271 0.155907 -0.610879 0
M  V30 42 H 0.965207 2.630010 -0.542433 0
M  V30 43 H 2.204873 4.632923 2.167480 0
M  V30 44 H -2.288911 3.855726 -0.044971 0
M  V30 45 H -4.639067 3.386673 3.506115 0
M  V30 46 H -2.837691 4.355147 4.816447 0
M  V30 47 H 2.043918 2.536886 3.576365 0
M  V30 48 H 2.214470 0.118520 3.579193 0
M  V30 49 H 1.165730 -5.813017 -2.078198 0
M  V30 50 H 1.903166 -4.363438 -2.726808 0
M  V30 51 H -1.073025 -4.833507 -1.974146 0
M  V30 52 H -0.357653 -4.657691 -3.574840 0
M  V30 53 H -2.408954 -4.575686 -3.453519 0
M  V30 54 H -3.273543 -3.290388 -4.409558 0
M  V30 55 H -3.656563 -3.558145 -2.686777 0
M  V30 56 H -2.696390 -1.131404 -4.190356 0
M  V30 57 H -1.702360 -0.496081 -2.875088 0
M  V30 58 H -3.373349 -1.187335 -2.540489 0
M  V30 END ATOM
M  V30 BEGIN BOND
M  V30 1 1 1 2
M  V30 2 2 2 3
M  V30 3 1 3 4
M  V30 4 1 4 5
M  V30 5 2 5 6
M  V30 6 1 6 7
M  V30 7 1 7 8
M  V30 8 2 8 9
M  V30 9 1 9 10
M  V30 10 2 10 11
M  V30 11 1 11 12
M  V30 12 1 12 13
M  V30 13 2 13 14
M  V30 14 2 13 15
M  V30 15 1 13 16
M  V30 16 2 16 17
M  V30 17 1 17 18
M  V30 18 1 18 19
M  V30 19 2 18 20
M  V30 20 1 20 21
M  V30 21 2 21 22
M  V30 22 1 22 23
M  V30 23 1 11 24
M  V30 24 2 24 25
M  V30 25 2 7 26
M  V30 26 1 26 27
M  V30 27 1 27 28
M  V30 28 1 28 29
M  V30 29 1 29 30
M  V30 30 1 30 31
M  V30 31 2 31 32
M  V30 32 1 31 33
M  V30 33 1 33 34
M  V30 34 1 33 35
M  V30 35 2 27 36
M  V30 36 1 36 2
M  V30 37 1 36 5
M  V30 38 1 25 8
M  V30 39 1 22 16
M  V30 40 1 1 37
M  V30 41 1 1 38
M  V30 42 1 1 39
M  V30 43 1 4 40
M  V30 44 1 9 41
M  V30 45 1 10 42
M  V30 46 1 12 43
M  V30 47 1 17 44
M  V30 48 1 20 45
M  V30 49 1 21 46
M  V30 50 1 24 47
M  V30 51 1 25 48
M  V30 52 1 29 49
M  V30 53 1 29 50
M  V30 54 1 30 51
M  V30 55 1 30 52
M  V30 56 1 34 53
M  V30 57 1 34 54
M  V30 58 1 34 55
M  V30 59 1 35 56
M  V30 60 1 35 57
M  V30 61 1 35 58
M  V30 END BOND
M  V30 END CTAB
M  END
>  <Dataset>  (807) 
ChEMBL_Kinases

>  <Ligand_Instance>  (807) 
nan

>  <PDB_ID>  (807) 
nan

>  <Standardized_SMILES>  (807) 
Cc1n[nH]c2nc(-c3ccc(NS(=O)(=O)c4cc(Cl)ccc4F)cc3)nc(OCCC(=O)N(C)C)c12

>  <Name>  (807) 
nan

>  <Pocket>  (807) 
nan

>  <ATP_Site>  (807) 
nan

>  <Peripheral>  (807) 
nan

>  <Num_H_Atoms_ProtBoundConf>  (807) 
nan

>  <Num_Resolved_Atoms>  (807) 
nan

>  <Num_Not_Resolved_Atoms>  (807) 
nan

$$$$
CHEMBL590335
     RDKit          3D

  0  0  0  0  0  0  0  0  0  0999 V3000
M  V30 BEGIN CTAB
M  V30 COUNTS 40 43 0 0 0
M  V30 BEGIN ATOM
M  V30 1 N 2.350359 -6.497726 2.816670 0
M  V30 2 C 2.232174 -5.150571 3.254904 0
M  V30 3 O 2.828775 -4.982663 4.349570 0
M  V30 4 C 1.512212 -4.116040 2.520989 0
M  V30 5 C 1.493201 -2.857271 3.085671 0
M  V30 6 C 0.799793 -1.884623 2.367575 0
M  V30 7 C 0.187824 -2.210676 1.172040 0
M  V30 8 C -0.548645 -1.226403 0.386182 0
M  V30 9 C -0.002704 0.024590 0.183192 0
M  V30 10 C -0.711292 0.934638 -0.558254 0
M  V30 11 C -0.282791 2.294794 -0.867613 0
M  V30 12 C -0.405928 2.808447 -2.140132 0
M  V30 13 C 0.016540 4.107394 -2.381836 0
M  V30 14 C 0.558373 4.922498 -1.411186 0
M  V30 15 C 0.674505 4.398923 -0.152140 0
M  V30 16 C 0.262365 3.107051 0.120801 0
M  V30 17 O 0.478253 2.797581 1.462164 0
M  V30 18 C 1.246602 3.876961 1.981995 0
M  V30 19 O 1.157898 4.918687 1.026020 0
M  V30 20 C -1.943422 0.596187 -1.085675 0
M  V30 21 N -2.475531 -0.632454 -0.884121 0
M  V30 22 C -1.797527 -1.553044 -0.154917 0
M  V30 23 N -2.379229 -2.840227 0.043225 0
M  V30 24 C 0.243936 -3.500216 0.655867 0
M  V30 25 C 0.925475 -4.509930 1.336197 0
M  V30 26 H 1.641810 -7.201029 2.487053 0
M  V30 27 H 3.186437 -7.114193 2.718503 0
M  V30 28 H 1.993333 -2.669481 4.025405 0
M  V30 29 H 0.749739 -0.882775 2.757600 0
M  V30 30 H 0.956397 0.337105 0.574280 0
M  V30 31 H -0.828936 2.175395 -2.902859 0
M  V30 32 H -0.098499 4.468307 -3.391620 0
M  V30 33 H 0.870701 5.936270 -1.670351 0
M  V30 34 H 0.690013 4.229089 2.898218 0
M  V30 35 H 2.296386 3.606416 2.191369 0
M  V30 36 H -2.588555 1.225493 -1.681701 0
M  V30 37 H -2.932212 -2.751646 0.927276 0
M  V30 38 H -2.930089 -2.716203 0.942854 0
M  V30 39 H -0.224081 -3.797415 -0.281135 0
M  V30 40 H 0.999822 -5.519685 0.983749 0
M  V30 END ATOM
M  V30 BEGIN BOND
M  V30 1 1 1 2
M  V30 2 2 2 3
M  V30 3 1 2 4
M  V30 4 2 4 5
M  V30 5 1 5 6
M  V30 6 2 6 7
M  V30 7 1 7 8
M  V30 8 2 8 9
M  V30 9 1 9 10
M  V30 10 1 10 11
M  V30 11 2 11 12
M  V30 12 1 12 13
M  V30 13 2 13 14
M  V30 14 1 14 15
M  V30 15 2 15 16
M  V30 16 1 16 17
M  V30 17 1 17 18
M  V30 18 1 18 19
M  V30 19 2 10 20
M  V30 20 1 20 21
M  V30 21 2 21 22
M  V30 22 1 22 23
M  V30 23 1 7 24
M  V30 24 2 24 25
M  V30 25 1 25 4
M  V30 26 1 22 8
M  V30 27 1 16 11
M  V30 28 1 19 15
M  V30 29 1 1 26
M  V30 30 1 1 27
M  V30 31 1 5 28
M  V30 32 1 6 29
M  V30 33 1 9 30
M  V30 34 1 12 31
M  V30 35 1 13 32
M  V30 36 1 14 33
M  V30 37 1 18 34
M  V30 38 1 18 35
M  V30 39 1 20 36
M  V30 40 1 23 37
M  V30 41 1 23 38
M  V30 42 1 24 39
M  V30 43 1 25 40
M  V30 END BOND
M  V30 END CTAB
M  END
>  <Dataset>  (808) 
ChEMBL_Kinases

>  <Ligand_Instance>  (808) 
nan

>  <PDB_ID>  (808) 
nan

>  <Standardized_SMILES>  (808) 
NC(=O)c1ccc(-c2cc(-c3cccc4c3OCO4)cnc2N)cc1

>  <Name>  (808) 
nan

>  <Pocket>  (808) 
nan

>  <ATP_Site>  (808) 
nan

>  <Peripheral>  (808) 
nan

>  <Num_H_Atoms_ProtBoundConf>  (808) 
nan

>  <Num_Resolved_Atoms>  (808) 
nan

>  <Num_Not_Resolved_Atoms>  (808) 
nan

$$$$
CHEMBL5075213
     RDKit          3D

  0  0  0  0  0  0  0  0  0  0999 V3000
M  V30 BEGIN CTAB
M  V30 COUNTS 116 122 0 0 0
M  V30 BEGIN ATOM
M  V30 1 C 3.561362 -2.222781 3.636518 0
M  V30 2 O 2.236267 -2.179919 4.121209 0
M  V30 3 C 1.470925 -1.131548 4.367766 0
M  V30 4 C 1.620174 0.240163 4.282627 0
M  V30 5 C 0.571184 1.020344 4.644685 0
M  V30 6 N 0.796020 2.414850 4.515537 0
M  V30 7 C 1.894760 3.328094 4.596096 0
M  V30 8 C 2.090291 4.157254 3.362165 0
M  V30 9 N 1.171679 3.636246 2.325879 0
M  V30 10 C 1.370570 4.378963 1.081141 0
M  V30 11 C 0.638762 3.814841 -0.087175 0
M  V30 12 C 1.097327 2.483046 -0.434248 0
M  V30 13 O 2.017284 2.592349 0.396230 0
M  V30 14 N 0.831624 1.399616 -1.249490 0
M  V30 15 C 1.373753 0.104612 -1.520321 0 CFG=2
M  V30 16 C 0.385278 -0.924897 -1.771281 0
M  V30 17 O 0.897341 -2.015827 -2.064743 0
M  V30 18 N -1.064554 -0.918375 -1.745784 0
M  V30 19 C -1.944016 0.204170 -1.402155 0
M  V30 20 C -3.287657 -0.432471 -1.092050 0 CFG=2
M  V30 21 O -3.763198 -0.023711 0.155663 0
M  V30 22 C -3.081667 -1.915574 -1.147486 0
M  V30 23 C -1.930967 -2.055490 -2.089529 0 CFG=1
M  V30 24 C -2.217467 -2.024909 -3.504446 0
M  V30 25 O -1.056613 -1.553236 -3.735853 0
M  V30 26 N -3.161707 -2.290042 -4.496289 0
M  V30 27 C -2.980268 -2.100380 -5.941428 0
M  V30 28 C -2.861829 -0.660317 -6.276857 0
M  V30 29 C -1.533663 -0.248421 -6.391759 0
M  V30 30 C -1.257805 1.066697 -6.667413 0
M  V30 31 C -2.155787 2.068127 -6.851140 0
M  V30 32 C -1.914805 3.426622 -7.112195 0
M  V30 33 S -3.219438 4.641279 -7.395283 0
M  V30 34 C -1.996378 6.064477 -7.636932 0
M  V30 35 N -0.975380 5.496360 -7.490704 0
M  V30 36 C -0.780185 4.217630 -7.230708 0
M  V30 37 C 0.596009 3.684070 -7.073995 0
M  V30 38 C -3.479254 1.619775 -6.733608 0
M  V30 39 C -3.820804 0.312810 -6.458821 0
M  V30 40 C 2.492737 -0.286706 -0.551691 0
M  V30 41 C 2.949450 -1.691167 -0.906735 0
M  V30 42 C 3.691704 0.609009 -0.850379 0
M  V30 43 C 2.162511 -0.208898 0.878027 0
M  V30 44 C -0.157038 3.951966 2.856162 0
M  V30 45 C -0.347210 3.254831 4.167964 0
M  V30 46 C -0.649325 0.581590 5.097650 0
M  V30 47 C -0.856658 -0.778148 5.202796 0
M  V30 48 C 0.203681 -1.622858 4.835431 0
M  V30 49 N 0.118778 -3.089115 4.902614 0
M  V30 50 C 0.510685 -4.270764 5.661905 0
M  V30 51 O 1.087461 -3.549774 6.445602 0
M  V30 52 C -0.093853 -5.299369 4.864600 0
M  V30 53 C 0.640747 -6.464208 5.160730 0
M  V30 54 C 0.433497 -7.694907 4.515358 0
M  V30 55 C -0.536932 -7.702319 3.566014 0
M  V30 56 C -1.251641 -6.575297 3.278302 0
M  V30 57 C -2.355083 -6.399640 2.326925 0
M  V30 58 C -2.890820 -7.377004 1.552431 0
M  V30 59 C -3.914568 -6.936497 0.774612 0
M  V30 60 N -4.014386 -5.633959 1.080880 0
M  V30 61 N -3.110254 -5.312831 1.982577 0
M  V30 62 N -1.027065 -5.471767 3.896666 0
M  V30 63 H 4.176572 -2.835047 4.376048 0
M  V30 64 H 4.019654 -1.220601 3.690327 0
M  V30 65 H 3.670793 -2.727190 2.659087 0
M  V30 66 H 2.588474 0.491201 3.913652 0
M  V30 67 H 1.741952 4.063154 5.438774 0
M  V30 68 H 2.860412 2.828223 4.835232 0
M  V30 69 H 1.927052 5.219687 3.538835 0
M  V30 70 H 3.135759 4.030549 2.939573 0
M  V30 71 H 2.475222 4.345782 0.924034 0
M  V30 72 H 1.070953 5.444866 1.208105 0
M  V30 73 H -0.465244 3.816023 0.152110 0
M  V30 74 H 0.691337 4.537046 -0.948234 0
M  V30 75 H 0.015708 1.711401 -1.818099 0
M  V30 76 H 1.999535 0.266831 -2.469364 0
M  V30 77 H -2.072274 0.775369 -2.347483 0
M  V30 78 H -1.571928 0.797566 -0.557820 0
M  V30 79 H -4.051252 -0.157265 -1.850508 0
M  V30 80 H -3.621788 -0.751866 0.799140 0
M  V30 81 H -3.958137 -2.461607 -1.541079 0
M  V30 82 H -2.762262 -2.326358 -0.156743 0
M  V30 83 H -1.402388 -3.013985 -1.778037 0
M  V30 84 H -3.985311 -2.646239 -3.954415 0
M  V30 85 H -3.889312 -2.533479 -6.426464 0
M  V30 86 H -2.106930 -2.643256 -6.285474 0
M  V30 87 H -0.667449 -0.931423 -6.292445 0
M  V30 88 H -0.219361 1.317181 -6.747992 0
M  V30 89 H -2.109759 7.158722 -7.858801 0
M  V30 90 H 0.811375 3.017820 -7.903746 0
M  V30 91 H 1.395000 4.471477 -7.117651 0
M  V30 92 H 0.726987 3.241341 -6.058785 0
M  V30 93 H -4.339779 2.285404 -6.856129 0
M  V30 94 H -4.815279 -0.070859 -6.366571 0
M  V30 95 H 3.085980 -1.871263 -1.966652 0
M  V30 96 H 3.994506 -1.840960 -0.465691 0
M  V30 97 H 2.346266 -2.448363 -0.383930 0
M  V30 98 H 4.118488 1.093741 0.026888 0
M  V30 99 H 4.490384 -0.055112 -1.318581 0
M  V30 100 H 3.416075 1.303759 -1.678601 0
M  V30 101 H 1.128750 0.102782 1.139069 0
M  V30 102 H 2.935976 0.300337 1.509048 0
M  V30 103 H 2.191881 -1.273082 1.279465 0
M  V30 104 H -0.204414 5.062783 3.056247 0
M  V30 105 H -0.903837 3.710862 2.092452 0
M  V30 106 H -1.251957 2.598098 4.018830 0
M  V30 107 H -0.598921 3.928245 5.013975 0
M  V30 108 H -1.484050 1.216864 5.389715 0
M  V30 109 H -1.774215 -1.198869 5.548021 0
M  V30 110 H -0.469970 -3.039613 3.974298 0
M  V30 111 H 1.452204 -6.624889 5.897305 0
M  V30 112 H 0.946086 -8.634363 4.675547 0
M  V30 113 H -0.818508 -8.566368 2.981144 0
M  V30 114 H -2.521497 -8.388724 1.569425 0
M  V30 115 H -4.571599 -7.393849 0.055780 0
M  V30 116 H -4.542139 -4.771818 0.871910 0
M  V30 END ATOM
M  V30 BEGIN BOND
M  V30 1 1 1 2
M  V30 2 1 2 3
M  V30 3 2 3 4
M  V30 4 1 4 5
M  V30 5 1 5 6
M  V30 6 1 6 7
M  V30 7 1 7 8
M  V30 8 1 8 9
M  V30 9 1 9 10
M  V30 10 1 10 11
M  V30 11 1 11 12
M  V30 12 2 12 13
M  V30 13 1 12 14
M  V30 14 1 14 15
M  V30 15 1 15 16
M  V30 16 2 16 17
M  V30 17 1 16 18
M  V30 18 1 18 19
M  V30 19 1 19 20
M  V30 20 1 20 21
M  V30 21 1 20 22
M  V30 22 1 22 23
M  V30 23 1 23 24
M  V30 24 2 24 25
M  V30 25 1 24 26
M  V30 26 1 26 27
M  V30 27 1 27 28
M  V30 28 2 28 29
M  V30 29 1 29 30
M  V30 30 2 30 31
M  V30 31 1 31 32
M  V30 32 1 32 33
M  V30 33 1 33 34
M  V30 34 2 34 35
M  V30 35 1 35 36
M  V30 36 1 36 37
M  V30 37 1 31 38
M  V30 38 2 38 39
M  V30 39 1 15 40
M  V30 40 1 40 41
M  V30 41 1 40 42
M  V30 42 1 40 43
M  V30 43 1 9 44
M  V30 44 1 44 45
M  V30 45 2 5 46
M  V30 46 1 46 47
M  V30 47 2 47 48
M  V30 48 1 48 49
M  V30 49 1 49 50
M  V30 50 2 50 51
M  V30 51 1 50 52
M  V30 52 2 52 53
M  V30 53 1 53 54
M  V30 54 2 54 55
M  V30 55 1 55 56
M  V30 56 1 56 57
M  V30 57 1 57 58
M  V30 58 2 58 59
M  V30 59 1 59 60
M  V30 60 1 60 61
M  V30 61 2 56 62
M  V30 62 1 48 3
M  V30 63 1 62 52
M  V30 64 1 45 6
M  V30 65 2 61 57
M  V30 66 1 23 18
M  V30 67 1 39 28
M  V30 68 2 36 32
M  V30 69 1 1 63
M  V30 70 1 1 64
M  V30 71 1 1 65
M  V30 72 1 4 66
M  V30 73 1 7 67
M  V30 74 1 7 68
M  V30 75 1 8 69
M  V30 76 1 8 70
M  V30 77 1 10 71
M  V30 78 1 10 72
M  V30 79 1 11 73
M  V30 80 1 11 74
M  V30 81 1 14 75
M  V30 82 1 15 76 CFG=3
M  V30 83 1 19 77
M  V30 84 1 19 78
M  V30 85 1 20 79 CFG=3
M  V30 86 1 21 80
M  V30 87 1 22 81
M  V30 88 1 22 82
M  V30 89 1 23 83 CFG=1
M  V30 90 1 26 84
M  V30 91 1 27 85
M  V30 92 1 27 86
M  V30 93 1 29 87
M  V30 94 1 30 88
M  V30 95 1 34 89
M  V30 96 1 37 90
M  V30 97 1 37 91
M  V30 98 1 37 92
M  V30 99 1 38 93
M  V30 100 1 39 94
M  V30 101 1 41 95
M  V30 102 1 41 96
M  V30 103 1 41 97
M  V30 104 1 42 98
M  V30 105 1 42 99
M  V30 106 1 42 100
M  V30 107 1 43 101
M  V30 108 1 43 102
M  V30 109 1 43 103
M  V30 110 1 44 104
M  V30 111 1 44 105
M  V30 112 1 45 106
M  V30 113 1 45 107
M  V30 114 1 46 108
M  V30 115 1 47 109
M  V30 116 1 49 110
M  V30 117 1 53 111
M  V30 118 1 54 112
M  V30 119 1 55 113
M  V30 120 1 58 114
M  V30 121 1 59 115
M  V30 122 1 60 116
M  V30 END BOND
M  V30 END CTAB
M  END
>  <Dataset>  (809) 
ChEMBL_Kinases

>  <Ligand_Instance>  (809) 
nan

>  <PDB_ID>  (809) 
nan

>  <Standardized_SMILES>  (809) 
COc1cc(N2CCN(CCC(=O)N[C@H](C(=O)N3C[C@H](O)C[C@H]3C(=O)NCc3ccc(-c4scnc4C)cc3)C(C)(C)C)CC2)ccc1NC(=O)c1cccc(-c2cc[nH]n2)n1

>  <Name>  (809) 
nan

>  <Pocket>  (809) 
nan

>  <ATP_Site>  (809) 
nan

>  <Peripheral>  (809) 
nan

>  <Num_H_Atoms_ProtBoundConf>  (809) 
nan

>  <Num_Resolved_Atoms>  (809) 
nan

>  <Num_Not_Resolved_Atoms>  (809) 
nan

$$$$
CHEMBL5075223
     RDKit          3D

  0  0  0  0  0  0  0  0  0  0999 V3000
M  V30 BEGIN CTAB
M  V30 COUNTS 58 61 0 0 0
M  V30 BEGIN ATOM
M  V30 1 C 1.765855 3.479698 1.096223 0
M  V30 2 C 3.097492 2.874881 1.536757 0
M  V30 3 C 2.929217 2.070728 2.768039 0
M  V30 4 C 3.285821 2.707837 3.961854 0
M  V30 5 C 3.103192 2.005620 5.163774 0
M  V30 6 O 3.492339 2.727893 6.306703 0
M  V30 7 C 2.586188 0.730464 5.138405 0
M  V30 8 F 2.473121 0.186303 6.376956 0
M  V30 9 C 2.224380 0.075274 3.980480 0
M  V30 10 C 2.414141 0.788069 2.787546 0
M  V30 11 C 2.095156 0.075353 1.565812 0
M  V30 12 C 0.881966 -0.395369 1.170545 0
M  V30 13 C 0.635703 -1.097736 0.018343 0
M  V30 14 N -0.594296 -1.595356 -0.416176 0
M  V30 15 C -1.688875 -1.326007 0.457151 0
M  V30 16 C -3.020688 -1.823055 0.018766 0
M  V30 17 C -3.504602 -1.264117 -1.296083 0
M  V30 18 C -4.905192 -1.756926 -1.605893 0
M  V30 19 N -4.859297 -3.201097 -1.647596 0
M  V30 20 C -5.972869 -3.793630 -2.327121 0
M  V30 21 C -4.627421 -3.694148 -0.329896 0
M  V30 22 C -3.233534 -3.306122 0.107747 0
M  V30 23 C 1.820327 -1.293453 -0.755106 0
M  V30 24 N 1.582027 -1.991776 -1.902981 0
M  V30 25 C 2.618778 -2.240725 -2.714528 0
M  V30 26 N 2.467645 -2.971427 -3.943053 0
M  V30 27 N 3.856013 -1.826393 -2.426955 0
M  V30 28 C 4.123273 -1.130205 -1.294350 0
M  V30 29 C 3.082157 -0.849977 -0.425630 0
M  V30 30 C 3.218331 -0.154786 0.754205 0
M  V30 31 H 1.095464 2.654211 0.773724 0
M  V30 32 H 1.916671 4.157912 0.224909 0
M  V30 33 H 1.311176 4.082663 1.891825 0
M  V30 34 H 3.518463 2.280571 0.708606 0
M  V30 35 H 3.808010 3.713532 1.686132 0
M  V30 36 H 3.694252 3.712421 3.954290 0
M  V30 37 H 4.434947 2.572890 6.697572 0
M  V30 38 H 1.828709 -0.922648 4.016436 0
M  V30 39 H 0.047676 -0.196107 1.823455 0
M  V30 40 H -0.686808 -2.115693 -1.304903 0
M  V30 41 H -1.480442 -1.663664 1.514645 0
M  V30 42 H -1.806924 -0.202991 0.588636 0
M  V30 43 H -3.753786 -1.391665 0.773484 0
M  V30 44 H -2.865820 -1.689952 -2.090672 0
M  V30 45 H -3.470457 -0.167573 -1.348660 0
M  V30 46 H -5.226751 -1.352007 -2.581154 0
M  V30 47 H -5.533651 -1.394116 -0.771757 0
M  V30 48 H -6.715649 -2.979012 -2.507900 0
M  V30 49 H -6.456351 -4.634249 -1.762864 0
M  V30 50 H -5.623074 -4.111768 -3.335178 0
M  V30 51 H -4.787674 -4.788449 -0.235055 0
M  V30 52 H -5.354939 -3.218628 0.358732 0
M  V30 53 H -3.063949 -3.705842 1.117774 0
M  V30 54 H -2.500845 -3.776651 -0.567507 0
M  V30 55 H 1.756987 -2.418269 -4.482157 0
M  V30 56 H 2.932370 -3.831840 -4.250020 0
M  V30 57 H 5.118037 -0.781252 -1.035877 0
M  V30 58 H 4.262618 0.120511 0.906809 0
M  V30 END ATOM
M  V30 BEGIN BOND
M  V30 1 1 1 2
M  V30 2 1 2 3
M  V30 3 2 3 4
M  V30 4 1 4 5
M  V30 5 1 5 6
M  V30 6 2 5 7
M  V30 7 1 7 8
M  V30 8 1 7 9
M  V30 9 2 9 10
M  V30 10 1 10 11
M  V30 11 2 11 12
M  V30 12 1 12 13
M  V30 13 1 13 14
M  V30 14 1 14 15
M  V30 15 1 15 16
M  V30 16 1 16 17
M  V30 17 1 17 18
M  V30 18 1 18 19
M  V30 19 1 19 20
M  V30 20 1 19 21
M  V30 21 1 21 22
M  V30 22 2 13 23
M  V30 23 1 23 24
M  V30 24 2 24 25
M  V30 25 1 25 26
M  V30 26 1 25 27
M  V30 27 2 27 28
M  V30 28 1 28 29
M  V30 29 2 29 30
M  V30 30 1 10 3
M  V30 31 1 30 11
M  V30 32 1 22 16
M  V30 33 1 29 23
M  V30 34 1 1 31
M  V30 35 1 1 32
M  V30 36 1 1 33
M  V30 37 1 2 34
M  V30 38 1 2 35
M  V30 39 1 4 36
M  V30 40 1 6 37
M  V30 41 1 9 38
M  V30 42 1 12 39
M  V30 43 1 14 40
M  V30 44 1 15 41
M  V30 45 1 15 42
M  V30 46 1 16 43
M  V30 47 1 17 44
M  V30 48 1 17 45
M  V30 49 1 18 46
M  V30 50 1 18 47
M  V30 51 1 20 48
M  V30 52 1 20 49
M  V30 53 1 20 50
M  V30 54 1 21 51
M  V30 55 1 21 52
M  V30 56 1 22 53
M  V30 57 1 22 54
M  V30 58 1 26 55
M  V30 59 1 26 56
M  V30 60 1 28 57
M  V30 61 1 30 58
M  V30 END BOND
M  V30 END CTAB
M  END
>  <Dataset>  (810) 
ChEMBL_Kinases

>  <Ligand_Instance>  (810) 
nan

>  <PDB_ID>  (810) 
nan

>  <Standardized_SMILES>  (810) 
CCc1cc(O)c(F)cc1-c1cc(NCC2CCN(C)CC2)c2nc(N)ncc2c1

>  <Name>  (810) 
nan

>  <Pocket>  (810) 
nan

>  <ATP_Site>  (810) 
nan

>  <Peripheral>  (810) 
nan

>  <Num_H_Atoms_ProtBoundConf>  (810) 
nan

>  <Num_Resolved_Atoms>  (810) 
nan

>  <Num_Not_Resolved_Atoms>  (810) 
nan

$$$$
CHEMBL5075313
     RDKit          3D

  0  0  0  0  0  0  0  0  0  0999 V3000
M  V30 BEGIN CTAB
M  V30 COUNTS 99 105 0 0 0
M  V30 BEGIN ATOM
M  V30 1 C 2.550215 -3.382107 1.550996 0
M  V30 2 C 3.557843 -2.245846 1.606818 0
M  V30 3 C 4.241649 -2.288991 2.943879 0
M  V30 4 C 5.544649 -2.796796 2.975820 0
M  V30 5 C 6.154405 -2.831601 4.211476 0
M  V30 6 C 5.556724 -2.402426 5.377038 0
M  V30 7 C 4.274282 -1.914875 5.271341 0
M  V30 8 C 3.531473 -1.421046 6.452017 0
M  V30 9 C 3.560698 0.106127 6.385436 0
M  V30 10 C 3.574367 -1.836179 4.088135 0
M  V30 11 N 2.258140 -1.365311 3.847279 0
M  V30 12 C 1.679087 -0.112935 3.559566 0
M  V30 13 O 2.368527 0.934273 3.470834 0
M  V30 14 C 0.237665 -0.026052 3.357129 0
M  V30 15 C -0.397503 1.184038 3.162019 0
M  V30 16 C -1.746412 0.855895 2.984015 0
M  V30 17 N -1.845634 -0.466445 3.076967 0
M  V30 18 C -3.087017 -1.192165 2.929536 0
M  V30 19 N -3.741123 -0.986448 1.768813 0
M  V30 20 C -4.911272 -1.576615 1.436137 0
M  V30 21 N -5.411306 -1.196625 0.158003 0
M  V30 22 C -4.651070 -1.339162 -1.051602 0
M  V30 23 C -3.379472 -1.907509 -1.046442 0
M  V30 24 C -2.620948 -2.046647 -2.206899 0
M  V30 25 C -3.124994 -1.617367 -3.395284 0
M  V30 26 N -2.329852 -1.748535 -4.565061 0
M  V30 27 C -1.081055 -2.474019 -4.674127 0
M  V30 28 C 0.081370 -1.526169 -4.897511 0
M  V30 29 C -0.461127 -0.134573 -5.118956 0
M  V30 30 O -1.099163 0.238745 -3.912242 0
M  V30 31 C 0.571033 0.885917 -5.353187 0
M  V30 32 O 1.346354 0.788156 -6.354646 0
M  V30 33 N 0.942242 2.086630 -4.642180 0
M  V30 34 C 2.048779 2.815914 -5.226515 0
M  V30 35 C 3.112178 3.176194 -4.210782 0
M  V30 36 N 2.498572 4.033004 -3.196908 0
M  V30 37 C 3.444427 4.473289 -2.210133 0
M  V30 38 C 1.520431 3.195924 -2.519040 0
M  V30 39 C 0.433331 2.729607 -3.456581 0
M  V30 40 C -1.481291 -0.196814 -6.241871 0
M  V30 41 C -2.612594 -1.143748 -5.881365 0
M  V30 42 C -4.368677 -1.054481 -3.448701 0
M  V30 43 C -5.124955 -0.916414 -2.289123 0
M  V30 44 O -6.385574 -0.358264 -2.274996 0
M  V30 45 C -7.065838 0.138396 -3.406049 0
M  V30 46 N -5.456441 -2.429924 2.334465 0
M  V30 47 C -4.848730 -2.678138 3.518037 0
M  V30 48 N -5.130529 -3.445762 4.578823 0
M  V30 49 C -4.154733 -3.321450 5.527344 0
M  V30 50 C -3.181028 -2.430390 5.074455 0
M  V30 51 C -3.655218 -2.063737 3.834664 0
M  V30 52 C -0.659511 -1.076511 3.307655 0
M  V30 53 H 2.621239 -3.992714 2.465610 0
M  V30 54 H 1.514565 -2.930354 1.546906 0
M  V30 55 H 2.683571 -4.024522 0.663766 0
M  V30 56 H 4.294752 -2.403886 0.795752 0
M  V30 57 H 3.102040 -1.251863 1.497677 0
M  V30 58 H 6.031302 -3.138162 2.073092 0
M  V30 59 H 7.167113 -3.215082 4.309898 0
M  V30 60 H 6.033108 -2.430241 6.345961 0
M  V30 61 H 2.488815 -1.817466 6.489811 0
M  V30 62 H 4.015821 -1.757240 7.402791 0
M  V30 63 H 4.074236 0.515043 7.303931 0
M  V30 64 H 2.542181 0.533848 6.310809 0
M  V30 65 H 4.150476 0.473986 5.507433 0
M  V30 66 H 1.648708 -2.232641 3.925915 0
M  V30 67 H 0.004418 2.185780 3.140376 0
M  V30 68 H -2.550049 1.542468 2.807460 0
M  V30 69 H -6.360859 -0.793656 0.047917 0
M  V30 70 H -2.992873 -2.243836 -0.094694 0
M  V30 71 H -1.655262 -2.503274 -2.052676 0
M  V30 72 H -1.157206 -3.133079 -5.565911 0
M  V30 73 H -0.897038 -3.142826 -3.805532 0
M  V30 74 H 0.634687 -1.494058 -3.927003 0
M  V30 75 H 0.686710 -1.899343 -5.721689 0
M  V30 76 H -0.628290 -0.181388 -3.145264 0
M  V30 77 H 2.520083 2.297507 -6.074042 0
M  V30 78 H 1.649238 3.791171 -5.610202 0
M  V30 79 H 3.850232 3.821316 -4.723351 0
M  V30 80 H 3.544188 2.265716 -3.762996 0
M  V30 81 H 2.954332 4.627295 -1.204335 0
M  V30 82 H 4.278452 3.793536 -2.041463 0
M  V30 83 H 3.783148 5.491724 -2.509752 0
M  V30 84 H 2.064432 2.392788 -2.011867 0
M  V30 85 H 1.017175 3.827240 -1.754409 0
M  V30 86 H -0.135100 3.670014 -3.726068 0
M  V30 87 H -0.266008 2.146092 -2.861425 0
M  V30 88 H -1.015456 -0.534367 -7.165699 0
M  V30 89 H -1.907325 0.807717 -6.350989 0
M  V30 90 H -2.643888 -1.934433 -6.654011 0
M  V30 91 H -3.558015 -0.614831 -5.902615 0
M  V30 92 H -4.834195 -0.695417 -4.340394 0
M  V30 93 H -7.672186 -0.696262 -3.829481 0
M  V30 94 H -7.730932 0.982709 -3.076446 0
M  V30 95 H -6.397777 0.594724 -4.168552 0
M  V30 96 H -5.991724 -4.053551 4.649373 0
M  V30 97 H -4.128176 -3.827856 6.481651 0
M  V30 98 H -2.272014 -2.091808 5.551359 0
M  V30 99 H -0.467080 -2.130504 3.424030 0
M  V30 END ATOM
M  V30 BEGIN BOND
M  V30 1 1 1 2
M  V30 2 1 2 3
M  V30 3 2 3 4
M  V30 4 1 4 5
M  V30 5 2 5 6
M  V30 6 1 6 7
M  V30 7 1 7 8
M  V30 8 1 8 9
M  V30 9 2 7 10
M  V30 10 1 10 11
M  V30 11 1 11 12
M  V30 12 2 12 13
M  V30 13 1 12 14
M  V30 14 1 14 15
M  V30 15 2 15 16
M  V30 16 1 16 17
M  V30 17 1 17 18
M  V30 18 2 18 19
M  V30 19 1 19 20
M  V30 20 1 20 21
M  V30 21 1 21 22
M  V30 22 2 22 23
M  V30 23 1 23 24
M  V30 24 2 24 25
M  V30 25 1 25 26
M  V30 26 1 26 27
M  V30 27 1 27 28
M  V30 28 1 28 29
M  V30 29 1 29 30
M  V30 30 1 29 31
M  V30 31 2 31 32
M  V30 32 1 31 33
M  V30 33 1 33 34
M  V30 34 1 34 35
M  V30 35 1 35 36
M  V30 36 1 36 37
M  V30 37 1 36 38
M  V30 38 1 38 39
M  V30 39 1 29 40
M  V30 40 1 40 41
M  V30 41 1 25 42
M  V30 42 2 42 43
M  V30 43 1 43 44
M  V30 44 1 44 45
M  V30 45 2 20 46
M  V30 46 1 46 47
M  V30 47 1 47 48
M  V30 48 1 48 49
M  V30 49 2 49 50
M  V30 50 1 50 51
M  V30 51 1 17 52
M  V30 52 1 10 3
M  V30 53 2 52 14
M  V30 54 1 51 18
M  V30 55 1 43 22
M  V30 56 2 51 47
M  V30 57 1 41 26
M  V30 58 1 39 33
M  V30 59 1 1 53
M  V30 60 1 1 54
M  V30 61 1 1 55
M  V30 62 1 2 56
M  V30 63 1 2 57
M  V30 64 1 4 58
M  V30 65 1 5 59
M  V30 66 1 6 60
M  V30 67 1 8 61
M  V30 68 1 8 62
M  V30 69 1 9 63
M  V30 70 1 9 64
M  V30 71 1 9 65
M  V30 72 1 11 66
M  V30 73 1 15 67
M  V30 74 1 16 68
M  V30 75 1 21 69
M  V30 76 1 23 70
M  V30 77 1 24 71
M  V30 78 1 27 72
M  V30 79 1 27 73
M  V30 80 1 28 74
M  V30 81 1 28 75
M  V30 82 1 30 76
M  V30 83 1 34 77
M  V30 84 1 34 78
M  V30 85 1 35 79
M  V30 86 1 35 80
M  V30 87 1 37 81
M  V30 88 1 37 82
M  V30 89 1 37 83
M  V30 90 1 38 84
M  V30 91 1 38 85
M  V30 92 1 39 86
M  V30 93 1 39 87
M  V30 94 1 40 88
M  V30 95 1 40 89
M  V30 96 1 41 90
M  V30 97 1 41 91
M  V30 98 1 42 92
M  V30 99 1 45 93
M  V30 100 1 45 94
M  V30 101 1 45 95
M  V30 102 1 48 96
M  V30 103 1 49 97
M  V30 104 1 50 98
M  V30 105 1 52 99
M  V30 END BOND
M  V30 END CTAB
M  END
>  <Dataset>  (811) 
ChEMBL_Kinases

>  <Ligand_Instance>  (811) 
nan

>  <PDB_ID>  (811) 
nan

>  <Standardized_SMILES>  (811) 
CCc1cccc(CC)c1NC(=O)c1ccn(-c2nc(Nc3ccc(N4CCC(O)(C(=O)N5CCN(C)CC5)CC4)cc3OC)nc3[nH]ccc23)c1

>  <Name>  (811) 
nan

>  <Pocket>  (811) 
nan

>  <ATP_Site>  (811) 
nan

>  <Peripheral>  (811) 
nan

>  <Num_H_Atoms_ProtBoundConf>  (811) 
nan

>  <Num_Resolved_Atoms>  (811) 
nan

>  <Num_Not_Resolved_Atoms>  (811) 
nan

$$$$
CHEMBL5075047
     RDKit          3D

  0  0  0  0  0  0  0  0  0  0999 V3000
M  V30 BEGIN CTAB
M  V30 COUNTS 62 67 0 0 0
M  V30 BEGIN ATOM
M  V30 1 C 0.037593 -2.943238 5.931126 0
M  V30 2 C 0.149996 -1.593396 5.365765 0
M  V30 3 C 0.949895 -1.203003 4.286144 0
M  V30 4 N 1.818858 -2.019825 3.509511 0
M  V30 5 C 2.546220 -1.412487 2.447422 0
M  V30 6 N 3.772142 -0.847171 2.507483 0
M  V30 7 C 4.327985 -0.311355 1.407028 0
M  V30 8 C 3.671200 -0.318718 0.182582 0
M  V30 9 C 4.209536 0.220850 -0.966428 0
M  V30 10 C 3.481353 0.165056 -2.131678 0
M  V30 11 Cl 4.189522 0.860789 -3.586412 0
M  V30 12 C 2.210054 -0.413778 -2.223773 0
M  V30 13 C 1.460050 -0.447251 -3.521500 0
M  V30 14 C 0.615601 0.770681 -3.687001 0
M  V30 15 C -0.727295 0.724759 -3.044731 0
M  V30 16 N -1.440110 -0.492991 -3.216133 0
M  V30 17 C -2.161210 -0.993438 -2.119481 0 CFG=2
M  V30 18 C -2.902474 -2.291448 -2.327817 0
M  V30 19 O -4.004697 -2.018134 -3.092875 0
M  V30 20 C -4.261044 -0.661112 -3.026799 0
M  V30 21 C -3.386762 -0.089482 -1.906613 0 CFG=2
M  V30 22 O -3.104202 1.242232 -2.063442 0
M  V30 23 C -0.774538 -1.427207 -4.074145 0
M  V30 24 C 0.647047 -1.694246 -3.684975 0
M  V30 25 C 1.733741 -0.933181 -1.037779 0
M  V30 26 C 2.425184 -0.897702 0.139304 0
M  V30 27 N 1.889668 -1.428564 1.258587 0
M  V30 28 C 0.702400 0.148434 4.149952 0
M  V30 29 N -0.180205 0.545246 5.076861 0
M  V30 30 N -0.517128 -0.515685 5.817937 0
M  V30 31 C -1.462049 -0.370582 6.899606 0 CFG=2
M  V30 32 C -2.888356 -0.803644 6.647841 0
M  V30 33 C -2.568415 0.641312 6.767036 0
M  V30 34 F -3.007665 1.282252 7.908045 0
M  V30 35 F -2.508100 1.443541 5.646313 0
M  V30 36 H -1.036271 -3.186127 6.090307 0
M  V30 37 H 0.535653 -3.654997 5.255349 0
M  V30 38 H 0.602010 -2.944976 6.893041 0
M  V30 39 H 1.877830 -3.035276 3.763045 0
M  V30 40 H 5.300454 0.134827 1.463746 0
M  V30 41 H 5.187383 0.670125 -0.912045 0
M  V30 42 H 2.268694 -0.373124 -4.306895 0
M  V30 43 H 1.132960 1.693176 -3.308371 0
M  V30 44 H 0.469856 0.980782 -4.785662 0
M  V30 45 H -1.336843 1.527011 -3.556925 0
M  V30 46 H -0.726472 0.999214 -1.976528 0
M  V30 47 H -1.581644 -0.976977 -1.189623 0
M  V30 48 H -2.292364 -3.141026 -2.615218 0
M  V30 49 H -3.308044 -2.549319 -1.304396 0
M  V30 50 H -3.835679 -0.220528 -3.961973 0
M  V30 51 H -5.321894 -0.412053 -2.872273 0
M  V30 52 H -3.872453 -0.304421 -0.923634 0
M  V30 53 H -2.945499 1.626746 -1.143292 0
M  V30 54 H -1.309276 -2.358387 -4.217392 0
M  V30 55 H -0.733474 -0.938046 -5.081841 0
M  V30 56 H 1.093431 -2.278954 -4.528484 0
M  V30 57 H 0.728477 -2.386519 -2.809667 0
M  V30 58 H 0.774791 -1.388500 -1.032549 0
M  V30 59 H 1.153948 0.783879 3.407907 0
M  V30 60 H -1.066359 -0.474649 7.947911 0
M  V30 61 H -3.121966 -1.245612 5.650920 0
M  V30 62 H -3.382226 -1.286022 7.501292 0
M  V30 END ATOM
M  V30 BEGIN BOND
M  V30 1 1 1 2
M  V30 2 2 2 3
M  V30 3 1 3 4
M  V30 4 1 4 5
M  V30 5 2 5 6
M  V30 6 1 6 7
M  V30 7 2 7 8
M  V30 8 1 8 9
M  V30 9 2 9 10
M  V30 10 1 10 11
M  V30 11 1 10 12
M  V30 12 1 12 13
M  V30 13 1 13 14
M  V30 14 1 14 15
M  V30 15 1 15 16
M  V30 16 1 16 17
M  V30 17 1 17 18
M  V30 18 1 18 19
M  V30 19 1 19 20
M  V30 20 1 20 21
M  V30 21 1 21 22
M  V30 22 1 16 23
M  V30 23 1 23 24
M  V30 24 2 12 25
M  V30 25 1 25 26
M  V30 26 2 26 27
M  V30 27 1 3 28
M  V30 28 2 28 29
M  V30 29 1 29 30
M  V30 30 1 30 31
M  V30 31 1 31 32
M  V30 32 1 32 33
M  V30 33 1 33 34
M  V30 34 1 33 35
M  V30 35 1 30 2
M  V30 36 1 33 31
M  V30 37 1 27 5
M  V30 38 1 26 8
M  V30 39 1 24 13
M  V30 40 1 21 17
M  V30 41 1 1 36
M  V30 42 1 1 37
M  V30 43 1 1 38
M  V30 44 1 4 39
M  V30 45 1 7 40
M  V30 46 1 9 41
M  V30 47 1 13 42
M  V30 48 1 14 43
M  V30 49 1 14 44
M  V30 50 1 15 45
M  V30 51 1 15 46
M  V30 52 1 17 47 CFG=1
M  V30 53 1 18 48
M  V30 54 1 18 49
M  V30 55 1 20 50
M  V30 56 1 20 51
M  V30 57 1 21 52 CFG=1
M  V30 58 1 22 53
M  V30 59 1 23 54
M  V30 60 1 23 55
M  V30 61 1 24 56
M  V30 62 1 24 57
M  V30 63 1 25 58
M  V30 64 1 28 59
M  V30 65 1 31 60 CFG=1
M  V30 66 1 32 61
M  V30 67 1 32 62
M  V30 END BOND
M  V30 END CTAB
M  END
>  <Dataset>  (812) 
ChEMBL_Kinases

>  <Ligand_Instance>  (812) 
nan

>  <PDB_ID>  (812) 
nan

>  <Standardized_SMILES>  (812) 
Cc1c(Nc2ncc3cc(Cl)c(C4CCN([C@@H]5COC[C@@H]5O)CC4)cc3n2)cnn1[C@@H]1CC1(F)F

>  <Name>  (812) 
nan

>  <Pocket>  (812) 
nan

>  <ATP_Site>  (812) 
nan

>  <Peripheral>  (812) 
nan

>  <Num_H_Atoms_ProtBoundConf>  (812) 
nan

>  <Num_Resolved_Atoms>  (812) 
nan

>  <Num_Not_Resolved_Atoms>  (812) 
nan

$$$$
CHEMBL378920
     RDKit          3D

  0  0  0  0  0  0  0  0  0  0999 V3000
M  V30 BEGIN CTAB
M  V30 COUNTS 39 42 0 0 0
M  V30 BEGIN ATOM
M  V30 1 C -0.686604 -3.492788 1.095858 0
M  V30 2 C 0.487473 -3.900234 0.222461 0
M  V30 3 C 0.093800 -3.806788 -1.207087 0
M  V30 4 C 1.721067 -3.164179 0.581599 0
M  V30 5 N 2.869958 -3.705805 1.075886 0
M  V30 6 N 3.741466 -2.751798 1.273480 0
M  V30 7 C 3.223849 -1.573924 0.929373 0
M  V30 8 C 3.649792 -0.243083 0.913837 0
M  V30 9 C 2.792226 0.744299 0.469547 0
M  V30 10 C 1.507501 0.416118 0.038324 0
M  V30 11 C 0.767699 1.593101 -0.388122 0
M  V30 12 O 1.164031 2.281849 -1.446316 0
M  V30 13 C 0.370719 3.302701 -1.668522 0
M  V30 14 N -0.596003 3.312101 -0.734925 0
M  V30 15 C -0.353345 2.252747 0.061671 0
M  V30 16 C -1.096394 1.802638 1.224334 0
M  V30 17 C -1.814139 0.637772 1.357447 0
M  V30 18 C -2.497531 0.251032 2.478752 0
M  V30 19 F -3.172135 -0.928408 2.490020 0
M  V30 20 C -2.483619 1.076077 3.579569 0
M  V30 21 Cl -3.372139 0.532441 4.979246 0
M  V30 22 C -1.776907 2.260157 3.498834 0
M  V30 23 C -1.099007 2.622120 2.357047 0
M  V30 24 F -0.451268 3.819354 2.437062 0
M  V30 25 C 1.140915 -0.905874 0.074461 0
M  V30 26 N 1.971613 -1.846665 0.502907 0
M  V30 27 H -1.257050 -4.353012 1.484113 0
M  V30 28 H -0.301536 -2.953801 2.007791 0
M  V30 29 H -1.408862 -2.869473 0.518710 0
M  V30 30 H 0.697834 -4.966646 0.454408 0
M  V30 31 H -0.862834 -3.215010 -1.303739 0
M  V30 32 H 0.872131 -3.454812 -1.901155 0
M  V30 33 H -0.201541 -4.803415 -1.601019 0
M  V30 34 H 4.657865 -0.067226 1.263286 0
M  V30 35 H 3.219649 1.738799 0.498693 0
M  V30 36 H 0.567427 3.966427 -2.507826 0
M  V30 37 H -1.829942 -0.010358 0.494420 0
M  V30 38 H -1.823600 2.843594 4.411722 0
M  V30 39 H 0.154407 -1.080834 -0.270032 0
M  V30 END ATOM
M  V30 BEGIN BOND
M  V30 1 1 1 2
M  V30 2 1 2 3
M  V30 3 1 2 4
M  V30 4 2 4 5
M  V30 5 1 5 6
M  V30 6 2 6 7
M  V30 7 1 7 8
M  V30 8 2 8 9
M  V30 9 1 9 10
M  V30 10 1 10 11
M  V30 11 1 11 12
M  V30 12 1 12 13
M  V30 13 2 13 14
M  V30 14 1 14 15
M  V30 15 1 15 16
M  V30 16 2 16 17
M  V30 17 1 17 18
M  V30 18 1 18 19
M  V30 19 2 18 20
M  V30 20 1 20 21
M  V30 21 1 20 22
M  V30 22 2 22 23
M  V30 23 1 23 24
M  V30 24 2 10 25
M  V30 25 1 25 26
M  V30 26 1 26 4
M  V30 27 1 26 7
M  V30 28 2 15 11
M  V30 29 1 23 16
M  V30 30 1 1 27
M  V30 31 1 1 28
M  V30 32 1 1 29
M  V30 33 1 2 30
M  V30 34 1 3 31
M  V30 35 1 3 32
M  V30 36 1 3 33
M  V30 37 1 8 34
M  V30 38 1 9 35
M  V30 39 1 13 36
M  V30 40 1 17 37
M  V30 41 1 22 38
M  V30 42 1 25 39
M  V30 END BOND
M  V30 END CTAB
M  END
>  <Dataset>  (813) 
ChEMBL_Kinases

>  <Ligand_Instance>  (813) 
nan

>  <PDB_ID>  (813) 
nan

>  <Standardized_SMILES>  (813) 
CC(C)c1nnc2ccc(-c3ocnc3-c3cc(F)c(Cl)cc3F)cn12

>  <Name>  (813) 
nan

>  <Pocket>  (813) 
nan

>  <ATP_Site>  (813) 
nan

>  <Peripheral>  (813) 
nan

>  <Num_H_Atoms_ProtBoundConf>  (813) 
nan

>  <Num_Resolved_Atoms>  (813) 
nan

>  <Num_Not_Resolved_Atoms>  (813) 
nan

$$$$
CHEMBL378919
     RDKit          3D

  0  0  0  0  0  0  0  0  0  0999 V3000
M  V30 BEGIN CTAB
M  V30 COUNTS 44 48 0 0 0
M  V30 BEGIN ATOM
M  V30 1 C 1.596734 -2.692796 -0.332184 0
M  V30 2 O 1.828062 -1.317467 -0.279819 0
M  V30 3 C 3.030300 -0.706680 -0.487029 0
M  V30 4 C 4.079775 -1.538017 -0.770860 0
M  V30 5 C 5.303521 -0.954100 -0.994184 0
M  V30 6 C 5.476688 0.407626 -0.937491 0
M  V30 7 C 4.343408 1.138936 -0.641339 0
M  V30 8 C 3.046894 0.656099 -0.393808 0
M  V30 9 C 2.036315 1.646684 -0.161427 0
M  V30 10 N 2.125767 2.883146 -0.731544 0
M  V30 11 N 1.134132 3.644820 -0.369173 0
M  V30 12 C 0.343204 2.967021 0.451373 0
M  V30 13 C -0.790138 3.330701 1.103393 0
M  V30 14 C -1.381295 2.404991 1.925526 0
M  V30 15 C -0.799397 1.134461 2.059794 0
M  V30 16 C -1.551375 0.290207 2.974634 0
M  V30 17 O -1.648941 0.639886 4.244177 0
M  V30 18 C -2.349627 -0.210044 4.936756 0
M  V30 19 N -2.745181 -1.173135 4.116139 0
M  V30 20 C -2.257638 -0.879934 2.887241 0
M  V30 21 C -2.400148 -1.609960 1.644241 0
M  V30 22 C -1.924422 -2.915671 1.788647 0
M  V30 23 C -1.948665 -3.828339 0.742336 0
M  V30 24 C -2.465503 -3.411240 -0.477779 0
M  V30 25 F -2.516395 -4.261818 -1.542707 0
M  V30 26 C -2.937135 -2.121493 -0.626875 0
M  V30 27 C -2.908642 -1.223460 0.417965 0
M  V30 28 C 0.345661 0.875004 1.353231 0
M  V30 29 N 0.920840 1.773727 0.550592 0
M  V30 30 H 1.982301 -3.151795 -1.285301 0
M  V30 31 H 1.917607 -3.275007 0.533271 0
M  V30 32 H 0.478520 -2.810852 -0.433341 0
M  V30 33 H 3.944877 -2.607083 -0.816284 0
M  V30 34 H 6.156056 -1.577637 -1.220276 0
M  V30 35 H 6.434681 0.865955 -1.112959 0
M  V30 36 H 4.541656 2.222601 -0.607894 0
M  V30 37 H -1.235849 4.331207 0.989735 0
M  V30 38 H -2.295838 2.732590 2.436612 0
M  V30 39 H -2.553113 -0.114944 5.995193 0
M  V30 40 H -1.494259 -3.361003 2.700055 0
M  V30 41 H -1.584827 -4.849984 0.828508 0
M  V30 42 H -3.356800 -1.729918 -1.563786 0
M  V30 43 H -3.240968 -0.197334 0.435558 0
M  V30 44 H 0.717045 -0.096770 1.548674 0
M  V30 END ATOM
M  V30 BEGIN BOND
M  V30 1 1 1 2
M  V30 2 1 2 3
M  V30 3 2 3 4
M  V30 4 1 4 5
M  V30 5 2 5 6
M  V30 6 1 6 7
M  V30 7 2 7 8
M  V30 8 1 8 9
M  V30 9 2 9 10
M  V30 10 1 10 11
M  V30 11 2 11 12
M  V30 12 1 12 13
M  V30 13 2 13 14
M  V30 14 1 14 15
M  V30 15 1 15 16
M  V30 16 1 16 17
M  V30 17 1 17 18
M  V30 18 2 18 19
M  V30 19 1 19 20
M  V30 20 1 20 21
M  V30 21 2 21 22
M  V30 22 1 22 23
M  V30 23 2 23 24
M  V30 24 1 24 25
M  V30 25 1 24 26
M  V30 26 2 26 27
M  V30 27 2 15 28
M  V30 28 1 28 29
M  V30 29 1 8 3
M  V30 30 1 29 9
M  V30 31 1 29 12
M  V30 32 2 20 16
M  V30 33 1 27 21
M  V30 34 1 1 30
M  V30 35 1 1 31
M  V30 36 1 1 32
M  V30 37 1 4 33
M  V30 38 1 5 34
M  V30 39 1 6 35
M  V30 40 1 7 36
M  V30 41 1 13 37
M  V30 42 1 14 38
M  V30 43 1 18 39
M  V30 44 1 22 40
M  V30 45 1 23 41
M  V30 46 1 26 42
M  V30 47 1 27 43
M  V30 48 1 28 44
M  V30 END BOND
M  V30 END CTAB
M  END
>  <Dataset>  (814) 
ChEMBL_Kinases

>  <Ligand_Instance>  (814) 
nan

>  <PDB_ID>  (814) 
nan

>  <Standardized_SMILES>  (814) 
COc1ccccc1-c1nnc2ccc(-c3ocnc3-c3ccc(F)cc3)cn12

>  <Name>  (814) 
nan

>  <Pocket>  (814) 
nan

>  <ATP_Site>  (814) 
nan

>  <Peripheral>  (814) 
nan

>  <Num_H_Atoms_ProtBoundConf>  (814) 
nan

>  <Num_Resolved_Atoms>  (814) 
nan

>  <Num_Not_Resolved_Atoms>  (814) 
nan

$$$$
CHEMBL378870
     RDKit          3D

  0  0  0  0  0  0  0  0  0  0999 V3000
M  V30 BEGIN CTAB
M  V30 COUNTS 46 49 0 0 0
M  V30 BEGIN ATOM
M  V30 1 C 1.080610 -4.514029 2.393095 0
M  V30 2 C 1.418302 -4.874071 1.012046 0
M  V30 3 N 1.847167 -6.063482 0.562372 0
M  V30 4 N 2.053531 -6.023196 -0.745500 0
M  V30 5 C 1.761125 -4.781249 -1.206418 0
M  V30 6 C 1.778452 -4.148129 -2.438198 0
M  V30 7 C 1.411499 -2.830222 -2.589039 0
M  V30 8 C 1.008121 -2.090291 -1.491837 0
M  V30 9 C 0.615785 -0.691986 -1.638152 0
M  V30 10 C 0.012362 -0.169739 -2.758325 0
M  V30 11 N -0.309542 1.157399 -2.780083 0
M  V30 12 C -0.022027 1.925049 -1.687753 0
M  V30 13 C 0.593538 1.429232 -0.524313 0
M  V30 14 O 0.715008 2.473941 0.331912 0
M  V30 15 C 1.227408 2.580085 1.602371 0
M  V30 16 C 0.557255 1.754962 2.667425 0 CFG=1
M  V30 17 N 1.194905 1.968601 3.958168 0
M  V30 18 C -0.901615 1.976407 2.709431 0
M  V30 19 C -1.777658 1.075739 2.097311 0
M  V30 20 C -3.135796 1.148412 2.054281 0
M  V30 21 C -3.720557 2.240505 2.690128 0
M  V30 22 C -2.915194 3.166175 3.313086 0
M  V30 23 C -1.533619 3.048308 3.329681 0
M  V30 24 C 0.902505 0.086961 -0.541785 0
M  V30 25 C 0.999015 -2.740772 -0.277755 0
M  V30 26 C 1.360602 -4.056388 -0.098890 0
M  V30 27 H 0.370072 -5.215617 2.864620 0
M  V30 28 H 1.994819 -4.524221 3.049535 0
M  V30 29 H 0.677022 -3.491438 2.453909 0
M  V30 30 H 2.388770 -6.794618 -1.380228 0
M  V30 31 H 2.091164 -4.716315 -3.297274 0
M  V30 32 H 1.442954 -2.391917 -3.558038 0
M  V30 33 H -0.172659 -0.850086 -3.563750 0
M  V30 34 H -0.367384 2.933735 -1.938378 0
M  V30 35 H 2.329941 2.408705 1.587205 0
M  V30 36 H 1.138709 3.670755 1.896258 0
M  V30 37 H 0.720214 0.686126 2.439889 0
M  V30 38 H 0.765107 2.718619 4.518895 0
M  V30 39 H 1.320167 1.090389 4.493344 0
M  V30 40 H -1.292616 0.225907 1.604232 0
M  V30 41 H -3.695152 0.387243 1.548699 0
M  V30 42 H -4.795952 2.310862 2.663959 0
M  V30 43 H -3.386238 4.020017 3.809096 0
M  V30 44 H -0.906165 3.770595 3.815647 0
M  V30 45 H 1.366388 -0.197345 0.369100 0
M  V30 46 H 0.677954 -2.136087 0.567919 0
M  V30 END ATOM
M  V30 BEGIN BOND
M  V30 1 1 1 2
M  V30 2 2 2 3
M  V30 3 1 3 4
M  V30 4 1 4 5
M  V30 5 2 5 6
M  V30 6 1 6 7
M  V30 7 2 7 8
M  V30 8 1 8 9
M  V30 9 2 9 10
M  V30 10 1 10 11
M  V30 11 2 11 12
M  V30 12 1 12 13
M  V30 13 1 13 14
M  V30 14 1 14 15
M  V30 15 1 15 16
M  V30 16 1 16 17
M  V30 17 1 16 18
M  V30 18 2 18 19
M  V30 19 1 19 20
M  V30 20 2 20 21
M  V30 21 1 21 22
M  V30 22 2 22 23
M  V30 23 2 13 24
M  V30 24 1 8 25
M  V30 25 2 25 26
M  V30 26 1 26 2
M  V30 27 1 26 5
M  V30 28 1 24 9
M  V30 29 1 23 18
M  V30 30 1 1 27
M  V30 31 1 1 28
M  V30 32 1 1 29
M  V30 33 1 4 30
M  V30 34 1 6 31
M  V30 35 1 7 32
M  V30 36 1 10 33
M  V30 37 1 12 34
M  V30 38 1 15 35
M  V30 39 1 15 36
M  V30 40 1 16 37 CFG=3
M  V30 41 1 17 38
M  V30 42 1 17 39
M  V30 43 1 19 40
M  V30 44 1 20 41
M  V30 45 1 21 42
M  V30 46 1 22 43
M  V30 47 1 23 44
M  V30 48 1 24 45
M  V30 49 1 25 46
M  V30 END BOND
M  V30 END CTAB
M  END
>  <Dataset>  (815) 
ChEMBL_Kinases

>  <Ligand_Instance>  (815) 
nan

>  <PDB_ID>  (815) 
nan

>  <Standardized_SMILES>  (815) 
Cc1n[nH]c2ccc(-c3cncc(OC[C@@H](N)c4ccccc4)c3)cc12

>  <Name>  (815) 
nan

>  <Pocket>  (815) 
nan

>  <ATP_Site>  (815) 
nan

>  <Peripheral>  (815) 
nan

>  <Num_H_Atoms_ProtBoundConf>  (815) 
nan

>  <Num_Resolved_Atoms>  (815) 
nan

>  <Num_Not_Resolved_Atoms>  (815) 
nan

$$$$
CHEMBL378843
     RDKit          3D

  0  0  0  0  0  0  0  0  0  0999 V3000
M  V30 BEGIN CTAB
M  V30 COUNTS 59 64 0 0 0
M  V30 BEGIN ATOM
M  V30 1 N 1.596793 -4.690777 3.097335 0
M  V30 2 C 2.142682 -4.543538 1.730386 0 CFG=2
M  V30 3 C 2.444337 -3.098072 1.551100 0
M  V30 4 O 1.316025 -2.270248 1.714999 0
M  V30 5 C 1.362339 -0.892331 1.591215 0
M  V30 6 C 2.423094 -0.060491 1.309613 0
M  V30 7 N 2.272964 1.273703 1.226351 0
M  V30 8 C 1.076735 1.875613 1.413711 0
M  V30 9 C 0.874591 3.314493 1.332429 0
M  V30 10 C 0.631202 3.930547 0.117959 0
M  V30 11 C 0.476597 5.283632 0.308650 0
M  V30 12 C 0.635606 5.453216 1.672816 0
M  V30 13 O 0.863507 4.290563 2.225941 0
M  V30 14 C -0.027240 1.125858 1.697402 0
M  V30 15 C -1.394770 1.648102 1.910397 0
M  V30 16 C -1.873402 2.537280 2.852096 0
M  V30 17 C -3.212072 2.862296 2.833694 0
M  V30 18 C -4.039883 2.300317 1.886313 0
M  V30 19 C -5.376776 2.655868 1.908503 0
M  V30 20 N -6.259369 2.146331 1.011639 0
M  V30 21 C -5.811652 1.270728 0.077953 0
M  V30 22 C -4.488825 0.885926 0.014916 0
M  V30 23 C -3.593723 1.410921 0.934145 0
M  V30 24 C -2.250552 1.084898 0.952483 0
M  V30 25 C 0.125036 -0.266037 1.785307 0
M  V30 26 C 1.179243 -5.168770 0.796906 0
M  V30 27 C 1.550725 -5.141132 -0.632376 0
M  V30 28 C 2.173354 -6.256668 -1.210398 0
M  V30 29 N 2.460752 -6.031057 -2.503572 0
M  V30 30 C 2.052159 -4.792646 -2.828110 0
M  V30 31 C 2.043295 -3.985173 -3.952158 0
M  V30 32 C 1.512808 -2.713363 -3.942225 0
M  V30 33 C 0.957384 -2.199023 -2.763891 0
M  V30 34 C 0.976481 -3.010231 -1.669689 0
M  V30 35 C 1.507932 -4.270621 -1.696267 0
M  V30 36 H 0.633870 -5.033816 3.070254 0
M  V30 37 H 1.737388 -3.834387 3.668060 0
M  V30 38 H 3.057297 -5.181885 1.740735 0
M  V30 39 H 3.140325 -2.806575 2.381381 0
M  V30 40 H 2.982209 -2.870236 0.612220 0
M  V30 41 H 3.354072 -0.589876 1.170069 0
M  V30 42 H 0.536261 3.600351 -0.928418 0
M  V30 43 H 0.282766 6.209881 -0.215183 0
M  V30 44 H 0.640312 6.215125 2.468159 0
M  V30 45 H -1.086979 2.873076 3.510958 0
M  V30 46 H -3.504661 3.564322 3.602384 0
M  V30 47 H -5.734360 3.356309 2.654666 0
M  V30 48 H -6.460075 0.816124 -0.679326 0
M  V30 49 H -4.105610 0.178187 -0.735167 0
M  V30 50 H -1.986038 0.382095 0.172631 0
M  V30 51 H -0.776166 -0.858338 2.013808 0
M  V30 52 H 0.981636 -6.210113 1.129122 0
M  V30 53 H 0.193317 -4.628494 0.955412 0
M  V30 54 H 2.423976 -7.203521 -0.754794 0
M  V30 55 H 2.918210 -6.651426 -3.203564 0
M  V30 56 H 2.473447 -4.385116 -4.863209 0
M  V30 57 H 1.538177 -2.129232 -4.863778 0
M  V30 58 H 0.570139 -1.207719 -2.855425 0
M  V30 59 H 0.531981 -2.579788 -0.797018 0
M  V30 END ATOM
M  V30 BEGIN BOND
M  V30 1 1 1 2
M  V30 2 1 2 3
M  V30 3 1 3 4
M  V30 4 1 4 5
M  V30 5 2 5 6
M  V30 6 1 6 7
M  V30 7 2 7 8
M  V30 8 1 8 9
M  V30 9 2 9 10
M  V30 10 1 10 11
M  V30 11 2 11 12
M  V30 12 1 12 13
M  V30 13 1 8 14
M  V30 14 1 14 15
M  V30 15 2 15 16
M  V30 16 1 16 17
M  V30 17 2 17 18
M  V30 18 1 18 19
M  V30 19 2 19 20
M  V30 20 1 20 21
M  V30 21 2 21 22
M  V30 22 1 22 23
M  V30 23 2 23 24
M  V30 24 2 14 25
M  V30 25 1 2 26
M  V30 26 1 26 27
M  V30 27 2 27 28
M  V30 28 1 28 29
M  V30 29 1 29 30
M  V30 30 2 30 31
M  V30 31 1 31 32
M  V30 32 2 32 33
M  V30 33 1 33 34
M  V30 34 2 34 35
M  V30 35 1 25 5
M  V30 36 1 35 27
M  V30 37 1 13 9
M  V30 38 1 24 15
M  V30 39 1 35 30
M  V30 40 1 23 18
M  V30 41 1 1 36
M  V30 42 1 1 37
M  V30 43 1 2 38 CFG=1
M  V30 44 1 3 39
M  V30 45 1 3 40
M  V30 46 1 6 41
M  V30 47 1 10 42
M  V30 48 1 11 43
M  V30 49 1 12 44
M  V30 50 1 16 45
M  V30 51 1 17 46
M  V30 52 1 19 47
M  V30 53 1 21 48
M  V30 54 1 22 49
M  V30 55 1 24 50
M  V30 56 1 25 51
M  V30 57 1 26 52
M  V30 58 1 26 53
M  V30 59 1 28 54
M  V30 60 1 29 55
M  V30 61 1 31 56
M  V30 62 1 32 57
M  V30 63 1 33 58
M  V30 64 1 34 59
M  V30 END BOND
M  V30 END CTAB
M  END
>  <Dataset>  (816) 
ChEMBL_Kinases

>  <Ligand_Instance>  (816) 
nan

>  <PDB_ID>  (816) 
nan

>  <Standardized_SMILES>  (816) 
N[C@H](COc1cnc(-c2ccco2)c(-c2ccc3cnccc3c2)c1)Cc1c[nH]c2ccccc12

>  <Name>  (816) 
nan

>  <Pocket>  (816) 
nan

>  <ATP_Site>  (816) 
nan

>  <Peripheral>  (816) 
nan

>  <Num_H_Atoms_ProtBoundConf>  (816) 
nan

>  <Num_Resolved_Atoms>  (816) 
nan

>  <Num_Not_Resolved_Atoms>  (816) 
nan

$$$$
CHEMBL378833
     RDKit          3D

  0  0  0  0  0  0  0  0  0  0999 V3000
M  V30 BEGIN CTAB
M  V30 COUNTS 45 47 0 0 0
M  V30 BEGIN ATOM
M  V30 1 N -0.231614 -2.136006 1.348806 0
M  V30 2 C 0.600192 -1.461960 2.274299 0
M  V30 3 N 1.857535 -1.335722 2.205640 0
M  V30 4 C 2.634791 -1.911096 1.089244 0
M  V30 5 C 2.464756 -0.979514 -0.058683 0
M  V30 6 C 3.188248 -1.388077 -1.315823 0
M  V30 7 C 2.595145 -0.493773 -2.411728 0
M  V30 8 C 2.884755 0.961030 -2.118103 0
M  V30 9 C 2.473546 1.361483 -0.737972 0
M  V30 10 C 2.983274 0.393643 0.309286 0
M  V30 11 C -0.219484 -0.934575 3.321403 0
M  V30 12 C 0.398761 -0.253969 4.305335 0
M  V30 13 O 1.754369 0.071705 4.544700 0
M  V30 14 N -0.158240 0.397185 5.497159 0
M  V30 15 S -1.914147 -0.070001 5.112077 0
M  V30 16 C -1.572573 -0.907342 3.661225 0
M  V30 17 N -2.497425 -1.571737 2.772165 0
M  V30 18 C -3.075010 -0.853713 1.682264 0
M  V30 19 C -2.729341 0.470741 1.535870 0
M  V30 20 C -3.272181 1.179029 0.492613 0
M  V30 21 Cl -2.790364 2.865135 0.362303 0
M  V30 22 C -4.140701 0.533035 -0.364265 0
M  V30 23 C -4.454333 -0.781532 -0.179888 0
M  V30 24 Cl -5.573108 -1.526049 -1.324082 0
M  V30 25 C -3.934051 -1.527827 0.850969 0
M  V30 26 H -0.632516 -3.068502 1.637755 0
M  V30 27 H -0.713313 -3.065236 1.464660 0
M  V30 28 H 3.687325 -2.015724 1.365198 0
M  V30 29 H 2.249549 -2.916851 0.850851 0
M  V30 30 H 1.387931 -0.867408 -0.310976 0
M  V30 31 H 2.979223 -2.425658 -1.635520 0
M  V30 32 H 4.276681 -1.263760 -1.270242 0
M  V30 33 H 1.487426 -0.624974 -2.294753 0
M  V30 34 H 2.969290 -0.738335 -3.410311 0
M  V30 35 H 2.299478 1.562691 -2.845811 0
M  V30 36 H 3.945616 1.219980 -2.289405 0
M  V30 37 H 2.852026 2.387533 -0.563575 0
M  V30 38 H 1.360617 1.370989 -0.651922 0
M  V30 39 H 2.592137 0.657884 1.293079 0
M  V30 40 H 4.107124 0.429222 0.312871 0
M  V30 41 H 2.144303 0.911858 4.153440 0
M  V30 42 H -2.680464 -2.561624 3.001419 0
M  V30 43 H -2.033981 0.938463 2.244553 0
M  V30 44 H -4.519185 1.173058 -1.159271 0
M  V30 45 H -4.203234 -2.576702 0.973295 0
M  V30 END ATOM
M  V30 BEGIN BOND
M  V30 1 1 1 2
M  V30 2 2 2 3
M  V30 3 1 3 4
M  V30 4 1 4 5
M  V30 5 1 5 6
M  V30 6 1 6 7
M  V30 7 1 7 8
M  V30 8 1 8 9
M  V30 9 1 9 10
M  V30 10 1 2 11
M  V30 11 1 11 12
M  V30 12 1 12 13
M  V30 13 2 12 14
M  V30 14 1 14 15
M  V30 15 1 15 16
M  V30 16 1 16 17
M  V30 17 1 17 18
M  V30 18 2 18 19
M  V30 19 1 19 20
M  V30 20 1 20 21
M  V30 21 2 20 22
M  V30 22 1 22 23
M  V30 23 1 23 24
M  V30 24 2 23 25
M  V30 25 1 10 5
M  V30 26 2 16 11
M  V30 27 1 25 18
M  V30 28 1 1 26
M  V30 29 1 1 27
M  V30 30 1 4 28
M  V30 31 1 4 29
M  V30 32 1 5 30
M  V30 33 1 6 31
M  V30 34 1 6 32
M  V30 35 1 7 33
M  V30 36 1 7 34
M  V30 37 1 8 35
M  V30 38 1 8 36
M  V30 39 1 9 37
M  V30 40 1 9 38
M  V30 41 1 10 39
M  V30 42 1 10 40
M  V30 43 1 13 41
M  V30 44 1 17 42
M  V30 45 1 19 43
M  V30 46 1 22 44
M  V30 47 1 25 45
M  V30 END BOND
M  V30 END CTAB
M  END
>  <Dataset>  (817) 
ChEMBL_Kinases

>  <Ligand_Instance>  (817) 
nan

>  <PDB_ID>  (817) 
nan

>  <Standardized_SMILES>  (817) 
N/C(=N\CC1CCCCC1)c1c(O)nsc1Nc1cc(Cl)cc(Cl)c1

>  <Name>  (817) 
nan

>  <Pocket>  (817) 
nan

>  <ATP_Site>  (817) 
nan

>  <Peripheral>  (817) 
nan

>  <Num_H_Atoms_ProtBoundConf>  (817) 
nan

>  <Num_Resolved_Atoms>  (817) 
nan

>  <Num_Not_Resolved_Atoms>  (817) 
nan

$$$$
CHEMBL378827
     RDKit          3D

  0  0  0  0  0  0  0  0  0  0999 V3000
M  V30 BEGIN CTAB
M  V30 COUNTS 71 76 0 0 0
M  V30 BEGIN ATOM
M  V30 1 C 2.537252 4.223810 0.017684 0
M  V30 2 C 2.074308 4.757539 -1.318484 0
M  V30 3 C 2.439501 6.295309 -1.186425 0
M  V30 4 C 2.954664 4.248443 -2.395702 0
M  V30 5 C 3.107823 2.777120 -2.554028 0
M  V30 6 C 4.029148 2.396778 -3.709186 0
M  V30 7 C 4.546422 2.211937 -2.354779 0
M  V30 8 C 0.610610 4.782567 -1.524172 0
M  V30 9 C 0.049161 5.676924 -0.443315 0
M  V30 10 O 0.172770 6.922175 -0.215430 0
M  V30 11 N -0.774909 4.932506 0.474679 0
M  V30 12 C -0.873431 3.623780 -0.125665 0
M  V30 13 C -1.679532 2.605319 0.390164 0
M  V30 14 C -1.805293 1.430153 -0.307892 0
M  V30 15 C -1.135574 1.277914 -1.501911 0
M  V30 16 C -1.264447 0.038391 -2.242062 0
M  V30 17 C -1.202133 -0.035428 -3.620447 0
M  V30 18 N -1.325434 -1.208757 -4.263982 0
M  V30 19 C -1.514566 -2.382670 -3.648180 0
M  V30 20 C -1.588262 -2.393262 -2.265294 0
M  V30 21 O -1.774308 -3.459400 -1.425388 0
M  V30 22 C -1.931174 -4.801451 -1.846257 0
M  V30 23 C -2.101399 -5.602028 -0.544862 0 CFG=1
M  V30 24 N -2.272284 -6.999615 -0.809511 0
M  V30 25 C -0.842610 -5.310996 0.244883 0
M  V30 26 C -0.785309 -5.981877 1.548323 0
M  V30 27 C -0.041632 -7.092627 1.898671 0
M  V30 28 N -0.261146 -7.408358 3.202965 0
M  V30 29 C -1.138337 -6.503692 3.676225 0
M  V30 30 C -1.676542 -6.402210 4.958598 0
M  V30 31 C -2.579921 -5.364974 5.215084 0
M  V30 32 C -2.919380 -4.474343 4.215697 0
M  V30 33 C -2.378377 -4.586666 2.949409 0
M  V30 34 C -1.484936 -5.606359 2.682168 0
M  V30 35 C -1.461579 -1.182327 -1.593617 0
M  V30 36 C -0.367804 2.336501 -1.921713 0
M  V30 37 C -0.152192 3.558823 -1.326437 0
M  V30 38 H 2.045612 3.257838 0.262369 0
M  V30 39 H 3.629267 4.085623 -0.034886 0
M  V30 40 H 2.315988 4.937573 0.818567 0
M  V30 41 H 1.786228 6.850531 -1.876263 0
M  V30 42 H 2.419428 6.596585 -0.137424 0
M  V30 43 H 3.472742 6.357322 -1.541635 0
M  V30 44 H 2.695107 4.749497 -3.386943 0
M  V30 45 H 3.986501 4.677422 -2.195690 0
M  V30 46 H 2.369507 2.042301 -2.239656 0
M  V30 47 H 4.495647 3.191605 -4.320597 0
M  V30 48 H 3.661316 1.561540 -4.332284 0
M  V30 49 H 4.653614 1.244001 -1.843374 0
M  V30 50 H 5.301178 2.961267 -1.979337 0
M  V30 51 H 0.383601 5.307608 -2.475936 0
M  V30 52 H -1.198542 5.266729 1.365266 0
M  V30 53 H -2.223079 2.673014 1.316381 0
M  V30 54 H -2.418013 0.639165 0.071374 0
M  V30 55 H -1.050470 0.872007 -4.198107 0
M  V30 56 H -1.619095 -3.344939 -4.104264 0
M  V30 57 H -0.978833 -5.088721 -2.314972 0
M  V30 58 H -2.819414 -4.904004 -2.486977 0
M  V30 59 H -3.022917 -5.213169 -0.075159 0
M  V30 60 H -1.453765 -7.573270 -0.555739 0
M  V30 61 H -2.436690 -7.105740 -1.835879 0
M  V30 62 H -0.006461 -5.710959 -0.402193 0
M  V30 63 H -0.682808 -4.226212 0.263060 0
M  V30 64 H 0.629854 -7.664258 1.272717 0
M  V30 65 H 0.156698 -8.193222 3.751108 0
M  V30 66 H -1.451988 -7.065887 5.782953 0
M  V30 67 H -3.031402 -5.236469 6.195445 0
M  V30 68 H -3.615954 -3.670366 4.403443 0
M  V30 69 H -2.610741 -3.922808 2.145417 0
M  V30 70 H -1.506779 -1.092503 -0.498856 0
M  V30 71 H 0.120092 2.152407 -2.875686 0
M  V30 END ATOM
M  V30 BEGIN BOND
M  V30 1 1 1 2
M  V30 2 1 2 3
M  V30 3 1 2 4
M  V30 4 1 4 5
M  V30 5 1 5 6
M  V30 6 1 6 7
M  V30 7 1 2 8
M  V30 8 1 8 9
M  V30 9 2 9 10
M  V30 10 1 9 11
M  V30 11 1 11 12
M  V30 12 2 12 13
M  V30 13 1 13 14
M  V30 14 2 14 15
M  V30 15 1 15 16
M  V30 16 2 16 17
M  V30 17 1 17 18
M  V30 18 2 18 19
M  V30 19 1 19 20
M  V30 20 1 20 21
M  V30 21 1 21 22
M  V30 22 1 22 23
M  V30 23 1 23 24
M  V30 24 1 23 25
M  V30 25 1 25 26
M  V30 26 2 26 27
M  V30 27 1 27 28
M  V30 28 1 28 29
M  V30 29 2 29 30
M  V30 30 1 30 31
M  V30 31 2 31 32
M  V30 32 1 32 33
M  V30 33 2 33 34
M  V30 34 2 20 35
M  V30 35 1 15 36
M  V30 36 2 36 37
M  V30 37 1 7 5
M  V30 38 1 37 8
M  V30 39 1 37 12
M  V30 40 1 35 16
M  V30 41 1 34 26
M  V30 42 1 34 29
M  V30 43 1 1 38
M  V30 44 1 1 39
M  V30 45 1 1 40
M  V30 46 1 3 41
M  V30 47 1 3 42
M  V30 48 1 3 43
M  V30 49 1 4 44
M  V30 50 1 4 45
M  V30 51 1 5 46
M  V30 52 1 6 47
M  V30 53 1 6 48
M  V30 54 1 7 49
M  V30 55 1 7 50
M  V30 56 1 8 51
M  V30 57 1 11 52
M  V30 58 1 13 53
M  V30 59 1 14 54
M  V30 60 1 17 55
M  V30 61 1 19 56
M  V30 62 1 22 57
M  V30 63 1 22 58
M  V30 64 1 23 59 CFG=1
M  V30 65 1 24 60
M  V30 66 1 24 61
M  V30 67 1 25 62
M  V30 68 1 25 63
M  V30 69 1 27 64
M  V30 70 1 28 65
M  V30 71 1 30 66
M  V30 72 1 31 67
M  V30 73 1 32 68
M  V30 74 1 33 69
M  V30 75 1 35 70
M  V30 76 1 36 71
M  V30 END BOND
M  V30 END CTAB
M  END
>  <Dataset>  (818) 
ChEMBL_Kinases

>  <Ligand_Instance>  (818) 
nan

>  <PDB_ID>  (818) 
nan

>  <Standardized_SMILES>  (818) 
CC(C)(CC1CC1)C1C(=O)Nc2ccc(-c3cncc(OC[C@@H](N)Cc4c[nH]c5ccccc45)c3)cc21

>  <Name>  (818) 
nan

>  <Pocket>  (818) 
nan

>  <ATP_Site>  (818) 
nan

>  <Peripheral>  (818) 
nan

>  <Num_H_Atoms_ProtBoundConf>  (818) 
nan

>  <Num_Resolved_Atoms>  (818) 
nan

>  <Num_Not_Resolved_Atoms>  (818) 
nan

$$$$
CHEMBL378823
     RDKit          3D

  0  0  0  0  0  0  0  0  0  0999 V3000
M  V30 BEGIN CTAB
M  V30 COUNTS 61 65 0 0 0
M  V30 BEGIN ATOM
M  V30 1 N 4.482379 -2.691967 -1.185428 0
M  V30 2 C 3.172158 -3.071969 -0.630619 0 CFG=2
M  V30 3 C 3.441264 -3.463705 0.804671 0
M  V30 4 O 4.005728 -2.419015 1.501165 0
M  V30 5 C 3.459535 -1.226134 1.776250 0
M  V30 6 C 4.502278 -0.570104 2.475109 0
M  V30 7 N 4.408010 0.703602 2.968763 0
M  V30 8 C 3.257833 1.411368 2.796162 0
M  V30 9 C 2.230098 0.798129 2.122365 0
M  V30 10 C 0.950573 1.440966 1.867663 0
M  V30 11 C 0.664446 2.670855 2.220542 0
M  V30 12 C -0.553729 3.424085 2.032972 0
M  V30 13 C -0.698934 4.737307 2.425718 0
M  V30 14 C -1.865430 5.435224 2.250185 0
M  V30 15 N -2.907204 4.815979 1.673680 0
M  V30 16 C -2.826091 3.533157 1.269057 0
M  V30 17 O -4.033118 3.153771 0.716472 0
M  V30 18 C -4.281085 1.896159 0.222167 0
M  V30 19 C -4.794086 1.101514 1.250843 0
M  V30 20 C -5.141606 -0.232614 1.040561 0
M  V30 21 C -4.958001 -0.741788 -0.231677 0
M  V30 22 C -4.445671 0.039268 -1.272270 0
M  V30 23 C -4.113149 1.353273 -1.028710 0
M  V30 24 C -1.649415 2.841761 1.449929 0
M  V30 25 C 2.320485 -0.479623 1.625538 0
M  V30 26 C 2.608340 -4.240043 -1.419872 0
M  V30 27 C 1.296175 -4.690581 -0.944831 0
M  V30 28 C 0.942926 -5.794746 -0.170452 0
M  V30 29 N -0.385698 -5.731112 -0.034788 0
M  V30 30 C -0.896849 -4.665658 -0.668235 0
M  V30 31 C -2.178295 -4.177722 -0.823196 0
M  V30 32 C -2.374028 -3.041462 -1.549736 0
M  V30 33 C -1.369792 -2.305318 -2.168434 0
M  V30 34 C -0.106533 -2.820015 -1.993389 0
M  V30 35 C 0.155165 -3.969830 -1.266817 0
M  V30 36 H 4.410500 -2.652057 -2.215852 0
M  V30 37 H 5.166333 -3.450442 -0.948936 0
M  V30 38 H 2.516118 -2.208383 -0.658685 0
M  V30 39 H 2.424105 -3.644822 1.254680 0
M  V30 40 H 4.043023 -4.404148 0.854095 0
M  V30 41 H 5.528902 -0.877202 2.765222 0
M  V30 42 H 3.170788 2.413402 3.179266 0
M  V30 43 H 0.114056 0.978006 1.368117 0
M  V30 44 H 1.444049 3.248645 2.739682 0
M  V30 45 H 0.149168 5.233511 2.892894 0
M  V30 46 H -1.878578 6.479907 2.598500 0
M  V30 47 H -4.985376 1.383348 2.293633 0
M  V30 48 H -5.541523 -0.893309 1.795606 0
M  V30 49 H -5.229122 -1.794382 -0.411384 0
M  V30 50 H -4.300367 -0.341697 -2.253358 0
M  V30 51 H -3.716279 2.056555 -1.722675 0
M  V30 52 H -1.703563 1.826557 1.087657 0
M  V30 53 H 1.590991 -1.065345 1.099647 0
M  V30 54 H 3.369164 -5.020525 -1.439466 0
M  V30 55 H 2.528683 -3.850785 -2.477013 0
M  V30 56 H 1.666798 -6.497599 0.195690 0
M  V30 57 H -0.930579 -6.443127 0.506708 0
M  V30 58 H -2.986182 -4.725562 -0.354763 0
M  V30 59 H -3.388176 -2.722308 -1.630937 0
M  V30 60 H -1.546568 -1.413776 -2.735190 0
M  V30 61 H 0.737141 -2.298090 -2.449062 0
M  V30 END ATOM
M  V30 BEGIN BOND
M  V30 1 1 1 2
M  V30 2 1 2 3
M  V30 3 1 3 4
M  V30 4 1 4 5
M  V30 5 2 5 6
M  V30 6 1 6 7
M  V30 7 2 7 8
M  V30 8 1 8 9
M  V30 9 1 9 10
M  V30 10 2 10 11
M  V30 11 1 11 12
M  V30 12 2 12 13
M  V30 13 1 13 14
M  V30 14 2 14 15
M  V30 15 1 15 16
M  V30 16 1 16 17
M  V30 17 1 17 18
M  V30 18 2 18 19
M  V30 19 1 19 20
M  V30 20 2 20 21
M  V30 21 1 21 22
M  V30 22 2 22 23
M  V30 23 2 16 24
M  V30 24 2 9 25
M  V30 25 1 2 26
M  V30 26 1 26 27
M  V30 27 2 27 28
M  V30 28 1 28 29
M  V30 29 1 29 30
M  V30 30 2 30 31
M  V30 31 1 31 32
M  V30 32 2 32 33
M  V30 33 1 33 34
M  V30 34 2 34 35
M  V30 35 1 25 5
M  V30 36 1 35 27
M  V30 37 1 24 12
M  V30 38 1 35 30
M  V30 39 1 23 18
M  V30 40 1 1 36
M  V30 41 1 1 37
M  V30 42 1 2 38 CFG=1
M  V30 43 1 3 39
M  V30 44 1 3 40
M  V30 45 1 6 41
M  V30 46 1 8 42
M  V30 47 1 10 43
M  V30 48 1 11 44
M  V30 49 1 13 45
M  V30 50 1 14 46
M  V30 51 1 19 47
M  V30 52 1 20 48
M  V30 53 1 21 49
M  V30 54 1 22 50
M  V30 55 1 23 51
M  V30 56 1 24 52
M  V30 57 1 25 53
M  V30 58 1 26 54
M  V30 59 1 26 55
M  V30 60 1 28 56
M  V30 61 1 29 57
M  V30 62 1 31 58
M  V30 63 1 32 59
M  V30 64 1 33 60
M  V30 65 1 34 61
M  V30 END BOND
M  V30 END CTAB
M  END
>  <Dataset>  (819) 
ChEMBL_Kinases

>  <Ligand_Instance>  (819) 
nan

>  <PDB_ID>  (819) 
nan

>  <Standardized_SMILES>  (819) 
N[C@H](COc1cncc(/C=C/c2ccnc(Oc3ccccc3)c2)c1)Cc1c[nH]c2ccccc12

>  <Name>  (819) 
nan

>  <Pocket>  (819) 
nan

>  <ATP_Site>  (819) 
nan

>  <Peripheral>  (819) 
nan

>  <Num_H_Atoms_ProtBoundConf>  (819) 
nan

>  <Num_Resolved_Atoms>  (819) 
nan

>  <Num_Not_Resolved_Atoms>  (819) 
nan

$$$$
CHEMBL378800
     RDKit          3D

  0  0  0  0  0  0  0  0  0  0999 V3000
M  V30 BEGIN CTAB
M  V30 COUNTS 60 62 0 0 0
M  V30 BEGIN ATOM
M  V30 1 C 5.076170 -2.810452 2.895725 0
M  V30 2 C 5.099707 -2.393675 1.427161 0
M  V30 3 C 4.025638 -3.084351 0.621774 0
M  V30 4 C 4.129184 -2.603474 -0.804428 0
M  V30 5 C 2.708795 -2.925343 1.266924 0
M  V30 6 C 2.193154 -1.557391 1.445573 0
M  V30 7 O 1.100657 -1.826848 0.865690 0
M  V30 8 N 2.390600 -0.254054 1.930581 0
M  V30 9 C 1.263097 0.576228 1.662025 0
M  V30 10 C 1.184084 1.297318 0.499387 0
M  V30 11 C 0.066534 2.084714 0.293798 0
M  V30 12 O -0.138902 2.859014 -0.830266 0
M  V30 13 C 0.749357 2.952998 -1.908669 0
M  V30 14 C -0.904827 2.094598 1.278938 0
M  V30 15 N -2.113152 2.876473 1.175947 0
M  V30 16 C -3.208929 2.222437 0.563658 0
M  V30 17 O -2.978724 1.038023 0.189203 0
M  V30 18 N -4.460385 2.822920 0.377261 0
M  V30 19 C -5.504431 2.086220 -0.249295 0
M  V30 20 C -6.333207 1.342401 0.554696 0
M  V30 21 N -7.340324 0.622060 0.027883 0
M  V30 22 C -7.589649 0.589882 -1.299483 0
M  V30 23 C -8.675115 -0.192031 -1.820249 0
M  V30 24 N -9.550099 -0.833985 -2.226478 0
M  V30 25 C -6.751459 1.341667 -2.108626 0
M  V30 26 N -5.756165 2.051829 -1.574239 0
M  V30 27 C -0.817336 1.363646 2.449878 0
M  V30 28 C 0.298755 0.573481 2.661684 0
M  V30 29 Cl 0.450694 -0.368350 4.129418 0
M  V30 30 C 1.624953 -3.709336 0.585576 0
M  V30 31 C 1.129270 -3.471000 -0.670513 0
M  V30 32 C 0.145438 -4.195098 -1.275054 0
M  V30 33 C -0.421752 -5.257481 -0.605979 0
M  V30 34 C -0.000239 -5.579140 0.650055 0
M  V30 35 C 0.995991 -4.804356 1.196570 0
M  V30 36 H 4.588237 -2.012551 3.478916 0
M  V30 37 H 4.654219 -3.814573 3.024949 0
M  V30 38 H 6.131213 -2.868779 3.293403 0
M  V30 39 H 6.072550 -2.843423 1.036735 0
M  V30 40 H 5.145032 -1.317917 1.273495 0
M  V30 41 H 4.279092 -4.179456 0.691454 0
M  V30 42 H 3.761223 -3.416731 -1.460225 0
M  V30 43 H 3.643169 -1.645463 -0.963718 0
M  V30 44 H 5.220560 -2.434383 -0.983713 0
M  V30 45 H 2.801199 -3.449740 2.271638 0
M  V30 46 H 3.343945 -0.319706 2.354930 0
M  V30 47 H 1.937237 1.277795 -0.243958 0
M  V30 48 H 0.141072 3.243589 -2.797856 0
M  V30 49 H 1.284578 2.016991 -2.121108 0
M  V30 50 H 1.424558 3.811940 -1.722950 0
M  V30 51 H -2.212433 3.876232 1.523498 0
M  V30 52 H -4.579923 3.798897 0.709099 0
M  V30 53 H -6.239313 1.285421 1.621315 0
M  V30 54 H -6.947457 1.317751 -3.163619 0
M  V30 55 H -1.580149 1.375288 3.216984 0
M  V30 56 H 1.516356 -2.666308 -1.247490 0
M  V30 57 H -0.216271 -3.977137 -2.261299 0
M  V30 58 H -1.198610 -5.851323 -1.048391 0
M  V30 59 H -0.418713 -6.395377 1.194802 0
M  V30 60 H 1.317921 -5.085546 2.211854 0
M  V30 END ATOM
M  V30 BEGIN BOND
M  V30 1 1 1 2
M  V30 2 1 2 3
M  V30 3 1 3 4
M  V30 4 1 3 5
M  V30 5 1 5 6
M  V30 6 2 6 7
M  V30 7 1 6 8
M  V30 8 1 8 9
M  V30 9 2 9 10
M  V30 10 1 10 11
M  V30 11 1 11 12
M  V30 12 1 12 13
M  V30 13 2 11 14
M  V30 14 1 14 15
M  V30 15 1 15 16
M  V30 16 2 16 17
M  V30 17 1 16 18
M  V30 18 1 18 19
M  V30 19 2 19 20
M  V30 20 1 20 21
M  V30 21 2 21 22
M  V30 22 1 22 23
M  V30 23 3 23 24
M  V30 24 1 22 25
M  V30 25 2 25 26
M  V30 26 1 14 27
M  V30 27 2 27 28
M  V30 28 1 28 29
M  V30 29 1 5 30
M  V30 30 2 30 31
M  V30 31 1 31 32
M  V30 32 2 32 33
M  V30 33 1 33 34
M  V30 34 2 34 35
M  V30 35 1 28 9
M  V30 36 1 35 30
M  V30 37 1 26 19
M  V30 38 1 1 36
M  V30 39 1 1 37
M  V30 40 1 1 38
M  V30 41 1 2 39
M  V30 42 1 2 40
M  V30 43 1 3 41
M  V30 44 1 4 42
M  V30 45 1 4 43
M  V30 46 1 4 44
M  V30 47 1 5 45
M  V30 48 1 8 46
M  V30 49 1 10 47
M  V30 50 1 13 48
M  V30 51 1 13 49
M  V30 52 1 13 50
M  V30 53 1 15 51
M  V30 54 1 18 52
M  V30 55 1 20 53
M  V30 56 1 25 54
M  V30 57 1 27 55
M  V30 58 1 31 56
M  V30 59 1 32 57
M  V30 60 1 33 58
M  V30 61 1 34 59
M  V30 62 1 35 60
M  V30 END BOND
M  V30 END CTAB
M  END
>  <Dataset>  (820) 
ChEMBL_Kinases

>  <Ligand_Instance>  (820) 
nan

>  <PDB_ID>  (820) 
nan

>  <Standardized_SMILES>  (820) 
CCC(C)C(C(=O)Nc1cc(OC)c(NC(=O)Nc2cnc(C#N)cn2)cc1Cl)c1ccccc1

>  <Name>  (820) 
nan

>  <Pocket>  (820) 
nan

>  <ATP_Site>  (820) 
nan

>  <Peripheral>  (820) 
nan

>  <Num_H_Atoms_ProtBoundConf>  (820) 
nan

>  <Num_Resolved_Atoms>  (820) 
nan

>  <Num_Not_Resolved_Atoms>  (820) 
nan

$$$$
CHEMBL378783
     RDKit          3D

  0  0  0  0  0  0  0  0  0  0999 V3000
M  V30 BEGIN CTAB
M  V30 COUNTS 57 58 0 0 0
M  V30 BEGIN ATOM
M  V30 1 C 0.340669 -4.464183 3.362704 0
M  V30 2 C -0.606923 -3.660169 2.461623 0
M  V30 3 C -1.949840 -4.289982 2.622800 0
M  V30 4 C -0.019572 -3.655788 1.111652 0
M  V30 5 C 1.346909 -3.024227 1.118336 0
M  V30 6 C 1.415805 -1.645980 1.582855 0
M  V30 7 O 1.069289 -1.132158 2.680963 0
M  V30 8 O 1.906291 -0.569905 0.854915 0
M  V30 9 C 1.881634 0.693514 1.499141 0
M  V30 10 C 2.418576 1.778488 0.608844 0
M  V30 11 C 3.800206 1.493139 0.119726 0
M  V30 12 O 3.883562 0.298326 -0.592174 0
M  V30 13 C 1.447963 2.064995 -0.518822 0
M  V30 14 C 0.337060 2.718986 0.216939 0
M  V30 15 C -0.934218 2.700594 -0.135437 0
M  V30 16 C -1.501291 2.042837 -1.303316 0
M  V30 17 C -2.751851 1.462956 -1.070687 0
M  V30 18 C -3.485413 0.789518 -2.015610 0
M  V30 19 C -2.927805 0.688367 -3.286582 0
M  V30 20 C -1.690235 1.249517 -3.558658 0
M  V30 21 C -1.000049 1.914672 -2.567249 0
M  V30 22 C 0.999899 3.335637 1.350595 0
M  V30 23 O 0.415054 4.063693 2.216495 0
M  V30 24 O 2.366478 2.997123 1.324755 0
M  V30 25 C -0.806025 -3.088128 -0.015424 0
M  V30 26 C -2.121828 -3.757816 -0.300034 0
M  V30 27 C -0.989957 -1.608847 -0.017111 0
M  V30 28 H 0.808288 -5.315832 2.838169 0
M  V30 29 H 1.083020 -3.791270 3.867014 0
M  V30 30 H -0.236239 -4.919179 4.219207 0
M  V30 31 H -0.680976 -2.649378 2.920390 0
M  V30 32 H -1.974699 -5.391515 2.400555 0
M  V30 33 H -2.797558 -3.729069 2.211780 0
M  V30 34 H -2.144479 -4.279309 3.741890 0
M  V30 35 H 0.129224 -4.750754 0.833142 0
M  V30 36 H 1.805646 -3.028873 0.086314 0
M  V30 37 H 2.037605 -3.661854 1.712696 0
M  V30 38 H 0.896664 1.003047 1.856845 0
M  V30 39 H 2.553831 0.663269 2.394485 0
M  V30 40 H 4.160869 2.319489 -0.515184 0
M  V30 41 H 4.472244 1.450870 0.999987 0
M  V30 42 H 3.131674 0.161355 -1.194164 0
M  V30 43 H 1.046440 1.140996 -0.965571 0
M  V30 44 H 1.894963 2.667805 -1.308031 0
M  V30 45 H -1.554432 3.243489 0.551311 0
M  V30 46 H -3.251602 1.505000 -0.092793 0
M  V30 47 H -4.445153 0.343690 -1.832698 0
M  V30 48 H -3.466840 0.169629 -4.057281 0
M  V30 49 H -1.240392 1.179689 -4.544930 0
M  V30 50 H -0.031166 2.379402 -2.704260 0
M  V30 51 H -0.168504 -3.296279 -0.934008 0
M  V30 52 H -2.256605 -3.906846 -1.415083 0
M  V30 53 H -2.250851 -4.751526 0.119641 0
M  V30 54 H -2.955271 -3.036461 -0.067677 0
M  V30 55 H -0.295995 -1.066707 -0.710784 0
M  V30 56 H -2.006752 -1.391383 -0.462912 0
M  V30 57 H -1.045325 -1.170429 0.991799 0
M  V30 END ATOM
M  V30 BEGIN BOND
M  V30 1 1 1 2
M  V30 2 1 2 3
M  V30 3 1 2 4
M  V30 4 1 4 5
M  V30 5 1 5 6
M  V30 6 2 6 7
M  V30 7 1 6 8
M  V30 8 1 8 9
M  V30 9 1 9 10
M  V30 10 1 10 11
M  V30 11 1 11 12
M  V30 12 1 10 13
M  V30 13 1 13 14
M  V30 14 2 14 15
M  V30 15 1 15 16
M  V30 16 2 16 17
M  V30 17 1 17 18
M  V30 18 2 18 19
M  V30 19 1 19 20
M  V30 20 2 20 21
M  V30 21 1 14 22
M  V30 22 2 22 23
M  V30 23 1 22 24
M  V30 24 1 4 25
M  V30 25 1 25 26
M  V30 26 1 25 27
M  V30 27 1 24 10
M  V30 28 1 21 16
M  V30 29 1 1 28
M  V30 30 1 1 29
M  V30 31 1 1 30
M  V30 32 1 2 31
M  V30 33 1 3 32
M  V30 34 1 3 33
M  V30 35 1 3 34
M  V30 36 1 4 35
M  V30 37 1 5 36
M  V30 38 1 5 37
M  V30 39 1 9 38
M  V30 40 1 9 39
M  V30 41 1 11 40
M  V30 42 1 11 41
M  V30 43 1 12 42
M  V30 44 1 13 43
M  V30 45 1 13 44
M  V30 46 1 15 45
M  V30 47 1 17 46
M  V30 48 1 18 47
M  V30 49 1 19 48
M  V30 50 1 20 49
M  V30 51 1 21 50
M  V30 52 1 25 51
M  V30 53 1 26 52
M  V30 54 1 26 53
M  V30 55 1 26 54
M  V30 56 1 27 55
M  V30 57 1 27 56
M  V30 58 1 27 57
M  V30 END BOND
M  V30 END CTAB
M  END
>  <Dataset>  (821) 
ChEMBL_Kinases

>  <Ligand_Instance>  (821) 
nan

>  <PDB_ID>  (821) 
nan

>  <Standardized_SMILES>  (821) 
CC(C)C(CC(=O)OCC1(CO)C/C(=C\c2ccccc2)C(=O)O1)C(C)C

>  <Name>  (821) 
nan

>  <Pocket>  (821) 
nan

>  <ATP_Site>  (821) 
nan

>  <Peripheral>  (821) 
nan

>  <Num_H_Atoms_ProtBoundConf>  (821) 
nan

>  <Num_Resolved_Atoms>  (821) 
nan

>  <Num_Not_Resolved_Atoms>  (821) 
nan

$$$$
CHEMBL5074629
     RDKit          3D

  0  0  0  0  0  0  0  0  0  0999 V3000
M  V30 BEGIN CTAB
M  V30 COUNTS 48 52 0 0 0
M  V30 BEGIN ATOM
M  V30 1 N 2.782883 -6.503838 2.398531 0
M  V30 2 C 2.783157 -5.426253 1.959287 0
M  V30 3 C 2.808275 -4.055206 1.398450 0
M  V30 4 C 1.724103 -4.013534 0.361366 0
M  V30 5 N 1.608905 -2.758784 -0.286121 0
M  V30 6 C 2.654524 -2.372157 -1.122820 0
M  V30 7 C 2.782318 -0.952906 -1.500420 0
M  V30 8 C 2.149893 -0.038628 -0.506615 0
M  V30 9 C 1.945287 1.370570 -0.978416 0
M  V30 10 C 0.445886 1.592073 -0.697078 0
M  V30 11 N 0.192935 0.610612 0.385493 0
M  V30 12 C -0.307985 0.591960 1.716021 0
M  V30 13 N 0.666659 0.334952 2.624409 0
M  V30 14 C 0.451408 0.295484 3.944137 0
M  V30 15 N -0.802429 0.524014 4.388932 0
M  V30 16 C -1.830633 0.787321 3.544385 0
M  V30 17 N -3.145973 1.044922 3.664523 0
M  V30 18 C -3.695470 1.230415 2.447983 0
M  V30 19 C -4.973381 1.507259 2.051671 0
M  V30 20 C -5.283975 1.646205 0.713896 0
M  V30 21 Cl -6.930078 1.999642 0.248505 0
M  V30 22 C -4.261181 1.497011 -0.228740 0
M  V30 23 C -2.994673 1.222138 0.180990 0
M  V30 24 C -2.696857 1.087087 1.508324 0
M  V30 25 C -1.563709 0.817400 2.202318 0
M  V30 26 C 0.679696 -0.495873 -0.422369 0
M  V30 27 C 0.726572 -1.808596 0.276479 0
M  V30 28 H 3.810775 -3.910737 0.958525 0
M  V30 29 H 2.551754 -3.334129 2.177854 0
M  V30 30 H 1.947989 -4.811824 -0.405484 0
M  V30 31 H 0.757620 -4.291043 0.851914 0
M  V30 32 H 3.629063 -2.675882 -0.650178 0
M  V30 33 H 2.629517 -2.994676 -2.060049 0
M  V30 34 H 3.853548 -0.624384 -1.606100 0
M  V30 35 H 2.350830 -0.758394 -2.517468 0
M  V30 36 H 2.640447 -0.131439 0.468831 0
M  V30 37 H 2.121329 1.468053 -2.052399 0
M  V30 38 H 2.492715 2.109653 -0.345595 0
M  V30 39 H 0.216049 2.611484 -0.404598 0
M  V30 40 H -0.150647 1.302070 -1.578459 0
M  V30 41 H 1.256787 0.085490 4.651449 0
M  V30 42 H -3.630902 1.086451 4.588442 0
M  V30 43 H -5.727673 1.611278 2.843128 0
M  V30 44 H -4.602445 1.623663 -1.242670 0
M  V30 45 H -2.328951 1.128673 -0.634314 0
M  V30 46 H 0.290702 -0.528903 -1.440412 0
M  V30 47 H 1.014525 -1.630709 1.330669 0
M  V30 48 H -0.295163 -2.235198 0.288518 0
M  V30 END ATOM
M  V30 BEGIN BOND
M  V30 1 3 1 2
M  V30 2 1 2 3
M  V30 3 1 3 4
M  V30 4 1 4 5
M  V30 5 1 5 6
M  V30 6 1 6 7
M  V30 7 1 7 8
M  V30 8 1 8 9
M  V30 9 1 9 10
M  V30 10 1 10 11
M  V30 11 1 11 12
M  V30 12 2 12 13
M  V30 13 1 13 14
M  V30 14 2 14 15
M  V30 15 1 15 16
M  V30 16 1 16 17
M  V30 17 1 17 18
M  V30 18 2 18 19
M  V30 19 1 19 20
M  V30 20 1 20 21
M  V30 21 2 20 22
M  V30 22 1 22 23
M  V30 23 2 23 24
M  V30 24 1 24 25
M  V30 25 1 11 26
M  V30 26 1 26 27
M  V30 27 1 27 5
M  V30 28 1 26 8
M  V30 29 1 25 12
M  V30 30 2 25 16
M  V30 31 1 24 18
M  V30 32 1 3 28
M  V30 33 1 3 29
M  V30 34 1 4 30
M  V30 35 1 4 31
M  V30 36 1 6 32
M  V30 37 1 6 33
M  V30 38 1 7 34
M  V30 39 1 7 35
M  V30 40 1 8 36
M  V30 41 1 9 37
M  V30 42 1 9 38
M  V30 43 1 10 39
M  V30 44 1 10 40
M  V30 45 1 14 41
M  V30 46 1 17 42
M  V30 47 1 19 43
M  V30 48 1 22 44
M  V30 49 1 23 45
M  V30 50 1 26 46
M  V30 51 1 27 47
M  V30 52 1 27 48
M  V30 END BOND
M  V30 END CTAB
M  END
>  <Dataset>  (822) 
ChEMBL_Kinases

>  <Ligand_Instance>  (822) 
nan

>  <PDB_ID>  (822) 
nan

>  <Standardized_SMILES>  (822) 
N#CCCN1CCC2CCN(c3ncnc4[nH]c5cc(Cl)ccc5c34)C2C1

>  <Name>  (822) 
nan

>  <Pocket>  (822) 
nan

>  <ATP_Site>  (822) 
nan

>  <Peripheral>  (822) 
nan

>  <Num_H_Atoms_ProtBoundConf>  (822) 
nan

>  <Num_Resolved_Atoms>  (822) 
nan

>  <Num_Not_Resolved_Atoms>  (822) 
nan

$$$$
CHEMBL3787614
     RDKit          3D

  0  0  0  0  0  0  0  0  0  0999 V3000
M  V30 BEGIN CTAB
M  V30 COUNTS 63 68 0 0 0
M  V30 BEGIN ATOM
M  V30 1 N 2.760021 0.774183 2.868194 0
M  V30 2 C 2.682090 -0.456823 2.189998 0
M  V30 3 N 3.110181 -1.525257 2.873221 0
M  V30 4 C 3.056340 -2.729341 2.232413 0
M  V30 5 N 2.594212 -2.839408 0.971152 0
M  V30 6 C 2.155558 -1.778024 0.257206 0
M  V30 7 C 2.212647 -0.583102 0.904158 0
M  V30 8 C 1.751545 0.445198 0.107797 0
M  V30 9 C 1.537589 1.874750 0.249443 0
M  V30 10 C 2.018627 2.899294 -0.531714 0
M  V30 11 C 1.715350 4.230551 -0.309178 0
M  V30 12 C 0.870792 4.532234 0.774815 0
M  V30 13 C 0.338625 3.533227 1.619563 0
M  V30 14 O -0.394631 4.207700 2.505925 0
M  V30 15 C -1.193437 3.934913 3.578374 0
M  V30 16 C -2.407021 3.145961 3.228168 0 CFG=2
M  V30 17 C -3.210456 2.785460 4.493906 0
M  V30 18 C -4.181059 1.775194 3.869185 0
M  V30 19 C -3.283773 1.142300 2.823698 0
M  V30 20 O -2.157785 1.916897 2.694599 0
M  V30 21 C 0.721179 2.261718 1.284248 0
M  V30 22 C 1.403213 -0.174087 -1.078645 0
M  V30 23 N 1.653434 -1.493137 -0.959279 0
M  V30 24 C 1.425911 -2.527895 -1.949267 0 CFG=1
M  V30 25 C 0.503108 -3.648367 -1.417832 0
M  V30 26 C -0.016421 -3.713061 -2.833250 0 CFG=1
M  V30 27 C -1.446067 -4.015787 -3.055459 0
M  V30 28 N -1.973072 -5.235042 -2.607713 0
M  V30 29 C -1.559087 -6.465945 -3.236224 0
M  V30 30 C -0.998460 -6.887661 -1.875908 0
M  V30 31 C -1.806595 -5.739957 -1.306143 0
M  V30 32 C 0.292189 -2.225234 -2.907431 0
M  V30 33 H 3.476270 1.512900 2.686290 0
M  V30 34 H 2.314579 1.358810 3.614145 0
M  V30 35 H 3.394639 -3.630942 2.748075 0
M  V30 36 H 2.662899 2.570936 -1.346731 0
M  V30 37 H 2.181347 4.892162 -1.018806 0
M  V30 38 H 0.767366 5.634548 0.762494 0
M  V30 39 H -0.600888 3.364319 4.376476 0
M  V30 40 H -1.480474 4.871303 4.158419 0
M  V30 41 H -3.115132 3.756563 2.618550 0
M  V30 42 H -2.587161 2.299941 5.245805 0
M  V30 43 H -3.762036 3.674906 4.869330 0
M  V30 44 H -4.962538 2.337273 3.330138 0
M  V30 45 H -4.552307 1.038555 4.581738 0
M  V30 46 H -3.761341 1.040530 1.833944 0
M  V30 47 H -2.940689 0.152556 3.226547 0
M  V30 48 H 0.300232 1.558919 1.955564 0
M  V30 49 H 0.995925 0.248211 -1.992154 0
M  V30 50 H 2.304673 -2.893817 -2.494350 0
M  V30 51 H 1.141975 -4.464221 -1.073665 0
M  V30 52 H -0.168428 -3.168044 -0.667960 0
M  V30 53 H 0.710195 -4.280939 -3.461482 0
M  V30 54 H -2.078449 -3.182744 -2.672952 0
M  V30 55 H -1.599365 -3.986760 -4.180077 0
M  V30 56 H -2.449234 -7.124750 -3.447880 0
M  V30 57 H -0.837212 -6.411564 -4.048671 0
M  V30 58 H 0.090613 -6.786197 -1.811247 0
M  V30 59 H -1.306902 -7.905236 -1.550531 0
M  V30 60 H -2.759521 -6.187617 -0.885187 0
M  V30 61 H -1.337420 -5.171466 -0.514622 0
M  V30 62 H 0.596007 -1.858806 -3.910269 0
M  V30 63 H -0.467835 -1.613348 -2.368656 0
M  V30 END ATOM
M  V30 BEGIN BOND
M  V30 1 1 1 2
M  V30 2 2 2 3
M  V30 3 1 3 4
M  V30 4 2 4 5
M  V30 5 1 5 6
M  V30 6 2 6 7
M  V30 7 1 7 8
M  V30 8 1 8 9
M  V30 9 2 9 10
M  V30 10 1 10 11
M  V30 11 2 11 12
M  V30 12 1 12 13
M  V30 13 1 13 14
M  V30 14 1 14 15
M  V30 15 1 15 16
M  V30 16 1 16 17
M  V30 17 1 17 18
M  V30 18 1 18 19
M  V30 19 1 19 20
M  V30 20 2 13 21
M  V30 21 2 8 22
M  V30 22 1 22 23
M  V30 23 1 23 24
M  V30 24 1 24 25
M  V30 25 1 25 26
M  V30 26 1 26 27
M  V30 27 1 27 28
M  V30 28 1 28 29
M  V30 29 1 29 30
M  V30 30 1 30 31
M  V30 31 1 26 32
M  V30 32 1 7 2
M  V30 33 1 21 9
M  V30 34 1 32 24
M  V30 35 1 23 6
M  V30 36 1 31 28
M  V30 37 1 20 16
M  V30 38 1 1 33
M  V30 39 1 1 34
M  V30 40 1 4 35
M  V30 41 1 10 36
M  V30 42 1 11 37
M  V30 43 1 12 38
M  V30 44 1 15 39
M  V30 45 1 15 40
M  V30 46 1 16 41 CFG=3
M  V30 47 1 17 42
M  V30 48 1 17 43
M  V30 49 1 18 44
M  V30 50 1 18 45
M  V30 51 1 19 46
M  V30 52 1 19 47
M  V30 53 1 21 48
M  V30 54 1 22 49
M  V30 55 1 24 50 CFG=3
M  V30 56 1 25 51
M  V30 57 1 25 52
M  V30 58 1 26 53 CFG=3
M  V30 59 1 27 54
M  V30 60 1 27 55
M  V30 61 1 29 56
M  V30 62 1 29 57
M  V30 63 1 30 58
M  V30 64 1 30 59
M  V30 65 1 31 60
M  V30 66 1 31 61
M  V30 67 1 32 62
M  V30 68 1 32 63
M  V30 END BOND
M  V30 END CTAB
M  END
>  <Dataset>  (823) 
ChEMBL_Kinases

>  <Ligand_Instance>  (823) 
nan

>  <PDB_ID>  (823) 
nan

>  <Standardized_SMILES>  (823) 
Nc1ncnc2c1c(-c1cccc(OC[C@@H]3CCCO3)c1)cn2[C@H]1C[C@@H](CN2CCC2)C1

>  <Name>  (823) 
nan

>  <Pocket>  (823) 
nan

>  <ATP_Site>  (823) 
nan

>  <Peripheral>  (823) 
nan

>  <Num_H_Atoms_ProtBoundConf>  (823) 
nan

>  <Num_Resolved_Atoms>  (823) 
nan

>  <Num_Not_Resolved_Atoms>  (823) 
nan

$$$$
CHEMBL5074675
     RDKit          3D

  0  0  0  0  0  0  0  0  0  0999 V3000
M  V30 BEGIN CTAB
M  V30 COUNTS 63 67 0 0 0
M  V30 BEGIN ATOM
M  V30 1 C 2.992130 0.830886 2.668555 0
M  V30 2 N 3.585189 1.964408 1.978417 0
M  V30 3 C 5.002042 2.133115 2.019841 0
M  V30 4 C 5.694910 1.424524 0.854626 0
M  V30 5 C 5.426179 -0.030542 0.864258 0
M  V30 6 C 6.207760 -0.960254 1.523643 0
M  V30 7 C 5.946026 -2.317464 1.522709 0
M  V30 8 C 4.838610 -2.795619 0.824979 0
M  V30 9 C 4.043230 -1.888638 0.159097 0
M  V30 10 C 4.320857 -0.535443 0.171749 0
M  V30 11 C 2.761787 2.887093 1.277164 0
M  V30 12 O 3.294908 3.874074 0.678687 0
M  V30 13 C 1.312580 2.736958 1.221642 0
M  V30 14 C 0.429662 3.595637 1.883628 0
M  V30 15 C -0.948095 3.410193 1.800479 0
M  V30 16 C -1.489251 2.365668 1.056254 0
M  V30 17 C -0.563422 1.533544 0.412165 0
M  V30 18 C 0.829440 1.681588 0.467458 0
M  V30 19 C -0.904829 0.363464 -0.427745 0
M  V30 20 O -0.053571 0.040267 -1.313956 0
M  V30 21 C -2.153143 -0.423231 -0.286532 0
M  V30 22 C -2.034857 -1.520163 -1.111627 0
M  V30 23 C -3.112366 -2.409987 -1.134748 0
M  V30 24 C -4.228686 -2.179282 -0.360176 0
M  V30 25 N -5.325609 -3.084217 -0.384072 0
M  V30 26 C -5.394893 -4.232503 -1.218149 0
M  V30 27 C -5.504027 -5.473405 -0.579663 0
M  V30 28 C -5.582317 -6.674048 -1.250917 0
M  V30 29 C -5.553209 -6.671739 -2.630384 0
M  V30 30 F -5.631642 -7.871943 -3.271433 0
M  V30 31 C -5.446256 -5.459418 -3.281165 0
M  V30 32 C -5.368887 -4.269628 -2.597336 0
M  V30 33 F -5.267271 -3.069359 -3.217594 0
M  V30 34 C -4.307383 -1.067869 0.453228 0
M  V30 35 C -3.249787 -0.148368 0.508062 0
M  V30 36 C -3.532190 0.971339 1.441664 0
M  V30 37 C -2.950769 2.283510 1.051009 0
M  V30 38 H 2.238921 0.292325 2.077122 0
M  V30 39 H 3.780317 0.092976 2.948559 0
M  V30 40 H 2.581413 1.159839 3.666837 0
M  V30 41 H 5.469421 1.709281 2.948911 0
M  V30 42 H 5.244753 3.195051 2.011273 0
M  V30 43 H 6.768516 1.628168 0.855358 0
M  V30 44 H 5.199265 1.843400 -0.063226 0
M  V30 45 H 7.071642 -0.558436 2.062499 0
M  V30 46 H 6.587570 -3.029711 2.057832 0
M  V30 47 H 4.575892 -3.827833 0.780787 0
M  V30 48 H 3.160566 -2.120259 -0.416658 0
M  V30 49 H 3.704422 0.215790 -0.350603 0
M  V30 50 H 0.856614 4.413980 2.466736 0
M  V30 51 H -1.623476 4.073658 2.311700 0
M  V30 52 H 1.434899 0.971548 -0.076605 0
M  V30 53 H -1.170681 -1.711289 -1.720601 0
M  V30 54 H -3.003608 -3.255097 -1.778541 0
M  V30 55 H -6.156932 -2.943991 0.227885 0
M  V30 56 H -5.531085 -5.514663 0.479551 0
M  V30 57 H -5.665801 -7.610335 -0.685249 0
M  V30 58 H -5.422542 -5.450156 -4.364980 0
M  V30 59 H -5.190800 -0.866113 1.078269 0
M  V30 60 H -3.341835 0.692739 2.507054 0
M  V30 61 H -4.650296 1.102856 1.396246 0
M  V30 62 H -3.335559 3.031823 1.794490 0
M  V30 63 H -3.319911 2.518732 0.031828 0
M  V30 END ATOM
M  V30 BEGIN BOND
M  V30 1 1 1 2
M  V30 2 1 2 3
M  V30 3 1 3 4
M  V30 4 1 4 5
M  V30 5 2 5 6
M  V30 6 1 6 7
M  V30 7 2 7 8
M  V30 8 1 8 9
M  V30 9 2 9 10
M  V30 10 1 2 11
M  V30 11 2 11 12
M  V30 12 1 11 13
M  V30 13 2 13 14
M  V30 14 1 14 15
M  V30 15 2 15 16
M  V30 16 1 16 17
M  V30 17 2 17 18
M  V30 18 1 17 19
M  V30 19 2 19 20
M  V30 20 1 19 21
M  V30 21 2 21 22
M  V30 22 1 22 23
M  V30 23 2 23 24
M  V30 24 1 24 25
M  V30 25 1 25 26
M  V30 26 2 26 27
M  V30 27 1 27 28
M  V30 28 2 28 29
M  V30 29 1 29 30
M  V30 30 1 29 31
M  V30 31 2 31 32
M  V30 32 1 32 33
M  V30 33 1 24 34
M  V30 34 2 34 35
M  V30 35 1 35 36
M  V30 36 1 36 37
M  V30 37 1 10 5
M  V30 38 1 18 13
M  V30 39 1 35 21
M  V30 40 1 37 16
M  V30 41 1 32 26
M  V30 42 1 1 38
M  V30 43 1 1 39
M  V30 44 1 1 40
M  V30 45 1 3 41
M  V30 46 1 3 42
M  V30 47 1 4 43
M  V30 48 1 4 44
M  V30 49 1 6 45
M  V30 50 1 7 46
M  V30 51 1 8 47
M  V30 52 1 9 48
M  V30 53 1 10 49
M  V30 54 1 14 50
M  V30 55 1 15 51
M  V30 56 1 18 52
M  V30 57 1 22 53
M  V30 58 1 23 54
M  V30 59 1 25 55
M  V30 60 1 27 56
M  V30 61 1 28 57
M  V30 62 1 31 58
M  V30 63 1 34 59
M  V30 64 1 36 60
M  V30 65 1 36 61
M  V30 66 1 37 62
M  V30 67 1 37 63
M  V30 END BOND
M  V30 END CTAB
M  END
>  <Dataset>  (824) 
ChEMBL_Kinases

>  <Ligand_Instance>  (824) 
nan

>  <PDB_ID>  (824) 
nan

>  <Standardized_SMILES>  (824) 
CN(CCc1ccccc1)C(=O)c1ccc2c(c1)C(=O)c1ccc(Nc3ccc(F)cc3F)cc1CC2

>  <Name>  (824) 
nan

>  <Pocket>  (824) 
nan

>  <ATP_Site>  (824) 
nan

>  <Peripheral>  (824) 
nan

>  <Num_H_Atoms_ProtBoundConf>  (824) 
nan

>  <Num_Resolved_Atoms>  (824) 
nan

>  <Num_Not_Resolved_Atoms>  (824) 
nan

$$$$
CHEMBL5074638
     RDKit          3D

  0  0  0  0  0  0  0  0  0  0999 V3000
M  V30 BEGIN CTAB
M  V30 COUNTS 50 51 0 0 0
M  V30 BEGIN ATOM
M  V30 1 C 1.684600 -1.673642 3.216662 0
M  V30 2 C 1.491748 -0.747416 2.061596 0
M  V30 3 C 2.702403 -0.049890 1.882937 0
M  V30 4 C 2.773068 0.876705 0.861375 0
M  V30 5 C 3.944210 1.683007 0.535175 0
M  V30 6 C 5.232351 1.204799 0.733212 0
M  V30 7 C 6.373102 1.934999 0.438438 0
M  V30 8 N 6.208592 3.176927 -0.068078 0
M  V30 9 C 4.981883 3.696660 -0.282892 0
M  V30 10 C 4.868094 5.082586 -0.848301 0
M  V30 11 F 5.479069 6.031567 -0.088832 0
M  V30 12 F 5.356363 5.073674 -2.156088 0
M  V30 13 C 3.858111 2.954212 0.016947 0
M  V30 14 C 1.672526 1.086099 0.061052 0
M  V30 15 N 0.553351 0.396417 0.277311 0
M  V30 16 C 0.371433 -0.522807 1.233657 0
M  V30 17 O -0.561321 -1.371933 1.729643 0
M  V30 18 C -1.862851 -1.683180 1.413145 0
M  V30 19 C -2.140324 -2.274227 0.073362 0 CFG=1
M  V30 20 C -1.551500 -1.373424 -1.030050 0
M  V30 21 N -1.372399 -3.522422 0.002717 0
M  V30 22 C -3.561697 -2.478978 -0.280085 0
M  V30 23 C -4.421825 -3.371194 0.517409 0
M  V30 24 C -4.621069 -3.002573 1.952421 0
M  V30 25 C -5.834648 -3.430296 -0.117642 0
M  V30 26 H 1.825631 -1.009913 4.106436 0
M  V30 27 H 2.553884 -2.347163 3.083335 0
M  V30 28 H 0.794377 -2.295679 3.390061 0
M  V30 29 H 3.620616 -0.109943 2.420172 0
M  V30 30 H 5.364110 0.214375 1.136896 0
M  V30 31 H 7.358801 1.486604 0.623836 0
M  V30 32 H 3.783994 5.321720 -0.945817 0
M  V30 33 H 2.887751 3.375649 -0.157094 0
M  V30 34 H 1.556252 1.775676 -0.785633 0
M  V30 35 H -2.556687 -0.803974 1.525816 0
M  V30 36 H -2.183307 -2.472377 2.162181 0
M  V30 37 H -0.513122 -1.624128 -1.216126 0
M  V30 38 H -1.822049 -0.333869 -0.857382 0
M  V30 39 H -2.083712 -1.641949 -2.001521 0
M  V30 40 H -1.950150 -4.334380 0.287359 0
M  V30 41 H -0.918191 -3.642544 -0.926626 0
M  V30 42 H -3.659464 -2.795680 -1.373654 0
M  V30 43 H -4.024483 -1.433917 -0.328707 0
M  V30 44 H -4.077420 -4.444374 0.490900 0
M  V30 45 H -4.476278 -1.952883 2.205264 0
M  V30 46 H -4.051179 -3.725465 2.612219 0
M  V30 47 H -5.702757 -3.299779 2.213037 0
M  V30 48 H -6.293531 -2.444970 0.126552 0
M  V30 49 H -6.379270 -4.221848 0.439759 0
M  V30 50 H -5.775566 -3.576295 -1.197086 0
M  V30 END ATOM
M  V30 BEGIN BOND
M  V30 1 1 1 2
M  V30 2 2 2 3
M  V30 3 1 3 4
M  V30 4 1 4 5
M  V30 5 2 5 6
M  V30 6 1 6 7
M  V30 7 2 7 8
M  V30 8 1 8 9
M  V30 9 1 9 10
M  V30 10 1 10 11
M  V30 11 1 10 12
M  V30 12 2 9 13
M  V30 13 2 4 14
M  V30 14 1 14 15
M  V30 15 2 15 16
M  V30 16 1 16 17
M  V30 17 1 17 18
M  V30 18 1 18 19
M  V30 19 1 19 20
M  V30 20 1 19 21 CFG=1
M  V30 21 1 19 22
M  V30 22 1 22 23
M  V30 23 1 23 24
M  V30 24 1 23 25
M  V30 25 1 16 2
M  V30 26 1 13 5
M  V30 27 1 1 26
M  V30 28 1 1 27
M  V30 29 1 1 28
M  V30 30 1 3 29
M  V30 31 1 6 30
M  V30 32 1 7 31
M  V30 33 1 10 32
M  V30 34 1 13 33
M  V30 35 1 14 34
M  V30 36 1 18 35
M  V30 37 1 18 36
M  V30 38 1 20 37
M  V30 39 1 20 38
M  V30 40 1 20 39
M  V30 41 1 21 40
M  V30 42 1 21 41
M  V30 43 1 22 42
M  V30 44 1 22 43
M  V30 45 1 23 44
M  V30 46 1 24 45
M  V30 47 1 24 46
M  V30 48 1 24 47
M  V30 49 1 25 48
M  V30 50 1 25 49
M  V30 51 1 25 50
M  V30 END BOND
M  V30 END CTAB
M  END
>  <Dataset>  (825) 
ChEMBL_Kinases

>  <Ligand_Instance>  (825) 
nan

>  <PDB_ID>  (825) 
nan

>  <Standardized_SMILES>  (825) 
Cc1cc(-c2ccnc(C(F)F)c2)cnc1OC[C@@](C)(N)CC(C)C

>  <Name>  (825) 
nan

>  <Pocket>  (825) 
nan

>  <ATP_Site>  (825) 
nan

>  <Peripheral>  (825) 
nan

>  <Num_H_Atoms_ProtBoundConf>  (825) 
nan

>  <Num_Resolved_Atoms>  (825) 
nan

>  <Num_Not_Resolved_Atoms>  (825) 
nan

$$$$
CHEMBL3787557
     RDKit          3D

  0  0  0  0  0  0  0  0  0  0999 V3000
M  V30 BEGIN CTAB
M  V30 COUNTS 62 66 0 0 0
M  V30 BEGIN ATOM
M  V30 1 C 1.161042 0.869973 6.254654 0
M  V30 2 N 1.807430 -0.405120 6.255641 0
M  V30 3 C 3.222779 -0.358257 6.469957 0
M  V30 4 C 3.859446 0.321816 5.303046 0
M  V30 5 N 3.431306 -0.102641 4.034259 0
M  V30 6 C 3.770729 0.827270 3.020133 0
M  V30 7 C 3.380658 0.508734 1.653193 0
M  V30 8 C 4.275496 -0.218959 0.864283 0
M  V30 9 C 3.991842 -0.570857 -0.455448 0
M  V30 10 N 2.815770 -0.195903 -0.985425 0
M  V30 11 C 1.900603 0.512808 -0.274308 0
M  V30 12 N 0.637740 0.939396 -0.779071 0
M  V30 13 C -0.533259 0.155918 -0.674351 0
M  V30 14 O -0.455698 -0.970116 -0.109141 0
M  V30 15 N -1.802013 0.536771 -1.158218 0
M  V30 16 C -2.829910 -0.422689 -0.934253 0
M  V30 17 C -3.485322 -0.242864 0.272495 0
M  V30 18 C -4.511120 -1.118885 0.605500 0
M  V30 19 C -4.883546 -2.151733 -0.234351 0
M  V30 20 C -4.220353 -2.314184 -1.429301 0
M  V30 21 C -3.202009 -1.454022 -1.772573 0
M  V30 22 C -2.616241 -1.799463 -3.097872 0
M  V30 23 C -2.736535 -0.698873 -4.089976 0
M  V30 24 C -3.668177 -1.127178 -5.200993 0
M  V30 25 C -2.945552 -2.299532 -5.876050 0
M  V30 26 C -2.915965 -3.423079 -4.846621 0
M  V30 27 N -3.358198 -2.941115 -3.543491 0
M  V30 28 C -4.306135 -3.240725 -2.549556 0
M  V30 29 O -5.105778 -4.197934 -2.658994 0
M  V30 30 C 2.194179 0.850271 1.019532 0
M  V30 31 C 2.282800 -0.881996 3.889895 0
M  V30 32 C 1.532051 -1.241595 5.130006 0
M  V30 33 H 0.080812 0.698121 6.057819 0
M  V30 34 H 1.267404 1.298908 7.279495 0
M  V30 35 H 1.612158 1.527858 5.491014 0
M  V30 36 H 3.386588 0.293054 7.375818 0
M  V30 37 H 3.579855 -1.381850 6.638856 0
M  V30 38 H 4.961691 0.230921 5.392514 0
M  V30 39 H 3.647735 1.420379 5.418929 0
M  V30 40 H 3.290693 1.810806 3.287649 0
M  V30 41 H 4.873344 0.972408 3.040319 0
M  V30 42 H 5.243306 -0.561881 1.207953 0
M  V30 43 H 4.691891 -1.134186 -1.056306 0
M  V30 44 H 0.534060 1.862705 -1.252011 0
M  V30 45 H -1.860072 1.478785 -1.629415 0
M  V30 46 H -3.248591 0.549187 0.988547 0
M  V30 47 H -5.030858 -0.986141 1.549259 0
M  V30 48 H -5.683253 -2.845351 0.010981 0
M  V30 49 H -1.558929 -2.117586 -3.008982 0
M  V30 50 H -3.034738 0.274604 -3.654217 0
M  V30 51 H -1.725885 -0.492031 -4.543830 0
M  V30 52 H -4.596204 -1.573349 -4.750115 0
M  V30 53 H -3.888033 -0.315673 -5.916949 0
M  V30 54 H -1.895668 -1.996448 -6.086552 0
M  V30 55 H -3.441661 -2.564860 -6.808841 0
M  V30 56 H -3.621664 -4.197411 -5.224502 0
M  V30 57 H -1.903931 -3.860202 -4.785030 0
M  V30 58 H 1.482685 1.419310 1.619173 0
M  V30 59 H 2.564719 -1.853022 3.386640 0
M  V30 60 H 1.588499 -0.410510 3.164471 0
M  V30 61 H 0.439104 -1.219372 4.936012 0
M  V30 62 H 1.755702 -2.294650 5.452407 0
M  V30 END ATOM
M  V30 BEGIN BOND
M  V30 1 1 1 2
M  V30 2 1 2 3
M  V30 3 1 3 4
M  V30 4 1 4 5
M  V30 5 1 5 6
M  V30 6 1 6 7
M  V30 7 2 7 8
M  V30 8 1 8 9
M  V30 9 2 9 10
M  V30 10 1 10 11
M  V30 11 1 11 12
M  V30 12 1 12 13
M  V30 13 2 13 14
M  V30 14 1 13 15
M  V30 15 1 15 16
M  V30 16 2 16 17
M  V30 17 1 17 18
M  V30 18 2 18 19
M  V30 19 1 19 20
M  V30 20 2 20 21
M  V30 21 1 21 22
M  V30 22 1 22 23
M  V30 23 1 23 24
M  V30 24 1 24 25
M  V30 25 1 25 26
M  V30 26 1 26 27
M  V30 27 1 27 28
M  V30 28 2 28 29
M  V30 29 2 11 30
M  V30 30 1 5 31
M  V30 31 1 31 32
M  V30 32 1 32 2
M  V30 33 1 30 7
M  V30 34 1 21 16
M  V30 35 1 27 22
M  V30 36 1 28 20
M  V30 37 1 1 33
M  V30 38 1 1 34
M  V30 39 1 1 35
M  V30 40 1 3 36
M  V30 41 1 3 37
M  V30 42 1 4 38
M  V30 43 1 4 39
M  V30 44 1 6 40
M  V30 45 1 6 41
M  V30 46 1 8 42
M  V30 47 1 9 43
M  V30 48 1 12 44
M  V30 49 1 15 45
M  V30 50 1 17 46
M  V30 51 1 18 47
M  V30 52 1 19 48
M  V30 53 1 22 49
M  V30 54 1 23 50
M  V30 55 1 23 51
M  V30 56 1 24 52
M  V30 57 1 24 53
M  V30 58 1 25 54
M  V30 59 1 25 55
M  V30 60 1 26 56
M  V30 61 1 26 57
M  V30 62 1 30 58
M  V30 63 1 31 59
M  V30 64 1 31 60
M  V30 65 1 32 61
M  V30 66 1 32 62
M  V30 END BOND
M  V30 END CTAB
M  END
>  <Dataset>  (826) 
ChEMBL_Kinases

>  <Ligand_Instance>  (826) 
nan

>  <PDB_ID>  (826) 
nan

>  <Standardized_SMILES>  (826) 
CN1CCN(Cc2ccnc(NC(=O)Nc3cccc4c3C3CCCCN3C4=O)c2)CC1

>  <Name>  (826) 
nan

>  <Pocket>  (826) 
nan

>  <ATP_Site>  (826) 
nan

>  <Peripheral>  (826) 
nan

>  <Num_H_Atoms_ProtBoundConf>  (826) 
nan

>  <Num_Resolved_Atoms>  (826) 
nan

>  <Num_Not_Resolved_Atoms>  (826) 
nan

$$$$
CHEMBL378752
     RDKit          3D

  0  0  0  0  0  0  0  0  0  0999 V3000
M  V30 BEGIN CTAB
M  V30 COUNTS 39 42 0 0 0
M  V30 BEGIN ATOM
M  V30 1 C 1.096198 -4.110966 2.725303 0
M  V30 2 C 0.306256 -3.049514 1.994343 0
M  V30 3 C -1.145834 -3.503925 1.977931 0
M  V30 4 C 0.852723 -2.917550 0.625903 0
M  V30 5 N 0.993254 -3.859502 -0.320863 0
M  V30 6 N 1.522980 -3.328768 -1.402831 0
M  V30 7 C 1.755732 -2.017344 -1.221300 0
M  V30 8 C 2.277554 -0.994441 -1.982346 0
M  V30 9 C 2.381395 0.289888 -1.475196 0
M  V30 10 C 1.953049 0.546818 -0.182251 0
M  V30 11 C 1.997482 1.840920 0.487572 0
M  V30 12 O 2.914944 2.717391 0.850042 0
M  V30 13 C 2.360642 3.736235 1.437886 0
M  V30 14 N 1.024038 3.549872 1.478024 0
M  V30 15 C 0.754920 2.350366 0.880662 0
M  V30 16 C -0.611552 1.861989 0.766665 0
M  V30 17 C -1.247839 1.642256 -0.444279 0
M  V30 18 C -2.546209 1.177912 -0.521616 0
M  V30 19 C -3.257075 0.915838 0.611008 0
M  V30 20 F -4.529491 0.460905 0.508892 0
M  V30 21 C -2.652784 1.124093 1.827345 0
M  V30 22 F -3.366784 0.860789 2.952374 0
M  V30 23 C -1.369321 1.583099 1.903444 0
M  V30 24 C 1.432771 -0.536844 0.537602 0
M  V30 25 N 1.334350 -1.788742 0.035918 0
M  V30 26 H 0.560776 -5.077279 2.668169 0
M  V30 27 H 2.085513 -4.185690 2.260343 0
M  V30 28 H 1.154580 -3.820399 3.802373 0
M  V30 29 H 0.351935 -2.054519 2.479622 0
M  V30 30 H -1.826810 -2.618936 2.105162 0
M  V30 31 H -1.378533 -4.089471 1.074434 0
M  V30 32 H -1.317916 -4.112713 2.888766 0
M  V30 33 H 2.613899 -1.188960 -2.992687 0
M  V30 34 H 2.782740 1.132580 -2.026510 0
M  V30 35 H 2.880886 4.592584 1.830682 0
M  V30 36 H -0.690277 1.847905 -1.342413 0
M  V30 37 H -3.017691 1.015808 -1.503446 0
M  V30 38 H -0.933718 1.732495 2.900611 0
M  V30 39 H 1.090179 -0.364984 1.550776 0
M  V30 END ATOM
M  V30 BEGIN BOND
M  V30 1 1 1 2
M  V30 2 1 2 3
M  V30 3 1 2 4
M  V30 4 2 4 5
M  V30 5 1 5 6
M  V30 6 2 6 7
M  V30 7 1 7 8
M  V30 8 2 8 9
M  V30 9 1 9 10
M  V30 10 1 10 11
M  V30 11 1 11 12
M  V30 12 1 12 13
M  V30 13 2 13 14
M  V30 14 1 14 15
M  V30 15 1 15 16
M  V30 16 2 16 17
M  V30 17 1 17 18
M  V30 18 2 18 19
M  V30 19 1 19 20
M  V30 20 1 19 21
M  V30 21 1 21 22
M  V30 22 2 21 23
M  V30 23 2 10 24
M  V30 24 1 24 25
M  V30 25 1 25 4
M  V30 26 1 25 7
M  V30 27 2 15 11
M  V30 28 1 23 16
M  V30 29 1 1 26
M  V30 30 1 1 27
M  V30 31 1 1 28
M  V30 32 1 2 29
M  V30 33 1 3 30
M  V30 34 1 3 31
M  V30 35 1 3 32
M  V30 36 1 8 33
M  V30 37 1 9 34
M  V30 38 1 13 35
M  V30 39 1 17 36
M  V30 40 1 18 37
M  V30 41 1 23 38
M  V30 42 1 24 39
M  V30 END BOND
M  V30 END CTAB
M  END
>  <Dataset>  (827) 
ChEMBL_Kinases

>  <Ligand_Instance>  (827) 
nan

>  <PDB_ID>  (827) 
nan

>  <Standardized_SMILES>  (827) 
CC(C)c1nnc2ccc(-c3ocnc3-c3ccc(F)c(F)c3)cn12

>  <Name>  (827) 
nan

>  <Pocket>  (827) 
nan

>  <ATP_Site>  (827) 
nan

>  <Peripheral>  (827) 
nan

>  <Num_H_Atoms_ProtBoundConf>  (827) 
nan

>  <Num_Resolved_Atoms>  (827) 
nan

>  <Num_Not_Resolved_Atoms>  (827) 
nan

$$$$
CHEMBL3787512
     RDKit          3D

  0  0  0  0  0  0  0  0  0  0999 V3000
M  V30 BEGIN CTAB
M  V30 COUNTS 46 49 0 0 0
M  V30 BEGIN ATOM
M  V30 1 O 1.605591 -0.208352 -0.068728 0
M  V30 2 C 1.693385 -1.160338 0.723143 0
M  V30 3 N 1.933900 -2.407365 0.146355 0
M  V30 4 C 2.100868 -2.806350 -1.195830 0
M  V30 5 C 2.064487 -2.017168 -2.318450 0
M  V30 6 C 2.233307 -2.451120 -3.614509 0
M  V30 7 C 2.172406 -1.497835 -4.752301 0
M  V30 8 O 0.865669 -1.386532 -5.226124 0
M  V30 9 C 2.458529 -3.793326 -3.805370 0
M  V30 10 C 2.496869 -4.593973 -2.684825 0
M  V30 11 N 2.324111 -4.103422 -1.452224 0
M  V30 12 N 1.538744 -0.852242 2.090224 0
M  V30 13 C 1.295498 0.528749 2.431264 0
M  V30 14 C 2.396722 1.323347 2.674493 0
M  V30 15 C 2.180822 2.665974 3.006785 0
M  V30 16 C 0.876207 3.110250 3.070003 0
M  V30 17 C -0.210362 2.296688 2.822519 0
M  V30 18 C -0.012484 0.957132 2.490332 0
M  V30 19 C -1.283876 0.230587 2.258013 0
M  V30 20 C -1.514558 -0.825345 3.329285 0
M  V30 21 C -2.678492 -0.512046 4.225159 0
M  V30 22 C -3.934051 -0.186544 3.450470 0
M  V30 23 C -3.673918 0.768007 2.303242 0
M  V30 24 N -2.313090 1.241173 2.475014 0
M  V30 25 C -1.659895 2.460230 2.808958 0
M  V30 26 O -2.275372 3.536497 3.058528 0
M  V30 27 H 1.985708 -3.114708 0.907312 0
M  V30 28 H 1.889492 -0.960474 -2.197731 0
M  V30 29 H 2.510224 -0.489556 -4.396755 0
M  V30 30 H 2.893318 -1.786222 -5.565491 0
M  V30 31 H 0.843914 -0.925011 -6.087132 0
M  V30 32 H 2.593900 -4.151888 -4.823191 0
M  V30 33 H 2.673323 -5.657416 -2.810394 0
M  V30 34 H 1.614735 -1.670870 2.765117 0
M  V30 35 H 3.414408 0.950339 2.618506 0
M  V30 36 H 3.030948 3.279373 3.194547 0
M  V30 37 H 0.688789 4.164131 3.330120 0
M  V30 38 H -1.315283 -0.165265 1.241804 0
M  V30 39 H -1.672820 -1.811242 2.873220 0
M  V30 40 H -0.614459 -0.892560 3.973218 0
M  V30 41 H -2.430010 0.343717 4.884928 0
M  V30 42 H -2.857848 -1.384239 4.854648 0
M  V30 43 H -4.374601 -1.140515 3.080681 0
M  V30 44 H -4.640679 0.271459 4.180869 0
M  V30 45 H -4.352589 1.621988 2.261185 0
M  V30 46 H -3.673188 0.155814 1.357017 0
M  V30 END ATOM
M  V30 BEGIN BOND
M  V30 1 2 1 2
M  V30 2 1 2 3
M  V30 3 1 3 4
M  V30 4 2 4 5
M  V30 5 1 5 6
M  V30 6 1 6 7
M  V30 7 1 7 8
M  V30 8 2 6 9
M  V30 9 1 9 10
M  V30 10 2 10 11
M  V30 11 1 2 12
M  V30 12 1 12 13
M  V30 13 2 13 14
M  V30 14 1 14 15
M  V30 15 2 15 16
M  V30 16 1 16 17
M  V30 17 2 17 18
M  V30 18 1 18 19
M  V30 19 1 19 20
M  V30 20 1 20 21
M  V30 21 1 21 22
M  V30 22 1 22 23
M  V30 23 1 23 24
M  V30 24 1 24 25
M  V30 25 2 25 26
M  V30 26 1 11 4
M  V30 27 1 18 13
M  V30 28 1 24 19
M  V30 29 1 25 17
M  V30 30 1 3 27
M  V30 31 1 5 28
M  V30 32 1 7 29
M  V30 33 1 7 30
M  V30 34 1 8 31
M  V30 35 1 9 32
M  V30 36 1 10 33
M  V30 37 1 12 34
M  V30 38 1 14 35
M  V30 39 1 15 36
M  V30 40 1 16 37
M  V30 41 1 19 38
M  V30 42 1 20 39
M  V30 43 1 20 40
M  V30 44 1 21 41
M  V30 45 1 21 42
M  V30 46 1 22 43
M  V30 47 1 22 44
M  V30 48 1 23 45
M  V30 49 1 23 46
M  V30 END BOND
M  V30 END CTAB
M  END
>  <Dataset>  (828) 
ChEMBL_Kinases

>  <Ligand_Instance>  (828) 
nan

>  <PDB_ID>  (828) 
nan

>  <Standardized_SMILES>  (828) 
O=C(Nc1cc(CO)ccn1)Nc1cccc2c1C1CCCCN1C2=O

>  <Name>  (828) 
nan

>  <Pocket>  (828) 
nan

>  <ATP_Site>  (828) 
nan

>  <Peripheral>  (828) 
nan

>  <Num_H_Atoms_ProtBoundConf>  (828) 
nan

>  <Num_Resolved_Atoms>  (828) 
nan

>  <Num_Not_Resolved_Atoms>  (828) 
nan

$$$$
CHEMBL3787275
     RDKit          3D

  0  0  0  0  0  0  0  0  0  0999 V3000
M  V30 BEGIN CTAB
M  V30 COUNTS 28 30 0 0 0
M  V30 BEGIN ATOM
M  V30 1 C -0.899488 -1.554849 4.954693 0
M  V30 2 N -0.685044 -0.422340 4.063883 0
M  V30 3 C -0.285998 -0.406907 2.698007 0
M  V30 4 N -0.054117 -1.574245 2.068355 0
M  V30 5 C 0.327773 -1.582404 0.764397 0
M  V30 6 C 0.556475 -2.797602 0.152250 0
M  V30 7 C 0.949364 -2.813030 -1.188292 0
M  V30 8 C 1.095147 -1.612485 -1.853899 0
M  V30 9 C 1.515243 -1.611390 -3.289752 0
M  V30 10 C 0.872989 -0.378615 -1.266721 0
M  V30 11 C 0.485476 -0.404368 0.061187 0
M  V30 12 N 0.239159 0.734183 0.744180 0
M  V30 13 C 0.303700 2.012979 0.345316 0
M  V30 14 C -0.028515 2.876638 1.360215 0
M  V30 15 N -0.304438 2.075009 2.414937 0
M  V30 16 C -0.140623 0.800637 2.032792 0
M  V30 17 H -1.806990 -1.409586 5.574901 0
M  V30 18 H -1.067848 -2.492477 4.347806 0
M  V30 19 H -0.029219 -1.683247 5.650017 0
M  V30 20 H -0.867669 0.486717 4.561237 0
M  V30 21 H 0.457383 -3.747341 0.623307 0
M  V30 22 H 1.147278 -3.727965 -1.737126 0
M  V30 23 H 2.242788 -0.777248 -3.483397 0
M  V30 24 H 2.060893 -2.534881 -3.499222 0
M  V30 25 H 0.641062 -1.568741 -3.971007 0
M  V30 26 H 0.991351 0.557685 -1.801673 0
M  V30 27 H 0.579497 2.349188 -0.644070 0
M  V30 28 H -0.090024 3.953700 1.420288 0
M  V30 END ATOM
M  V30 BEGIN BOND
M  V30 1 1 1 2
M  V30 2 1 2 3
M  V30 3 2 3 4
M  V30 4 1 4 5
M  V30 5 2 5 6
M  V30 6 1 6 7
M  V30 7 2 7 8
M  V30 8 1 8 9
M  V30 9 1 8 10
M  V30 10 2 10 11
M  V30 11 1 11 12
M  V30 12 1 12 13
M  V30 13 2 13 14
M  V30 14 1 14 15
M  V30 15 2 15 16
M  V30 16 1 16 3
M  V30 17 1 11 5
M  V30 18 1 16 12
M  V30 19 1 1 17
M  V30 20 1 1 18
M  V30 21 1 1 19
M  V30 22 1 2 20
M  V30 23 1 6 21
M  V30 24 1 7 22
M  V30 25 1 9 23
M  V30 26 1 9 24
M  V30 27 1 9 25
M  V30 28 1 10 26
M  V30 29 1 13 27
M  V30 30 1 14 28
M  V30 END BOND
M  V30 END CTAB
M  END
>  <Dataset>  (829) 
ChEMBL_Kinases

>  <Ligand_Instance>  (829) 
nan

>  <PDB_ID>  (829) 
nan

>  <Standardized_SMILES>  (829) 
CNc1nc2ccc(C)cc2n2ccnc12

>  <Name>  (829) 
nan

>  <Pocket>  (829) 
nan

>  <ATP_Site>  (829) 
nan

>  <Peripheral>  (829) 
nan

>  <Num_H_Atoms_ProtBoundConf>  (829) 
nan

>  <Num_Resolved_Atoms>  (829) 
nan

>  <Num_Not_Resolved_Atoms>  (829) 
nan

$$$$
CHEMBL378721
     RDKit          3D

  0  0  0  0  0  0  0  0  0  0999 V3000
M  V30 BEGIN CTAB
M  V30 COUNTS 42 44 0 0 0
M  V30 BEGIN ATOM
M  V30 1 C 0.135486 -7.559697 -1.370338 0
M  V30 2 N 1.025839 -6.659346 -2.044110 0
M  V30 3 C 2.005302 -5.744630 -1.588767 0
M  V30 4 N 3.331936 -5.961071 -1.363589 0
M  V30 5 C 4.064505 -4.912608 -0.925027 0
M  V30 6 C 3.606640 -3.634338 -0.678954 0
M  V30 7 C 2.258319 -3.492991 -0.928967 0
M  V30 8 C 1.640620 -2.152167 -0.700202 0
M  V30 9 C 0.410302 -1.736670 -0.851264 0
M  V30 10 C 0.064111 -0.448201 -0.578580 0
M  V30 11 C 1.033197 0.370221 -0.151361 0
M  V30 12 C 1.186760 1.804469 0.267301 0
M  V30 13 O 2.291460 2.225673 0.616675 0
M  V30 14 N -0.042297 2.477002 0.185555 0
M  V30 15 C -0.068001 3.876891 0.557502 0
M  V30 16 C 0.356157 4.043646 2.000474 0
M  V30 17 C -0.533151 3.319457 2.940967 0
M  V30 18 C -0.400755 2.029754 3.399546 0
M  V30 19 C -1.320587 1.497847 4.276444 0
M  V30 20 C -2.406386 2.201160 4.741858 0
M  V30 21 C -2.581295 3.504983 4.307328 0
M  V30 22 Cl -3.928934 4.490287 4.836938 0
M  V30 23 C -1.647260 4.012707 3.430713 0
M  V30 24 S 2.536866 -0.769909 -0.136852 0
M  V30 25 N 1.484860 -4.501461 -1.365504 0
M  V30 26 H -0.926481 -7.382423 -1.667936 0
M  V30 27 H 0.395145 -8.591703 -1.681141 0
M  V30 28 H 0.197465 -7.501615 -0.271166 0
M  V30 29 H 0.945275 -6.671123 -3.083902 0
M  V30 30 H 5.116480 -5.169882 -0.769505 0
M  V30 31 H 4.251435 -2.857457 -0.332208 0
M  V30 32 H -0.346832 -2.433791 -1.200568 0
M  V30 33 H -0.904836 0.026479 -0.657878 0
M  V30 34 H -0.949766 2.062180 -0.120454 0
M  V30 35 H 0.661574 4.475673 -0.031957 0
M  V30 36 H -1.047959 4.345178 0.362610 0
M  V30 37 H 0.299974 5.132221 2.234097 0
M  V30 38 H 1.369630 3.678501 2.179827 0
M  V30 39 H 0.439612 1.489205 3.039399 0
M  V30 40 H -1.186655 0.468719 4.622342 0
M  V30 41 H -3.144309 1.811617 5.429434 0
M  V30 42 H -1.808554 5.044668 3.102933 0
M  V30 END ATOM
M  V30 BEGIN BOND
M  V30 1 1 1 2
M  V30 2 1 2 3
M  V30 3 2 3 4
M  V30 4 1 4 5
M  V30 5 2 5 6
M  V30 6 1 6 7
M  V30 7 1 7 8
M  V30 8 2 8 9
M  V30 9 1 9 10
M  V30 10 2 10 11
M  V30 11 1 11 12
M  V30 12 2 12 13
M  V30 13 1 12 14
M  V30 14 1 14 15
M  V30 15 1 15 16
M  V30 16 1 16 17
M  V30 17 2 17 18
M  V30 18 1 18 19
M  V30 19 2 19 20
M  V30 20 1 20 21
M  V30 21 1 21 22
M  V30 22 2 21 23
M  V30 23 1 11 24
M  V30 24 2 7 25
M  V30 25 1 25 3
M  V30 26 1 24 8
M  V30 27 1 23 17
M  V30 28 1 1 26
M  V30 29 1 1 27
M  V30 30 1 1 28
M  V30 31 1 2 29
M  V30 32 1 5 30
M  V30 33 1 6 31
M  V30 34 1 9 32
M  V30 35 1 10 33
M  V30 36 1 14 34
M  V30 37 1 15 35
M  V30 38 1 15 36
M  V30 39 1 16 37
M  V30 40 1 16 38
M  V30 41 1 18 39
M  V30 42 1 19 40
M  V30 43 1 20 41
M  V30 44 1 23 42
M  V30 END BOND
M  V30 END CTAB
M  END
>  <Dataset>  (830) 
ChEMBL_Kinases

>  <Ligand_Instance>  (830) 
nan

>  <PDB_ID>  (830) 
nan

>  <Standardized_SMILES>  (830) 
CNc1nccc(-c2ccc(C(=O)NCCc3cccc(Cl)c3)s2)n1

>  <Name>  (830) 
nan

>  <Pocket>  (830) 
nan

>  <ATP_Site>  (830) 
nan

>  <Peripheral>  (830) 
nan

>  <Num_H_Atoms_ProtBoundConf>  (830) 
nan

>  <Num_Resolved_Atoms>  (830) 
nan

>  <Num_Not_Resolved_Atoms>  (830) 
nan

$$$$
CHEMBL590515
     RDKit          3D

  0  0  0  0  0  0  0  0  0  0999 V3000
M  V30 BEGIN CTAB
M  V30 COUNTS 53 58 0 0 0
M  V30 BEGIN ATOM
M  V30 1 N 0.534145 0.039490 7.272985 0
M  V30 2 C -0.534985 -0.522157 6.524236 0
M  V30 3 O -1.568007 -0.961706 7.092745 0
M  V30 4 C -0.402765 -0.577653 5.051912 0
M  V30 5 N 0.666108 -0.132619 4.329515 0
M  V30 6 N 0.454793 -0.335384 3.041007 0
M  V30 7 C 1.439637 0.054811 2.122333 0
M  V30 8 C 2.517465 -0.693340 1.631604 0
M  V30 9 C 3.405125 -0.142312 0.731675 0
M  V30 10 C 3.239543 1.173628 0.296914 0
M  V30 11 C 2.177831 1.931826 0.771274 0
M  V30 12 C 1.280292 1.374909 1.681110 0
M  V30 13 O 2.281876 3.176227 0.164684 0
M  V30 14 C 3.070648 3.000409 -1.001661 0
M  V30 15 O 3.965604 1.976437 -0.588649 0
M  V30 16 C -0.731274 -0.902179 2.933614 0
M  V30 17 C -1.334756 -1.089384 4.139711 0
M  V30 18 C -2.635348 -1.673948 4.475698 0
M  V30 19 C -3.390279 -2.128377 3.277813 0
M  V30 20 C -2.706544 -1.909434 1.981001 0
M  V30 21 C -3.456446 -2.349626 0.898095 0
M  V30 22 C -2.922620 -2.200853 -0.380830 0
M  V30 23 C -1.688254 -1.635796 -0.585173 0
M  V30 24 N -1.201077 -1.513227 -1.912222 0
M  V30 25 C -1.250709 -0.554581 -2.958097 0
M  V30 26 O -1.906361 0.458555 -2.604275 0
M  V30 27 C -0.519145 -1.029326 -4.150105 0
M  V30 28 C 0.842288 -1.230667 -3.913454 0
M  V30 29 C 1.668518 -1.674933 -4.926783 0
M  V30 30 C 1.080286 -1.902892 -6.160503 0
M  V30 31 N -0.231294 -1.705598 -6.376575 0
M  V30 32 C -1.050654 -1.272262 -5.397612 0
M  V30 33 Cl -2.757309 -0.987719 -5.579329 0
M  V30 34 C -0.954380 -1.203059 0.498129 0
M  V30 35 C -1.470271 -1.344470 1.763664 0
M  V30 36 H 1.487511 -0.397827 7.243562 0
M  V30 37 H 1.505643 -0.376361 7.265142 0
M  V30 38 H 2.562725 -1.699328 2.024989 0
M  V30 39 H 4.222569 -0.754522 0.378584 0
M  V30 40 H 0.474136 2.034980 2.005649 0
M  V30 41 H 2.411093 2.566854 -1.778939 0
M  V30 42 H 3.578422 3.921862 -1.331443 0
M  V30 43 H -2.504660 -2.476666 5.237251 0
M  V30 44 H -3.223239 -0.862499 4.982347 0
M  V30 45 H -3.659949 -3.207336 3.362722 0
M  V30 46 H -4.353718 -1.545840 3.212532 0
M  V30 47 H -4.428316 -2.802376 0.960270 0
M  V30 48 H -3.484844 -2.535695 -1.252356 0
M  V30 49 H -0.713635 -2.457309 -1.942550 0
M  V30 50 H 1.331756 -1.057903 -2.947738 0
M  V30 51 H 2.737685 -1.851565 -4.807069 0
M  V30 52 H 1.730199 -2.254608 -6.965794 0
M  V30 53 H 0.001005 -0.770631 0.275993 0
M  V30 END ATOM
M  V30 BEGIN BOND
M  V30 1 1 1 2
M  V30 2 2 2 3
M  V30 3 1 2 4
M  V30 4 2 4 5
M  V30 5 1 5 6
M  V30 6 1 6 7
M  V30 7 2 7 8
M  V30 8 1 8 9
M  V30 9 2 9 10
M  V30 10 1 10 11
M  V30 11 2 11 12
M  V30 12 1 11 13
M  V30 13 1 13 14
M  V30 14 1 14 15
M  V30 15 1 6 16
M  V30 16 2 16 17
M  V30 17 1 17 18
M  V30 18 1 18 19
M  V30 19 1 19 20
M  V30 20 2 20 21
M  V30 21 1 21 22
M  V30 22 2 22 23
M  V30 23 1 23 24
M  V30 24 1 24 25
M  V30 25 2 25 26
M  V30 26 1 25 27
M  V30 27 2 27 28
M  V30 28 1 28 29
M  V30 29 2 29 30
M  V30 30 1 30 31
M  V30 31 2 31 32
M  V30 32 1 32 33
M  V30 33 1 23 34
M  V30 34 2 34 35
M  V30 35 1 17 4
M  V30 36 1 35 20
M  V30 37 1 12 7
M  V30 38 1 35 16
M  V30 39 1 15 10
M  V30 40 1 32 27
M  V30 41 1 1 36
M  V30 42 1 1 37
M  V30 43 1 8 38
M  V30 44 1 9 39
M  V30 45 1 12 40
M  V30 46 1 14 41
M  V30 47 1 14 42
M  V30 48 1 18 43
M  V30 49 1 18 44
M  V30 50 1 19 45
M  V30 51 1 19 46
M  V30 52 1 21 47
M  V30 53 1 22 48
M  V30 54 1 24 49
M  V30 55 1 28 50
M  V30 56 1 29 51
M  V30 57 1 30 52
M  V30 58 1 34 53
M  V30 END BOND
M  V30 END CTAB
M  END
>  <Dataset>  (831) 
ChEMBL_Kinases

>  <Ligand_Instance>  (831) 
nan

>  <PDB_ID>  (831) 
nan

>  <Standardized_SMILES>  (831) 
NC(=O)c1nn(-c2ccc3c(c2)OCO3)c2c1CCc1ccc(NC(=O)c3cccnc3Cl)cc1-2

>  <Name>  (831) 
nan

>  <Pocket>  (831) 
nan

>  <ATP_Site>  (831) 
nan

>  <Peripheral>  (831) 
nan

>  <Num_H_Atoms_ProtBoundConf>  (831) 
nan

>  <Num_Resolved_Atoms>  (831) 
nan

>  <Num_Not_Resolved_Atoms>  (831) 
nan

$$$$
CHEMBL378719
     RDKit          3D

  0  0  0  0  0  0  0  0  0  0999 V3000
M  V30 BEGIN CTAB
M  V30 COUNTS 45 47 0 0 0
M  V30 BEGIN ATOM
M  V30 1 N -0.415333 -1.875209 1.634491 0
M  V30 2 C 0.278922 -0.751411 2.130395 0
M  V30 3 N 1.533558 -0.750837 1.893470 0
M  V30 4 C 2.160774 -1.842601 1.165873 0
M  V30 5 C 3.092041 -1.383018 0.099835 0
M  V30 6 C 2.355187 -0.546394 -0.909232 0
M  V30 7 C 3.262535 -0.040145 -1.992585 0
M  V30 8 C 4.504571 0.583391 -1.440901 0
M  V30 9 C 5.221856 -0.458245 -0.589898 0
M  V30 10 C 4.349295 -0.760138 0.613059 0
M  V30 11 C -0.547691 0.207936 2.830871 0
M  V30 12 C 0.152132 1.275254 3.297845 0
M  V30 13 O 1.457499 1.732524 3.285958 0
M  V30 14 N -0.495739 2.299042 4.024805 0
M  V30 15 S -2.244006 1.657572 4.025084 0
M  V30 16 C -1.880007 0.222250 3.120956 0
M  V30 17 N -2.715612 -0.809305 2.689440 0
M  V30 18 C -3.755115 -0.832803 1.708488 0
M  V30 19 C -4.418544 -1.936121 1.207381 0
M  V30 20 C -5.417411 -1.724789 0.273803 0
M  V30 21 C -5.748639 -0.474590 -0.149161 0
M  V30 22 C -5.096223 0.645928 0.340476 0
M  V30 23 Br -5.551817 2.427256 -0.236810 0
M  V30 24 C -4.078569 0.467915 1.287531 0
M  V30 25 H -0.536334 -2.909646 1.696062 0
M  V30 26 H -1.110969 -2.319925 1.011672 0
M  V30 27 H 1.373075 -2.498194 0.737963 0
M  V30 28 H 2.709445 -2.492087 1.909253 0
M  V30 29 H 3.416711 -2.311540 -0.452279 0
M  V30 30 H 1.772319 0.269376 -0.482230 0
M  V30 31 H 1.615055 -1.232809 -1.395757 0
M  V30 32 H 2.676826 0.717928 -2.559185 0
M  V30 33 H 3.525620 -0.900778 -2.647381 0
M  V30 34 H 4.259731 1.469617 -0.843854 0
M  V30 35 H 5.187543 0.811927 -2.279933 0
M  V30 36 H 5.314312 -1.390674 -1.165823 0
M  V30 37 H 6.202860 -0.017387 -0.319528 0
M  V30 38 H 4.896643 -1.560584 1.179567 0
M  V30 39 H 4.227109 0.151020 1.195091 0
M  V30 40 H 2.017437 1.749258 2.426427 0
M  V30 41 H -2.601026 -1.750924 3.121874 0
M  V30 42 H -4.079072 -2.888199 1.607793 0
M  V30 43 H -5.912141 -2.631835 -0.092076 0
M  V30 44 H -6.524627 -0.342367 -0.871112 0
M  V30 45 H -3.605349 1.371359 1.632429 0
M  V30 END ATOM
M  V30 BEGIN BOND
M  V30 1 1 1 2
M  V30 2 2 2 3
M  V30 3 1 3 4
M  V30 4 1 4 5
M  V30 5 1 5 6
M  V30 6 1 6 7
M  V30 7 1 7 8
M  V30 8 1 8 9
M  V30 9 1 9 10
M  V30 10 1 2 11
M  V30 11 1 11 12
M  V30 12 1 12 13
M  V30 13 2 12 14
M  V30 14 1 14 15
M  V30 15 1 15 16
M  V30 16 1 16 17
M  V30 17 1 17 18
M  V30 18 2 18 19
M  V30 19 1 19 20
M  V30 20 2 20 21
M  V30 21 1 21 22
M  V30 22 1 22 23
M  V30 23 2 22 24
M  V30 24 1 10 5
M  V30 25 2 16 11
M  V30 26 1 24 18
M  V30 27 1 1 25
M  V30 28 1 1 26
M  V30 29 1 4 27
M  V30 30 1 4 28
M  V30 31 1 5 29
M  V30 32 1 6 30
M  V30 33 1 6 31
M  V30 34 1 7 32
M  V30 35 1 7 33
M  V30 36 1 8 34
M  V30 37 1 8 35
M  V30 38 1 9 36
M  V30 39 1 9 37
M  V30 40 1 10 38
M  V30 41 1 10 39
M  V30 42 1 13 40
M  V30 43 1 17 41
M  V30 44 1 19 42
M  V30 45 1 20 43
M  V30 46 1 21 44
M  V30 47 1 24 45
M  V30 END BOND
M  V30 END CTAB
M  END
>  <Dataset>  (832) 
ChEMBL_Kinases

>  <Ligand_Instance>  (832) 
nan

>  <PDB_ID>  (832) 
nan

>  <Standardized_SMILES>  (832) 
N/C(=N\CC1CCCCC1)c1c(O)nsc1Nc1cccc(Br)c1

>  <Name>  (832) 
nan

>  <Pocket>  (832) 
nan

>  <ATP_Site>  (832) 
nan

>  <Peripheral>  (832) 
nan

>  <Num_H_Atoms_ProtBoundConf>  (832) 
nan

>  <Num_Resolved_Atoms>  (832) 
nan

>  <Num_Not_Resolved_Atoms>  (832) 
nan

$$$$
CHEMBL378717
     RDKit          3D

  0  0  0  0  0  0  0  0  0  0999 V3000
M  V30 BEGIN CTAB
M  V30 COUNTS 50 54 0 0 0
M  V30 BEGIN ATOM
M  V30 1 O 1.978995 -4.666588 -1.016092 0
M  V30 2 C 1.956446 -3.465226 -0.600769 0
M  V30 3 N 3.139699 -2.665072 -0.602330 0
M  V30 4 C 3.160395 -1.301535 -0.084761 0
M  V30 5 C 1.830836 -0.855524 0.329805 0
M  V30 6 C 1.786897 0.474117 0.761153 0
M  V30 7 C 2.859611 1.473393 0.845833 0
M  V30 8 C 3.977203 1.476482 1.619218 0
M  V30 9 C 4.840796 2.521929 1.580243 0
M  V30 10 C 4.632952 3.638942 0.756356 0
M  V30 11 C 3.494775 3.629063 -0.024643 0
M  V30 12 C 2.580385 2.554467 -0.005799 0
M  V30 13 Cl 1.229203 2.791668 -1.088753 0
M  V30 14 N 0.595539 0.989277 1.181445 0
M  V30 15 C -0.534633 0.249134 1.191137 0
M  V30 16 N -1.756945 0.814722 1.638347 0
M  V30 17 C -2.476838 -0.022556 2.592325 0
M  V30 18 C -3.915023 -0.162886 2.218413 0
M  V30 19 O -4.470982 1.098096 2.195710 0
M  V30 20 C -3.926531 1.882985 1.193388 0
M  V30 21 C -2.424854 2.060515 1.323544 0
M  V30 22 N -0.520150 -1.056942 0.772031 0
M  V30 23 C 0.628586 -1.555812 0.364092 0
M  V30 24 N 0.734601 -2.908352 -0.126132 0
M  V30 25 C -0.403502 -3.756708 -0.176877 0
M  V30 26 C -0.952854 -4.635411 0.729469 0
M  V30 27 Cl -0.049275 -4.673103 2.212805 0
M  V30 28 C -2.084763 -5.351669 0.410482 0
M  V30 29 C -2.744102 -5.246935 -0.814283 0
M  V30 30 C -2.166228 -4.355999 -1.700642 0
M  V30 31 C -1.031290 -3.617186 -1.423835 0
M  V30 32 Cl -0.534181 -2.570226 -2.747858 0
M  V30 33 H 4.022281 -3.074029 -0.984710 0
M  V30 34 H 3.641465 -0.677458 -0.834283 0
M  V30 35 H 3.783382 -1.359030 0.857197 0
M  V30 36 H 4.087045 0.591469 2.241342 0
M  V30 37 H 5.715406 2.514970 2.196294 0
M  V30 38 H 5.321654 4.474852 0.723480 0
M  V30 39 H 3.359633 4.511036 -0.662144 0
M  V30 40 H -1.962614 -0.994257 2.783782 0
M  V30 41 H -2.468530 0.502985 3.602132 0
M  V30 42 H -4.074291 -0.640270 1.245684 0
M  V30 43 H -4.410801 -0.717687 3.052642 0
M  V30 44 H -4.389479 2.881442 1.247910 0
M  V30 45 H -4.154058 1.452463 0.174960 0
M  V30 46 H -2.169767 2.803088 2.094844 0
M  V30 47 H -2.098789 2.461590 0.326103 0
M  V30 48 H -2.405583 -5.998594 1.204259 0
M  V30 49 H -3.616052 -5.854080 -0.946954 0
M  V30 50 H -2.714151 -4.306987 -2.656294 0
M  V30 END ATOM
M  V30 BEGIN BOND
M  V30 1 2 1 2
M  V30 2 1 2 3
M  V30 3 1 3 4
M  V30 4 1 4 5
M  V30 5 2 5 6
M  V30 6 1 6 7
M  V30 7 2 7 8
M  V30 8 1 8 9
M  V30 9 2 9 10
M  V30 10 1 10 11
M  V30 11 2 11 12
M  V30 12 1 12 13
M  V30 13 1 6 14
M  V30 14 2 14 15
M  V30 15 1 15 16
M  V30 16 1 16 17
M  V30 17 1 17 18
M  V30 18 1 18 19
M  V30 19 1 19 20
M  V30 20 1 20 21
M  V30 21 1 15 22
M  V30 22 2 22 23
M  V30 23 1 23 24
M  V30 24 1 24 25
M  V30 25 2 25 26
M  V30 26 1 26 27
M  V30 27 1 26 28
M  V30 28 2 28 29
M  V30 29 1 29 30
M  V30 30 2 30 31
M  V30 31 1 31 32
M  V30 32 1 24 2
M  V30 33 1 31 25
M  V30 34 1 23 5
M  V30 35 1 12 7
M  V30 36 1 21 16
M  V30 37 1 3 33
M  V30 38 1 4 34
M  V30 39 1 4 35
M  V30 40 1 8 36
M  V30 41 1 9 37
M  V30 42 1 10 38
M  V30 43 1 11 39
M  V30 44 1 17 40
M  V30 45 1 17 41
M  V30 46 1 18 42
M  V30 47 1 18 43
M  V30 48 1 20 44
M  V30 49 1 20 45
M  V30 50 1 21 46
M  V30 51 1 21 47
M  V30 52 1 28 48
M  V30 53 1 29 49
M  V30 54 1 30 50
M  V30 END BOND
M  V30 END CTAB
M  END
>  <Dataset>  (833) 
ChEMBL_Kinases

>  <Ligand_Instance>  (833) 
nan

>  <PDB_ID>  (833) 
nan

>  <Standardized_SMILES>  (833) 
O=C1NCc2c(-c3ccccc3Cl)nc(N3CCOCC3)nc2N1c1c(Cl)cccc1Cl

>  <Name>  (833) 
nan

>  <Pocket>  (833) 
nan

>  <ATP_Site>  (833) 
nan

>  <Peripheral>  (833) 
nan

>  <Num_H_Atoms_ProtBoundConf>  (833) 
nan

>  <Num_Resolved_Atoms>  (833) 
nan

>  <Num_Not_Resolved_Atoms>  (833) 
nan

$$$$
CHEMBL5074672
     RDKit          3D

  0  0  0  0  0  0  0  0  0  0999 V3000
M  V30 BEGIN CTAB
M  V30 COUNTS 68 72 0 0 0
M  V30 BEGIN ATOM
M  V30 1 C 3.036075 -1.033012 6.556222 0
M  V30 2 C 3.394635 -1.233770 5.109943 0
M  V30 3 C 3.029192 -0.408913 4.061572 0
M  V30 4 C 3.553283 -0.929355 2.875105 0
M  V30 5 N 3.298069 -0.233497 1.661101 0
M  V30 6 C 2.216414 -0.396766 0.752367 0
M  V30 7 C 2.153635 0.376474 -0.361648 0
M  V30 8 C 1.110279 0.227782 -1.250782 0
M  V30 9 N 1.012309 1.022892 -2.429462 0
M  V30 10 C -0.056185 0.918690 -3.427398 0
M  V30 11 C 0.334355 1.938157 -4.469846 0
M  V30 12 C 1.835526 2.135734 -4.292312 0 CFG=2
M  V30 13 N 2.490317 1.013471 -4.911505 0
M  V30 14 C 3.946909 1.095474 -4.801461 0
M  V30 15 C 2.171386 0.938940 -6.314106 0
M  V30 16 C 1.991037 2.059937 -2.786542 0
M  V30 17 N 0.171460 -0.696373 -0.979187 0
M  V30 18 C 0.213327 -1.473942 0.118943 0
M  V30 19 N -0.796872 -2.442831 0.375821 0
M  V30 20 C -0.697501 -3.254516 1.583401 0 CFG=1
M  V30 21 C -0.712529 -2.392543 2.825151 0
M  V30 22 C -2.088795 -2.584610 3.439097 0
M  V30 23 N -2.921650 -3.058775 2.325807 0
M  V30 24 C -4.197249 -2.852752 1.732298 0
M  V30 25 O -4.678442 -3.437210 0.718698 0
M  V30 26 C -5.268731 -1.944591 2.111074 0
M  V30 27 C -5.248148 -0.678138 1.539479 0
M  V30 28 C -6.274938 0.188663 1.902031 0
M  V30 29 C -7.284064 -0.159140 2.785482 0
M  V30 30 C -7.265491 -1.427159 3.329256 0
M  V30 31 Cl -8.491801 -1.937308 4.439867 0
M  V30 32 C -6.256591 -2.333913 2.997527 0
M  V30 33 F -6.238335 -3.565834 3.525716 0
M  V30 34 C -2.002422 -4.030316 1.771423 0
M  V30 35 N 1.246410 -1.303186 0.967267 0
M  V30 36 N 4.216110 -2.049468 3.249383 0
M  V30 37 N 4.121997 -2.222999 4.546954 0
M  V30 38 H 3.664232 -0.202170 6.956459 0
M  V30 39 H 3.101771 -1.963531 7.118455 0
M  V30 40 H 1.979551 -0.657970 6.622995 0
M  V30 41 H 2.422179 0.493096 4.224063 0
M  V30 42 H 4.039502 0.458273 1.494082 0
M  V30 43 H 2.936768 1.108675 -0.535906 0
M  V30 44 H -0.972707 1.258715 -2.921225 0
M  V30 45 H -0.117723 -0.102142 -3.836049 0
M  V30 46 H 0.072967 1.579440 -5.482240 0
M  V30 47 H -0.205213 2.905682 -4.305433 0
M  V30 48 H 2.185149 3.079979 -4.729106 0
M  V30 49 H 4.300222 2.012558 -5.275405 0
M  V30 50 H 4.320112 0.229853 -5.413801 0
M  V30 51 H 4.306841 0.918668 -3.777443 0
M  V30 52 H 3.017354 0.459449 -6.836275 0
M  V30 53 H 2.093238 1.975891 -6.747833 0
M  V30 54 H 1.279197 0.316262 -6.533297 0
M  V30 55 H 1.604764 3.002189 -2.354921 0
M  V30 56 H 3.001297 1.783693 -2.462171 0
M  V30 57 H -1.576881 -2.541151 -0.309641 0
M  V30 58 H 0.097051 -3.996691 1.546093 0
M  V30 59 H 0.049958 -2.764939 3.533863 0
M  V30 60 H -0.550593 -1.342517 2.529760 0
M  V30 61 H -2.079238 -3.396515 4.203076 0
M  V30 62 H -2.469215 -1.666355 3.891203 0
M  V30 63 H -4.467485 -0.378714 0.842310 0
M  V30 64 H -6.241600 1.176097 1.443639 0
M  V30 65 H -8.071827 0.565147 3.037311 0
M  V30 66 H -2.302564 -4.433990 0.796304 0
M  V30 67 H -1.845064 -4.879174 2.462099 0
M  V30 68 H 4.547756 -3.013964 5.077067 0
M  V30 END ATOM
M  V30 BEGIN BOND
M  V30 1 1 1 2
M  V30 2 2 2 3
M  V30 3 1 3 4
M  V30 4 1 4 5
M  V30 5 1 5 6
M  V30 6 2 6 7
M  V30 7 1 7 8
M  V30 8 1 8 9
M  V30 9 1 9 10
M  V30 10 1 10 11
M  V30 11 1 11 12
M  V30 12 1 12 13
M  V30 13 1 13 14
M  V30 14 1 13 15
M  V30 15 1 12 16
M  V30 16 2 8 17
M  V30 17 1 17 18
M  V30 18 1 18 19
M  V30 19 1 19 20
M  V30 20 1 20 21
M  V30 21 1 21 22
M  V30 22 1 22 23
M  V30 23 1 23 24
M  V30 24 2 24 25
M  V30 25 1 24 26
M  V30 26 2 26 27
M  V30 27 1 27 28
M  V30 28 2 28 29
M  V30 29 1 29 30
M  V30 30 1 30 31
M  V30 31 2 30 32
M  V30 32 1 32 33
M  V30 33 1 23 34
M  V30 34 2 18 35
M  V30 35 2 4 36
M  V30 36 1 36 37
M  V30 37 1 37 2
M  V30 38 1 35 6
M  V30 39 1 16 9
M  V30 40 1 34 20
M  V30 41 1 32 26
M  V30 42 1 1 38
M  V30 43 1 1 39
M  V30 44 1 1 40
M  V30 45 1 3 41
M  V30 46 1 5 42
M  V30 47 1 7 43
M  V30 48 1 10 44
M  V30 49 1 10 45
M  V30 50 1 11 46
M  V30 51 1 11 47
M  V30 52 1 12 48 CFG=3
M  V30 53 1 14 49
M  V30 54 1 14 50
M  V30 55 1 14 51
M  V30 56 1 15 52
M  V30 57 1 15 53
M  V30 58 1 15 54
M  V30 59 1 16 55
M  V30 60 1 16 56
M  V30 61 1 19 57
M  V30 62 1 20 58 CFG=3
M  V30 63 1 21 59
M  V30 64 1 21 60
M  V30 65 1 22 61
M  V30 66 1 22 62
M  V30 67 1 27 63
M  V30 68 1 28 64
M  V30 69 1 29 65
M  V30 70 1 34 66
M  V30 71 1 34 67
M  V30 72 1 37 68
M  V30 END BOND
M  V30 END CTAB
M  END
>  <Dataset>  (834) 
ChEMBL_Kinases

>  <Ligand_Instance>  (834) 
nan

>  <PDB_ID>  (834) 
nan

>  <Standardized_SMILES>  (834) 
Cc1cc(Nc2cc(N3CC[C@H](N(C)C)C3)nc(N[C@H]3CCN(C(=O)c4cccc(Cl)c4F)C3)n2)n[nH]1

>  <Name>  (834) 
nan

>  <Pocket>  (834) 
nan

>  <ATP_Site>  (834) 
nan

>  <Peripheral>  (834) 
nan

>  <Num_H_Atoms_ProtBoundConf>  (834) 
nan

>  <Num_Resolved_Atoms>  (834) 
nan

>  <Num_Not_Resolved_Atoms>  (834) 
nan

$$$$
CHEMBL3702291
     RDKit          3D

  0  0  0  0  0  0  0  0  0  0999 V3000
M  V30 BEGIN CTAB
M  V30 COUNTS 57 60 0 0 0
M  V30 BEGIN ATOM
M  V30 1 C -0.277147 -0.969322 0.300052 0
M  V30 2 C -0.279734 -0.636159 1.742894 0
M  V30 3 C 0.815994 0.048817 2.199408 0
M  V30 4 C 2.021751 0.519529 1.519792 0
M  V30 5 O 2.143379 0.294539 0.308659 0
M  V30 6 N 3.041958 1.211426 2.176028 0
M  V30 7 C 4.267716 1.749850 1.728898 0
M  V30 8 C 4.285383 2.788109 0.688941 0
M  V30 9 C 5.776943 3.160657 0.476139 0
M  V30 10 O 5.875628 4.083428 -0.564224 0
M  V30 11 C 5.552784 3.414667 -1.741110 0
M  V30 12 C 4.051554 3.123650 -1.665544 0
M  V30 13 N 3.815534 2.182198 -0.568689 0
M  V30 14 S 0.529002 0.301663 3.900084 0
M  V30 15 C -1.056055 -0.508692 4.000434 0
M  V30 16 N -1.916684 -0.730100 4.975183 0
M  V30 17 C -3.069986 -1.387399 4.764393 0
M  V30 18 N -3.258379 -1.787839 3.498463 0
M  V30 19 C -2.413618 -1.584115 2.483376 0
M  V30 20 N -2.944098 -2.141763 1.293589 0
M  V30 21 C -2.805349 -3.503184 0.909094 0
M  V30 22 C -2.141280 -4.455152 1.649657 0
M  V30 23 C -2.056566 -5.758003 1.200813 0
M  V30 24 C -2.644540 -6.126264 -0.012408 0
M  V30 25 N -3.301234 -5.179456 -0.742577 0
M  V30 26 C -3.364296 -3.925706 -0.277896 0
M  V30 27 O -4.033480 -3.006103 -1.044213 0
M  V30 28 C -4.658743 -3.256333 -2.270810 0
M  V30 29 C -6.095005 -2.772504 -2.170283 0
M  V30 30 C -3.930218 -2.410242 -3.320445 0
M  V30 31 C -1.229639 -0.912765 2.684383 0
M  V30 32 H 0.466067 -1.761043 0.084964 0
M  V30 33 H -1.233984 -1.337329 -0.099595 0
M  V30 34 H -0.068049 -0.042644 -0.303019 0
M  V30 35 H 2.840426 1.354125 3.215518 0
M  V30 36 H 4.856004 0.870122 1.296528 0
M  V30 37 H 4.912394 2.047432 2.600948 0
M  V30 38 H 3.795419 3.746349 0.907780 0
M  V30 39 H 6.117501 3.660080 1.405402 0
M  V30 40 H 6.360418 2.259999 0.279187 0
M  V30 41 H 6.057305 2.413884 -1.757787 0
M  V30 42 H 5.756624 4.008176 -2.642026 0
M  V30 43 H 3.509372 4.060969 -1.556985 0
M  V30 44 H 3.781965 2.618569 -2.609252 0
M  V30 45 H 4.373152 1.299523 -0.747291 0
M  V30 46 H -3.736039 -1.540857 5.595699 0
M  V30 47 H -3.462176 -1.480053 0.698156 0
M  V30 48 H -1.691460 -4.167775 2.579243 0
M  V30 49 H -1.532804 -6.510120 1.784401 0
M  V30 50 H -2.611876 -7.129414 -0.413817 0
M  V30 51 H -4.589778 -4.300566 -2.582465 0
M  V30 52 H -6.614564 -3.265679 -1.345914 0
M  V30 53 H -6.141497 -1.683230 -1.971883 0
M  V30 54 H -6.631947 -2.894978 -3.152648 0
M  V30 55 H -4.273578 -1.351996 -3.269346 0
M  V30 56 H -4.047860 -2.813747 -4.344894 0
M  V30 57 H -2.830596 -2.400977 -3.081896 0
M  V30 END ATOM
M  V30 BEGIN BOND
M  V30 1 1 1 2
M  V30 2 2 2 3
M  V30 3 1 3 4
M  V30 4 2 4 5
M  V30 5 1 4 6
M  V30 6 1 6 7
M  V30 7 1 7 8
M  V30 8 1 8 9
M  V30 9 1 9 10
M  V30 10 1 10 11
M  V30 11 1 11 12
M  V30 12 1 12 13
M  V30 13 1 3 14
M  V30 14 1 14 15
M  V30 15 2 15 16
M  V30 16 1 16 17
M  V30 17 2 17 18
M  V30 18 1 18 19
M  V30 19 1 19 20
M  V30 20 1 20 21
M  V30 21 2 21 22
M  V30 22 1 22 23
M  V30 23 2 23 24
M  V30 24 1 24 25
M  V30 25 2 25 26
M  V30 26 1 26 27
M  V30 27 1 27 28
M  V30 28 1 28 29
M  V30 29 1 28 30
M  V30 30 2 19 31
M  V30 31 1 31 2
M  V30 32 1 13 8
M  V30 33 1 31 15
M  V30 34 1 26 21
M  V30 35 1 1 32
M  V30 36 1 1 33
M  V30 37 1 1 34
M  V30 38 1 6 35
M  V30 39 1 7 36
M  V30 40 1 7 37
M  V30 41 1 8 38
M  V30 42 1 9 39
M  V30 43 1 9 40
M  V30 44 1 11 41
M  V30 45 1 11 42
M  V30 46 1 12 43
M  V30 47 1 12 44
M  V30 48 1 13 45
M  V30 49 1 17 46
M  V30 50 1 20 47
M  V30 51 1 22 48
M  V30 52 1 23 49
M  V30 53 1 24 50
M  V30 54 1 28 51
M  V30 55 1 29 52
M  V30 56 1 29 53
M  V30 57 1 29 54
M  V30 58 1 30 55
M  V30 59 1 30 56
M  V30 60 1 30 57
M  V30 END BOND
M  V30 END CTAB
M  END
>  <Dataset>  (835) 
ChEMBL_Kinases

>  <Ligand_Instance>  (835) 
nan

>  <PDB_ID>  (835) 
nan

>  <Standardized_SMILES>  (835) 
Cc1c(C(=O)NCC2COCCN2)sc2ncnc(Nc3cccnc3OC(C)C)c12

>  <Name>  (835) 
nan

>  <Pocket>  (835) 
nan

>  <ATP_Site>  (835) 
nan

>  <Peripheral>  (835) 
nan

>  <Num_H_Atoms_ProtBoundConf>  (835) 
nan

>  <Num_Resolved_Atoms>  (835) 
nan

>  <Num_Not_Resolved_Atoms>  (835) 
nan

$$$$
CHEMBL378759
     RDKit          3D

  0  0  0  0  0  0  0  0  0  0999 V3000
M  V30 BEGIN CTAB
M  V30 COUNTS 53 57 0 0 0
M  V30 BEGIN ATOM
M  V30 1 C 4.311742 -1.056644 5.308116 0
M  V30 2 C 4.236653 -1.824010 4.037505 0
M  V30 3 N 4.692230 -3.083463 3.863785 0
M  V30 4 N 4.477762 -3.486543 2.610680 0
M  V30 5 C 3.876751 -2.505414 1.927904 0
M  V30 6 C 3.441555 -2.397145 0.621963 0
M  V30 7 C 2.835921 -1.217794 0.185097 0
M  V30 8 C 2.679626 -0.173361 1.065515 0
M  V30 9 C 2.069000 1.123403 0.757479 0
M  V30 10 C 2.470663 2.293272 1.396354 0
M  V30 11 N 1.842940 3.443887 1.034829 0
M  V30 12 C 0.859906 3.439654 0.082642 0
M  V30 13 C 0.465174 2.249440 -0.554053 0
M  V30 14 S -0.819351 2.660027 -1.722058 0
M  V30 15 C -2.406144 2.557261 -0.871015 0
M  V30 16 C -2.828543 1.183121 -0.479505 0 CFG=1
M  V30 17 N -4.128585 1.238524 0.211150 0
M  V30 18 C -3.069513 0.326081 -1.702471 0
M  V30 19 C -3.502885 -1.040228 -1.353033 0
M  V30 20 C -4.839285 -1.440329 -1.494368 0
M  V30 21 N -4.960118 -2.739230 -1.110604 0
M  V30 22 C -3.750257 -3.231199 -0.714490 0
M  V30 23 C -3.272325 -4.435398 -0.241831 0
M  V30 24 C -1.915133 -4.581381 0.074069 0
M  V30 25 C -1.032053 -3.508810 -0.086595 0
M  V30 26 C -1.559645 -2.327375 -0.562117 0
M  V30 27 C -2.887880 -2.169096 -0.875872 0
M  V30 28 C 1.098645 1.082918 -0.190228 0
M  V30 29 C 3.119677 -0.278493 2.392379 0
M  V30 30 C 3.719775 -1.470249 2.793571 0
M  V30 31 H 5.264134 -1.339949 5.829989 0
M  V30 32 H 3.481011 -1.369049 5.971601 0
M  V30 33 H 4.275070 0.027818 5.080745 0
M  V30 34 H 4.717816 -4.398613 2.185933 0
M  V30 35 H 3.540841 -3.179406 -0.095932 0
M  V30 36 H 2.458737 -1.018566 -0.804943 0
M  V30 37 H 3.245443 2.270375 2.140644 0
M  V30 38 H 0.517847 4.464424 -0.028556 0
M  V30 39 H -2.400189 3.176290 0.075176 0
M  V30 40 H -3.233683 2.990682 -1.497013 0
M  V30 41 H -2.123188 0.686301 0.208479 0
M  V30 42 H -4.617710 0.320589 0.200513 0
M  V30 43 H -4.733719 1.945865 -0.220347 0
M  V30 44 H -3.777438 0.835224 -2.380718 0
M  V30 45 H -2.081819 0.266876 -2.229694 0
M  V30 46 H -5.690571 -0.883444 -1.839396 0
M  V30 47 H -5.851611 -3.308380 -1.110072 0
M  V30 48 H -3.958803 -5.247306 -0.124210 0
M  V30 49 H -1.557781 -5.550033 0.448659 0
M  V30 50 H 0.030917 -3.614822 0.158229 0
M  V30 51 H -0.858387 -1.516268 -0.676525 0
M  V30 52 H 0.689170 0.288727 -0.759864 0
M  V30 53 H 3.023675 0.507259 3.130110 0
M  V30 END ATOM
M  V30 BEGIN BOND
M  V30 1 1 1 2
M  V30 2 2 2 3
M  V30 3 1 3 4
M  V30 4 1 4 5
M  V30 5 2 5 6
M  V30 6 1 6 7
M  V30 7 2 7 8
M  V30 8 1 8 9
M  V30 9 2 9 10
M  V30 10 1 10 11
M  V30 11 2 11 12
M  V30 12 1 12 13
M  V30 13 1 13 14
M  V30 14 1 14 15
M  V30 15 1 15 16
M  V30 16 1 16 17
M  V30 17 1 16 18
M  V30 18 1 18 19
M  V30 19 2 19 20
M  V30 20 1 20 21
M  V30 21 1 21 22
M  V30 22 2 22 23
M  V30 23 1 23 24
M  V30 24 2 24 25
M  V30 25 1 25 26
M  V30 26 2 26 27
M  V30 27 2 13 28
M  V30 28 1 8 29
M  V30 29 2 29 30
M  V30 30 1 30 2
M  V30 31 1 30 5
M  V30 32 1 28 9
M  V30 33 1 27 19
M  V30 34 1 27 22
M  V30 35 1 1 31
M  V30 36 1 1 32
M  V30 37 1 1 33
M  V30 38 1 4 34
M  V30 39 1 6 35
M  V30 40 1 7 36
M  V30 41 1 10 37
M  V30 42 1 12 38
M  V30 43 1 15 39
M  V30 44 1 15 40
M  V30 45 1 16 41 CFG=1
M  V30 46 1 17 42
M  V30 47 1 17 43
M  V30 48 1 18 44
M  V30 49 1 18 45
M  V30 50 1 20 46
M  V30 51 1 21 47
M  V30 52 1 23 48
M  V30 53 1 24 49
M  V30 54 1 25 50
M  V30 55 1 26 51
M  V30 56 1 28 52
M  V30 57 1 29 53
M  V30 END BOND
M  V30 END CTAB
M  END
>  <Dataset>  (836) 
ChEMBL_Kinases

>  <Ligand_Instance>  (836) 
nan

>  <PDB_ID>  (836) 
nan

>  <Standardized_SMILES>  (836) 
Cc1n[nH]c2ccc(-c3cncc(SC[C@@H](N)Cc4c[nH]c5ccccc45)c3)cc12

>  <Name>  (836) 
nan

>  <Pocket>  (836) 
nan

>  <ATP_Site>  (836) 
nan

>  <Peripheral>  (836) 
nan

>  <Num_H_Atoms_ProtBoundConf>  (836) 
nan

>  <Num_Resolved_Atoms>  (836) 
nan

>  <Num_Not_Resolved_Atoms>  (836) 
nan

$$$$
CHEMBL5094514
     RDKit          3D

  0  0  0  0  0  0  0  0  0  0999 V3000
M  V30 BEGIN CTAB
M  V30 COUNTS 63 65 0 0 0
M  V30 BEGIN ATOM
M  V30 1 C 4.504152 -2.514958 4.374161 0
M  V30 2 N 3.351839 -1.979000 5.111479 0
M  V30 3 C 2.588721 -0.945553 4.526735 0
M  V30 4 C 2.898560 -0.425370 3.274721 0
M  V30 5 C 2.187528 0.583713 2.661062 0
M  V30 6 C 2.557840 1.093078 1.357861 0
M  V30 7 C 3.612586 0.641118 0.613379 0
M  V30 8 C 3.922278 1.171527 -0.636255 0
M  V30 9 C 3.081074 2.184713 -1.057035 0
M  V30 10 N 2.028941 2.647961 -0.333595 0
M  V30 11 C 1.761505 2.103664 0.879145 0
M  V30 12 N 0.624846 2.716173 1.469497 0
M  V30 13 C -0.735023 2.390541 1.229185 0
M  V30 14 C -0.983550 1.380849 0.331901 0
M  V30 15 C -2.309902 1.088063 0.103437 0
M  V30 16 N -2.791059 0.091446 -0.779809 0
M  V30 17 C -3.162143 -1.278531 -0.782433 0
M  V30 18 O -3.116165 -2.012702 0.235780 0
M  V30 19 N -3.594814 -1.756815 -2.048322 0
M  V30 20 C -3.996017 -3.137189 -2.166508 0
M  V30 21 C -2.928030 -4.127477 -1.834173 0
M  V30 22 C -1.700066 -4.052692 -2.682351 0
M  V30 23 C -1.958752 -4.273019 -4.142991 0
M  V30 24 C -0.871500 -2.794809 -2.415264 0
M  V30 25 C -0.783877 -5.207131 -2.242317 0
M  V30 26 C -3.336887 1.778231 0.747984 0
M  V30 27 F -4.669680 1.511287 0.543485 0
M  V30 28 C -3.058760 2.803943 1.659586 0
M  V30 29 C -1.710447 3.097998 1.888183 0
M  V30 30 C -1.471327 4.187115 2.855955 0
M  V30 31 N 1.151936 1.066399 3.329050 0
M  V30 32 C 0.842020 0.568418 4.545803 0
M  V30 33 N 1.536643 -0.424406 5.156694 0
M  V30 34 H 5.244750 -1.712458 4.198956 0
M  V30 35 H 4.976997 -3.342708 4.930584 0
M  V30 36 H 4.138643 -2.879504 3.370705 0
M  V30 37 H 3.094316 -2.344383 6.043199 0
M  V30 38 H 3.769658 -0.890842 2.807816 0
M  V30 39 H 4.238290 -0.151155 0.987410 0
M  V30 40 H 4.747413 0.830261 -1.239036 0
M  V30 41 H 3.333087 2.595016 -2.042072 0
M  V30 42 H 1.081192 3.421452 2.082304 0
M  V30 43 H -0.240498 0.813514 -0.194669 0
M  V30 44 H -2.834101 0.699532 -1.652188 0
M  V30 45 H -3.643732 -1.157444 -2.925582 0
M  V30 46 H -4.365105 -3.363296 -3.194500 0
M  V30 47 H -4.862575 -3.364758 -1.498920 0
M  V30 48 H -2.601258 -4.046922 -0.771950 0
M  V30 49 H -3.360222 -5.154995 -2.003218 0
M  V30 50 H -1.632234 -3.346065 -4.695690 0
M  V30 51 H -1.344261 -5.081024 -4.598405 0
M  V30 52 H -3.041274 -4.490270 -4.338623 0
M  V30 53 H -0.687462 -2.658647 -1.350444 0
M  V30 54 H -1.348705 -1.956073 -2.933028 0
M  V30 55 H 0.149588 -2.912771 -2.883329 0
M  V30 56 H 0.083490 -5.258746 -2.930607 0
M  V30 57 H -0.410057 -4.977254 -1.223352 0
M  V30 58 H -1.361173 -6.155125 -2.246433 0
M  V30 59 H -3.868037 3.322587 2.144997 0
M  V30 60 H -2.048907 5.078239 2.472366 0
M  V30 61 H -1.907104 3.962433 3.866355 0
M  V30 62 H -0.429660 4.493227 2.912042 0
M  V30 63 H 0.001006 0.919028 5.151575 0
M  V30 END ATOM
M  V30 BEGIN BOND
M  V30 1 1 1 2
M  V30 2 1 2 3
M  V30 3 2 3 4
M  V30 4 1 4 5
M  V30 5 1 5 6
M  V30 6 2 6 7
M  V30 7 1 7 8
M  V30 8 2 8 9
M  V30 9 1 9 10
M  V30 10 2 10 11
M  V30 11 1 11 12
M  V30 12 1 12 13
M  V30 13 2 13 14
M  V30 14 1 14 15
M  V30 15 1 15 16
M  V30 16 1 16 17
M  V30 17 2 17 18
M  V30 18 1 17 19
M  V30 19 1 19 20
M  V30 20 1 20 21
M  V30 21 1 21 22
M  V30 22 1 22 23
M  V30 23 1 22 24
M  V30 24 1 22 25
M  V30 25 2 15 26
M  V30 26 1 26 27
M  V30 27 1 26 28
M  V30 28 2 28 29
M  V30 29 1 29 30
M  V30 30 2 5 31
M  V30 31 1 31 32
M  V30 32 2 32 33
M  V30 33 1 33 3
M  V30 34 1 11 6
M  V30 35 1 29 13
M  V30 36 1 1 34
M  V30 37 1 1 35
M  V30 38 1 1 36
M  V30 39 1 2 37
M  V30 40 1 4 38
M  V30 41 1 7 39
M  V30 42 1 8 40
M  V30 43 1 9 41
M  V30 44 1 12 42
M  V30 45 1 14 43
M  V30 46 1 16 44
M  V30 47 1 19 45
M  V30 48 1 20 46
M  V30 49 1 20 47
M  V30 50 1 21 48
M  V30 51 1 21 49
M  V30 52 1 23 50
M  V30 53 1 23 51
M  V30 54 1 23 52
M  V30 55 1 24 53
M  V30 56 1 24 54
M  V30 57 1 24 55
M  V30 58 1 25 56
M  V30 59 1 25 57
M  V30 60 1 25 58
M  V30 61 1 28 59
M  V30 62 1 30 60
M  V30 63 1 30 61
M  V30 64 1 30 62
M  V30 65 1 32 63
M  V30 END BOND
M  V30 END CTAB
M  END
>  <Dataset>  (837) 
ChEMBL_Kinases

>  <Ligand_Instance>  (837) 
nan

>  <PDB_ID>  (837) 
nan

>  <Standardized_SMILES>  (837) 
CNc1cc(-c2cccnc2Nc2cc(NC(=O)NCCC(C)(C)C)c(F)cc2C)ncn1

>  <Name>  (837) 
nan

>  <Pocket>  (837) 
nan

>  <ATP_Site>  (837) 
nan

>  <Peripheral>  (837) 
nan

>  <Num_H_Atoms_ProtBoundConf>  (837) 
nan

>  <Num_Resolved_Atoms>  (837) 
nan

>  <Num_Not_Resolved_Atoms>  (837) 
nan

$$$$
CHEMBL5094650
     RDKit          3D

  0  0  0  0  0  0  0  0  0  0999 V3000
M  V30 BEGIN CTAB
M  V30 COUNTS 28 29 0 0 0
M  V30 BEGIN ATOM
M  V30 1 C 2.472624 -2.226073 5.324698 0
M  V30 2 O 1.724358 -2.654688 4.202377 0
M  V30 3 C 1.353323 -1.854797 3.135432 0
M  V30 4 C 0.623157 -2.602021 2.255199 0
M  V30 5 C 0.153714 -1.957042 1.094067 0
M  V30 6 C 0.436050 -0.627462 0.879767 0
M  V30 7 C -0.061153 0.149414 -0.242320 0
M  V30 8 C -0.107381 1.520486 -0.368416 0
M  V30 9 C -0.643642 2.199379 -1.434220 0
M  V30 10 N -1.177743 1.461688 -2.445586 0
M  V30 11 C -1.178041 0.142436 -2.402213 0
M  V30 12 C -1.882641 -0.479527 -3.585290 0
M  V30 13 C -0.633553 -0.508400 -1.334709 0
M  V30 14 C 1.191421 0.096107 1.814176 0
M  V30 15 C 1.676700 -0.508348 2.984579 0
M  V30 16 H 1.848104 -2.437964 6.241952 0
M  V30 17 H 3.442273 -2.768615 5.351058 0
M  V30 18 H 2.682195 -1.122094 5.340181 0
M  V30 19 H 0.328614 -3.619567 2.288181 0
M  V30 20 H -0.453023 -2.474925 0.347534 0
M  V30 21 H 0.337989 2.095603 0.464060 0
M  V30 22 H -0.606996 3.285677 -1.415232 0
M  V30 23 H -1.840790 0.173890 -4.470454 0
M  V30 24 H -2.992304 -0.575051 -3.296531 0
M  V30 25 H -1.536158 -1.512877 -3.754027 0
M  V30 26 H -0.695537 -1.564570 -1.423849 0
M  V30 27 H 1.492245 1.138550 1.806833 0
M  V30 28 H 2.251802 -0.022194 3.745366 0
M  V30 END ATOM
M  V30 BEGIN BOND
M  V30 1 1 1 2
M  V30 2 1 2 3
M  V30 3 2 3 4
M  V30 4 1 4 5
M  V30 5 2 5 6
M  V30 6 1 6 7
M  V30 7 2 7 8
M  V30 8 1 8 9
M  V30 9 2 9 10
M  V30 10 1 10 11
M  V30 11 1 11 12
M  V30 12 2 11 13
M  V30 13 1 6 14
M  V30 14 2 14 15
M  V30 15 1 15 3
M  V30 16 1 13 7
M  V30 17 1 1 16
M  V30 18 1 1 17
M  V30 19 1 1 18
M  V30 20 1 4 19
M  V30 21 1 5 20
M  V30 22 1 8 21
M  V30 23 1 9 22
M  V30 24 1 12 23
M  V30 25 1 12 24
M  V30 26 1 12 25
M  V30 27 1 13 26
M  V30 28 1 14 27
M  V30 29 1 15 28
M  V30 END BOND
M  V30 END CTAB
M  END
>  <Dataset>  (838) 
ChEMBL_Kinases

>  <Ligand_Instance>  (838) 
nan

>  <PDB_ID>  (838) 
nan

>  <Standardized_SMILES>  (838) 
COc1ccc(-c2ccnc(C)c2)cc1

>  <Name>  (838) 
nan

>  <Pocket>  (838) 
nan

>  <ATP_Site>  (838) 
nan

>  <Peripheral>  (838) 
nan

>  <Num_H_Atoms_ProtBoundConf>  (838) 
nan

>  <Num_Resolved_Atoms>  (838) 
nan

>  <Num_Not_Resolved_Atoms>  (838) 
nan

$$$$
CHEMBL5094704
     RDKit          3D

  0  0  0  0  0  0  0  0  0  0999 V3000
M  V30 BEGIN CTAB
M  V30 COUNTS 67 70 0 0 0
M  V30 BEGIN ATOM
M  V30 1 C 9.193366 -0.175329 0.550091 0
M  V30 2 O 8.019146 0.454821 0.985868 0
M  V30 3 C 7.980216 1.359284 2.025579 0
M  V30 4 O 9.083579 1.612259 2.596734 0
M  V30 5 C 6.874538 2.110879 2.619814 0
M  V30 6 C 5.536616 1.862541 1.993134 0
M  V30 7 C 5.085802 0.421893 2.064465 0 CFG=2
M  V30 8 N 3.773233 0.241446 1.435097 0
M  V30 9 C 3.577660 -0.630481 0.331870 0
M  V30 10 O 4.557447 -1.284782 -0.140714 0
M  V30 11 C 2.285996 -0.831963 -0.316396 0
M  V30 12 C 2.220734 -1.704814 -1.381859 0
M  V30 13 C 1.028543 -1.959895 -2.063605 0
M  V30 14 C -0.129210 -1.321383 -1.664794 0
M  V30 15 C -0.041678 -0.446480 -0.589718 0
M  V30 16 C 1.138918 -0.185253 0.095689 0
M  V30 17 C -1.113132 0.343822 0.020299 0
M  V30 18 O -0.816336 1.372538 0.679383 0
M  V30 19 C -2.546557 -0.009900 -0.099969 0
M  V30 20 C -3.343819 0.870535 0.603457 0
M  V30 21 C -4.710820 0.758562 0.650393 0
M  V30 22 C -5.333170 -0.268711 -0.026371 0
M  V30 23 N -6.748238 -0.411969 -0.000127 0
M  V30 24 C -7.568144 -1.410376 -0.594717 0
M  V30 25 C -8.487765 -0.919929 -1.519083 0
M  V30 26 C -9.321001 -1.851780 -2.133929 0
M  V30 27 C -9.272418 -3.194639 -1.872002 0
M  V30 28 C -8.349176 -3.643659 -0.950953 0
M  V30 29 C -7.505929 -2.751066 -0.320409 0
M  V30 30 N -6.554337 -3.201409 0.630183 0
M  V30 31 C -4.534170 -1.144737 -0.726959 0
M  V30 32 C -3.157278 -1.055260 -0.790740 0
M  V30 33 C -2.500319 -2.111334 -1.605669 0
M  V30 34 C -1.358054 -1.642001 -2.439478 0
M  V30 35 C 4.952904 -0.039030 3.470536 0
M  V30 36 O 5.883774 -0.041425 4.345523 0
M  V30 37 O 3.788496 -0.537075 4.039606 0
M  V30 38 C 3.746922 -0.955990 5.392580 0
M  V30 39 H 9.002124 -1.181227 0.154002 0
M  V30 40 H 9.938619 -0.316765 1.373304 0
M  V30 41 H 9.727467 0.395658 -0.239060 0
M  V30 42 H 6.817138 2.013447 3.741083 0
M  V30 43 H 7.084009 3.206912 2.461612 0
M  V30 44 H 4.801421 2.514406 2.534215 0
M  V30 45 H 5.549276 2.242762 0.954123 0
M  V30 46 H 5.855664 -0.184387 1.585486 0
M  V30 47 H 2.969901 0.776221 1.820465 0
M  V30 48 H 3.074985 -2.238494 -1.751289 0
M  V30 49 H 0.946346 -2.638529 -2.901441 0
M  V30 50 H 1.159005 0.504462 0.926969 0
M  V30 51 H -2.887498 1.693323 1.149825 0
M  V30 52 H -5.371149 1.440754 1.199523 0
M  V30 53 H -7.310791 0.291035 0.516901 0
M  V30 54 H -8.575014 0.129783 -1.768988 0
M  V30 55 H -10.036318 -1.505365 -2.847456 0
M  V30 56 H -9.931694 -3.912555 -2.361713 0
M  V30 57 H -8.320391 -4.710099 -0.751686 0
M  V30 58 H -5.543324 -3.455210 0.708440 0
M  V30 59 H -6.568838 -3.447778 1.664261 0
M  V30 60 H -4.934754 -1.971465 -1.282430 0
M  V30 61 H -2.088903 -2.915475 -0.928172 0
M  V30 62 H -3.236723 -2.617443 -2.249809 0
M  V30 63 H -1.142796 -2.386335 -3.209908 0
M  V30 64 H -1.644749 -0.678333 -2.950181 0
M  V30 65 H 4.533685 -0.419292 5.993556 0
M  V30 66 H 2.767847 -0.783412 5.868678 0
M  V30 67 H 4.039882 -2.024729 5.401653 0
M  V30 END ATOM
M  V30 BEGIN BOND
M  V30 1 1 1 2
M  V30 2 1 2 3
M  V30 3 2 3 4
M  V30 4 1 3 5
M  V30 5 1 5 6
M  V30 6 1 6 7
M  V30 7 1 7 8
M  V30 8 1 8 9
M  V30 9 2 9 10
M  V30 10 1 9 11
M  V30 11 2 11 12
M  V30 12 1 12 13
M  V30 13 2 13 14
M  V30 14 1 14 15
M  V30 15 2 15 16
M  V30 16 1 15 17
M  V30 17 2 17 18
M  V30 18 1 17 19
M  V30 19 2 19 20
M  V30 20 1 20 21
M  V30 21 2 21 22
M  V30 22 1 22 23
M  V30 23 1 23 24
M  V30 24 2 24 25
M  V30 25 1 25 26
M  V30 26 2 26 27
M  V30 27 1 27 28
M  V30 28 2 28 29
M  V30 29 1 29 30
M  V30 30 1 22 31
M  V30 31 2 31 32
M  V30 32 1 32 33
M  V30 33 1 33 34
M  V30 34 1 7 35
M  V30 35 2 35 36
M  V30 36 1 35 37
M  V30 37 1 37 38
M  V30 38 1 16 11
M  V30 39 1 32 19
M  V30 40 1 34 14
M  V30 41 1 29 24
M  V30 42 1 1 39
M  V30 43 1 1 40
M  V30 44 1 1 41
M  V30 45 1 5 42
M  V30 46 1 5 43
M  V30 47 1 6 44
M  V30 48 1 6 45
M  V30 49 1 7 46 CFG=3
M  V30 50 1 8 47
M  V30 51 1 12 48
M  V30 52 1 13 49
M  V30 53 1 16 50
M  V30 54 1 20 51
M  V30 55 1 21 52
M  V30 56 1 23 53
M  V30 57 1 25 54
M  V30 58 1 26 55
M  V30 59 1 27 56
M  V30 60 1 28 57
M  V30 61 1 30 58
M  V30 62 1 30 59
M  V30 63 1 31 60
M  V30 64 1 33 61
M  V30 65 1 33 62
M  V30 66 1 34 63
M  V30 67 1 34 64
M  V30 68 1 38 65
M  V30 69 1 38 66
M  V30 70 1 38 67
M  V30 END BOND
M  V30 END CTAB
M  END
>  <Dataset>  (839) 
ChEMBL_Kinases

>  <Ligand_Instance>  (839) 
nan

>  <PDB_ID>  (839) 
nan

>  <Standardized_SMILES>  (839) 
COC(=O)CC[C@H](NC(=O)c1ccc2c(c1)C(=O)c1ccc(Nc3ccccc3N)cc1CC2)C(=O)OC

>  <Name>  (839) 
nan

>  <Pocket>  (839) 
nan

>  <ATP_Site>  (839) 
nan

>  <Peripheral>  (839) 
nan

>  <Num_H_Atoms_ProtBoundConf>  (839) 
nan

>  <Num_Resolved_Atoms>  (839) 
nan

>  <Num_Not_Resolved_Atoms>  (839) 
nan

$$$$
CHEMBL5094822
     RDKit          3D

  0  0  0  0  0  0  0  0  0  0999 V3000
M  V30 BEGIN CTAB
M  V30 COUNTS 31 33 0 0 0
M  V30 BEGIN ATOM
M  V30 1 C -3.933802 -1.787586 4.529376 0
M  V30 2 C -3.044695 -1.143516 3.533056 0
M  V30 3 C -2.010454 -1.886951 2.967220 0
M  V30 4 C -1.363796 -1.032186 2.089036 0
M  V30 5 C -0.282462 -1.178019 1.246421 0
M  V30 6 C 0.151366 -0.126614 0.467418 0
M  V30 7 C 1.305448 -0.399755 -0.385034 0
M  V30 8 C 1.511053 -1.660173 -0.908363 0
M  V30 9 C 2.637299 -1.785379 -1.697084 0
M  V30 10 N 2.963978 -3.032721 -2.297592 0
M  V30 11 N 3.507608 -0.805495 -1.976572 0
M  V30 12 C 3.325701 0.437144 -1.474472 0
M  V30 13 N 4.160831 1.567604 -1.684367 0
M  V30 14 C 2.209023 0.599643 -0.680652 0
M  V30 15 C -0.514905 1.076168 0.544383 0
M  V30 16 C -1.603205 1.243331 1.384226 0
M  V30 17 C -2.025652 0.173565 2.161069 0
M  V30 18 O -3.007283 0.056578 3.025079 0
M  V30 19 H -4.869147 -1.201569 4.679372 0
M  V30 20 H -3.448579 -1.872388 5.539001 0
M  V30 21 H -4.198697 -2.829799 4.263874 0
M  V30 22 H -1.711279 -2.918934 3.128237 0
M  V30 23 H 0.193375 -2.142092 1.232736 0
M  V30 24 H 0.843536 -2.470802 -0.711859 0
M  V30 25 H 3.459066 -3.949344 -2.355417 0
M  V30 26 H 2.368970 -3.004662 -3.167786 0
M  V30 27 H 3.846676 2.017220 -2.585310 0
M  V30 28 H 4.943714 1.889477 -1.054308 0
M  V30 29 H 2.002321 1.567449 -0.246412 0
M  V30 30 H -0.142961 1.872370 -0.081647 0
M  V30 31 H -2.118409 2.203124 1.431832 0
M  V30 END ATOM
M  V30 BEGIN BOND
M  V30 1 1 1 2
M  V30 2 2 2 3
M  V30 3 1 3 4
M  V30 4 2 4 5
M  V30 5 1 5 6
M  V30 6 1 6 7
M  V30 7 2 7 8
M  V30 8 1 8 9
M  V30 9 1 9 10
M  V30 10 2 9 11
M  V30 11 1 11 12
M  V30 12 1 12 13
M  V30 13 2 12 14
M  V30 14 2 6 15
M  V30 15 1 15 16
M  V30 16 2 16 17
M  V30 17 1 17 18
M  V30 18 1 18 2
M  V30 19 1 17 4
M  V30 20 1 14 7
M  V30 21 1 1 19
M  V30 22 1 1 20
M  V30 23 1 1 21
M  V30 24 1 3 22
M  V30 25 1 5 23
M  V30 26 1 8 24
M  V30 27 1 10 25
M  V30 28 1 10 26
M  V30 29 1 13 27
M  V30 30 1 13 28
M  V30 31 1 14 29
M  V30 32 1 15 30
M  V30 33 1 16 31
M  V30 END BOND
M  V30 END CTAB
M  END
>  <Dataset>  (840) 
ChEMBL_Kinases

>  <Ligand_Instance>  (840) 
nan

>  <PDB_ID>  (840) 
nan

>  <Standardized_SMILES>  (840) 
Cc1cc2cc(-c3cc(N)nc(N)c3)ccc2o1

>  <Name>  (840) 
nan

>  <Pocket>  (840) 
nan

>  <ATP_Site>  (840) 
nan

>  <Peripheral>  (840) 
nan

>  <Num_H_Atoms_ProtBoundConf>  (840) 
nan

>  <Num_Resolved_Atoms>  (840) 
nan

>  <Num_Not_Resolved_Atoms>  (840) 
nan

$$$$
CHEMBL577792
     RDKit          3D

  0  0  0  0  0  0  0  0  0  0999 V3000
M  V30 BEGIN CTAB
M  V30 COUNTS 63 68 0 0 0
M  V30 BEGIN ATOM
M  V30 1 O 2.491878 -2.266283 5.788223 0
M  V30 2 C 2.739290 -1.217800 5.154578 0
M  V30 3 C 3.881607 -0.520867 5.542812 0
M  V30 4 N 4.212775 0.620456 4.904262 0
M  V30 5 C 3.466971 1.108644 3.896386 0
M  V30 6 C 3.714783 2.323544 3.129077 0
M  V30 7 C 2.870038 3.424991 3.087230 0
M  V30 8 C 3.229792 4.513443 2.316706 0
M  V30 9 C 4.417309 4.520091 1.588536 0
M  V30 10 C 5.250835 3.405105 1.643957 0
M  V30 11 C 4.900845 2.309495 2.412074 0
M  V30 12 C 2.332709 0.427273 3.502296 0
M  V30 13 C 1.373713 0.748247 2.454317 0
M  V30 14 C 1.701689 0.826829 1.125336 0
M  V30 15 C 0.718184 1.136172 0.204176 0
M  V30 16 C -0.602926 1.378693 0.523471 0
M  V30 17 C -1.645414 1.713389 -0.463869 0
M  V30 18 N -2.324367 0.581800 -1.037658 0
M  V30 19 C -2.960695 -0.195152 -0.046800 0
M  V30 20 C -3.525951 -1.509209 -0.537922 0
M  V30 21 C -2.386068 -2.214205 -1.269880 0
M  V30 22 N -2.549585 -3.613281 -1.408434 0
M  V30 23 C -2.336437 -4.490479 -0.381337 0
M  V30 24 O -1.978414 -4.185155 0.790908 0
M  V30 25 N -2.574746 -5.731158 -0.838274 0
M  V30 26 C -2.937149 -5.702988 -2.129014 0
M  V30 27 C -3.279774 -6.695999 -3.031675 0
M  V30 28 C -3.618037 -6.341041 -4.338058 0
M  V30 29 C -3.590188 -4.995841 -4.657670 0
M  V30 30 C -3.247939 -4.048975 -3.742078 0
M  V30 31 C -2.907897 -4.365684 -2.441616 0
M  V30 32 C -2.115424 -1.395829 -2.464655 0
M  V30 33 C -1.450775 -0.104621 -1.923251 0
M  V30 34 C -0.860274 1.280688 1.896377 0
M  V30 35 C 0.073290 0.976575 2.865472 0
M  V30 36 N 1.992797 -0.721509 4.139714 0
M  V30 37 H 4.494697 -0.890514 6.345800 0
M  V30 38 H 1.960767 3.362580 3.674146 0
M  V30 39 H 2.547084 5.359138 2.305829 0
M  V30 40 H 4.628470 5.402570 1.013190 0
M  V30 41 H 6.176039 3.423246 1.070332 0
M  V30 42 H 5.597383 1.456637 2.418466 0
M  V30 43 H 2.732025 0.644361 0.811280 0
M  V30 44 H 1.031268 1.186997 -0.828014 0
M  V30 45 H -1.249992 2.406899 -1.258279 0
M  V30 46 H -2.374087 2.375389 0.095261 0
M  V30 47 H -2.262370 -0.396247 0.801921 0
M  V30 48 H -3.808226 0.378925 0.383135 0
M  V30 49 H -3.741625 -2.139453 0.352587 0
M  V30 50 H -4.435818 -1.407870 -1.123924 0
M  V30 51 H -1.516763 -2.058652 -0.556730 0
M  V30 52 H -2.475830 -6.573992 -0.225853 0
M  V30 53 H -3.260201 -7.715170 -2.645798 0
M  V30 54 H -3.862417 -7.203123 -4.934471 0
M  V30 55 H -3.868931 -4.823764 -5.695775 0
M  V30 56 H -3.246198 -3.019651 -4.055767 0
M  V30 57 H -3.054604 -0.947906 -2.914019 0
M  V30 58 H -1.400077 -1.764354 -3.193771 0
M  V30 59 H -0.586845 -0.489302 -1.357437 0
M  V30 60 H -1.233462 0.480247 -2.812828 0
M  V30 61 H -1.877027 1.455961 2.262106 0
M  V30 62 H -0.201841 0.920814 3.895996 0
M  V30 63 H 1.156669 -1.335696 3.939186 0
M  V30 END ATOM
M  V30 BEGIN BOND
M  V30 1 2 1 2
M  V30 2 1 2 3
M  V30 3 2 3 4
M  V30 4 1 4 5
M  V30 5 1 5 6
M  V30 6 2 6 7
M  V30 7 1 7 8
M  V30 8 2 8 9
M  V30 9 1 9 10
M  V30 10 2 10 11
M  V30 11 2 5 12
M  V30 12 1 12 13
M  V30 13 2 13 14
M  V30 14 1 14 15
M  V30 15 2 15 16
M  V30 16 1 16 17
M  V30 17 1 17 18
M  V30 18 1 18 19
M  V30 19 1 19 20
M  V30 20 1 20 21
M  V30 21 1 21 22
M  V30 22 1 22 23
M  V30 23 2 23 24
M  V30 24 1 23 25
M  V30 25 1 25 26
M  V30 26 2 26 27
M  V30 27 1 27 28
M  V30 28 2 28 29
M  V30 29 1 29 30
M  V30 30 2 30 31
M  V30 31 1 21 32
M  V30 32 1 32 33
M  V30 33 1 16 34
M  V30 34 2 34 35
M  V30 35 1 12 36
M  V30 36 1 36 2
M  V30 37 1 11 6
M  V30 38 1 35 13
M  V30 39 1 33 18
M  V30 40 1 31 22
M  V30 41 1 31 26
M  V30 42 1 3 37
M  V30 43 1 7 38
M  V30 44 1 8 39
M  V30 45 1 9 40
M  V30 46 1 10 41
M  V30 47 1 11 42
M  V30 48 1 14 43
M  V30 49 1 15 44
M  V30 50 1 17 45
M  V30 51 1 17 46
M  V30 52 1 19 47
M  V30 53 1 19 48
M  V30 54 1 20 49
M  V30 55 1 20 50
M  V30 56 1 21 51
M  V30 57 1 25 52
M  V30 58 1 27 53
M  V30 59 1 28 54
M  V30 60 1 29 55
M  V30 61 1 30 56
M  V30 62 1 32 57
M  V30 63 1 32 58
M  V30 64 1 33 59
M  V30 65 1 33 60
M  V30 66 1 34 61
M  V30 67 1 35 62
M  V30 68 1 36 63
M  V30 END BOND
M  V30 END CTAB
M  END
>  <Dataset>  (841) 
ChEMBL_Kinases

>  <Ligand_Instance>  (841) 
nan

>  <PDB_ID>  (841) 
nan

>  <Standardized_SMILES>  (841) 
O=c1cnc(-c2ccccc2)c(-c2ccc(CN3CCC(n4c(=O)[nH]c5ccccc54)CC3)cc2)[nH]1

>  <Name>  (841) 
nan

>  <Pocket>  (841) 
nan

>  <ATP_Site>  (841) 
nan

>  <Peripheral>  (841) 
nan

>  <Num_H_Atoms_ProtBoundConf>  (841) 
nan

>  <Num_Resolved_Atoms>  (841) 
nan

>  <Num_Not_Resolved_Atoms>  (841) 
nan

$$$$
CHEMBL577304
     RDKit          3D

  0  0  0  0  0  0  0  0  0  0999 V3000
M  V30 BEGIN CTAB
M  V30 COUNTS 67 70 0 0 0
M  V30 BEGIN ATOM
M  V30 1 C 4.913845 -0.175801 6.067034 0
M  V30 2 N 4.512599 -0.639026 4.750698 0
M  V30 3 C 5.541545 -1.146230 3.877569 0
M  V30 4 O 6.794752 -1.058937 3.802634 0
M  V30 5 N 4.913983 -1.945581 2.855599 0
M  V30 6 C 3.514937 -1.915473 3.117819 0
M  V30 7 O 2.545082 -2.638729 2.754987 0
M  V30 8 C 3.285106 -0.742613 4.015563 0
M  V30 9 C 2.063844 -0.948681 4.883958 0
M  V30 10 C 0.959505 -0.431314 4.016607 0
M  V30 11 C -0.417007 -0.620952 4.047860 0
M  V30 12 C -1.222766 -0.010401 3.103840 0
M  V30 13 C -0.633597 0.789928 2.131413 0
M  V30 14 N -1.529784 1.397388 1.176152 0
M  V30 15 C -1.757878 0.590063 0.010669 0
M  V30 16 O -1.073608 -0.461234 0.176621 0
M  V30 17 C -2.680123 1.190905 -0.995357 0
M  V30 18 N -2.789956 0.244174 -2.087634 0
M  V30 19 C -3.745884 -0.808806 -2.219720 0
M  V30 20 C -3.323049 -2.104660 -1.630185 0
M  V30 21 C -3.597672 -2.436813 -0.320099 0
M  V30 22 C -3.250073 -3.609304 0.317939 0
M  V30 23 C -2.556257 -4.525094 -0.462094 0
M  V30 24 C -2.123997 -5.825871 0.105083 0
M  V30 25 F -2.722879 -6.007314 1.321208 0
M  V30 26 F -2.486977 -6.885409 -0.718966 0
M  V30 27 F -0.739730 -5.867589 0.216700 0
M  V30 28 C -2.236590 -4.281159 -1.781305 0
M  V30 29 C -2.622625 -3.091485 -2.327949 0
M  V30 30 C -1.892018 0.318928 -3.161190 0
M  V30 31 O -1.767730 -0.361456 -4.211471 0
M  V30 32 C -0.741982 1.150947 -3.574692 0
M  V30 33 C -0.175621 0.684554 -4.902379 0
M  V30 34 C 0.388006 1.162927 -2.578276 0
M  V30 35 C -1.233288 2.575454 -3.719277 0
M  V30 36 C 0.726013 1.012382 2.053825 0
M  V30 37 C 1.486828 0.381689 3.017376 0
M  V30 38 C 2.982329 0.461358 3.151596 0
M  V30 39 H 4.022683 -0.107515 6.752287 0
M  V30 40 H 5.352377 0.847103 6.013477 0
M  V30 41 H 5.649900 -0.815580 6.560339 0
M  V30 42 H 5.283515 -2.485021 2.041244 0
M  V30 43 H 2.092351 -0.434055 5.844857 0
M  V30 44 H 1.989667 -2.024346 5.091983 0
M  V30 45 H -0.875968 -1.245843 4.807506 0
M  V30 46 H -2.306290 -0.160186 3.128688 0
M  V30 47 H -1.933764 2.355500 1.401278 0
M  V30 48 H -2.324463 2.164544 -1.342010 0
M  V30 49 H -3.657136 1.337309 -0.480212 0
M  V30 50 H -4.079697 -0.961161 -3.276137 0
M  V30 51 H -4.650314 -0.506881 -1.613744 0
M  V30 52 H -4.146811 -1.723769 0.313889 0
M  V30 53 H -3.499186 -3.797852 1.343326 0
M  V30 54 H -1.692491 -5.023261 -2.357928 0
M  V30 55 H -2.373256 -2.900634 -3.358852 0
M  V30 56 H -0.964391 0.632252 -5.675806 0
M  V30 57 H 0.582238 1.404155 -5.243475 0
M  V30 58 H 0.306929 -0.307535 -4.800921 0
M  V30 59 H 0.603526 0.166987 -2.142069 0
M  V30 60 H 0.237282 1.955933 -1.791356 0
M  V30 61 H 1.309846 1.467218 -3.124740 0
M  V30 62 H -2.358650 2.646115 -3.690366 0
M  V30 63 H -0.925626 2.968587 -4.702467 0
M  V30 64 H -0.869414 3.243716 -2.912699 0
M  V30 65 H 1.156519 1.638373 1.289005 0
M  V30 66 H 3.312732 1.405659 3.587192 0
M  V30 67 H 3.461374 0.339208 2.160334 0
M  V30 END ATOM
M  V30 BEGIN BOND
M  V30 1 1 1 2
M  V30 2 1 2 3
M  V30 3 2 3 4
M  V30 4 1 3 5
M  V30 5 1 5 6
M  V30 6 2 6 7
M  V30 7 1 6 8
M  V30 8 1 8 9
M  V30 9 1 9 10
M  V30 10 2 10 11
M  V30 11 1 11 12
M  V30 12 2 12 13
M  V30 13 1 13 14
M  V30 14 1 14 15
M  V30 15 2 15 16
M  V30 16 1 15 17
M  V30 17 1 17 18
M  V30 18 1 18 19
M  V30 19 1 19 20
M  V30 20 2 20 21
M  V30 21 1 21 22
M  V30 22 2 22 23
M  V30 23 1 23 24
M  V30 24 1 24 25
M  V30 25 1 24 26
M  V30 26 1 24 27
M  V30 27 1 23 28
M  V30 28 2 28 29
M  V30 29 1 18 30
M  V30 30 2 30 31
M  V30 31 1 30 32
M  V30 32 1 32 33
M  V30 33 1 32 34
M  V30 34 1 32 35
M  V30 35 1 13 36
M  V30 36 2 36 37
M  V30 37 1 37 38
M  V30 38 1 8 2
M  V30 39 1 37 10
M  V30 40 1 38 8
M  V30 41 1 29 20
M  V30 42 1 1 39
M  V30 43 1 1 40
M  V30 44 1 1 41
M  V30 45 1 5 42
M  V30 46 1 9 43
M  V30 47 1 9 44
M  V30 48 1 11 45
M  V30 49 1 12 46
M  V30 50 1 14 47
M  V30 51 1 17 48
M  V30 52 1 17 49
M  V30 53 1 19 50
M  V30 54 1 19 51
M  V30 55 1 21 52
M  V30 56 1 22 53
M  V30 57 1 28 54
M  V30 58 1 29 55
M  V30 59 1 33 56
M  V30 60 1 33 57
M  V30 61 1 33 58
M  V30 62 1 34 59
M  V30 63 1 34 60
M  V30 64 1 34 61
M  V30 65 1 35 62
M  V30 66 1 35 63
M  V30 67 1 35 64
M  V30 68 1 36 65
M  V30 69 1 38 66
M  V30 70 1 38 67
M  V30 END BOND
M  V30 END CTAB
M  END
>  <Dataset>  (842) 
ChEMBL_Kinases

>  <Ligand_Instance>  (842) 
nan

>  <PDB_ID>  (842) 
nan

>  <Standardized_SMILES>  (842) 
CN1C(=O)NC(=O)C12Cc1ccc(NC(=O)CN(Cc3ccc(C(F)(F)F)cc3)C(=O)C(C)(C)C)cc1C2

>  <Name>  (842) 
nan

>  <Pocket>  (842) 
nan

>  <ATP_Site>  (842) 
nan

>  <Peripheral>  (842) 
nan

>  <Num_H_Atoms_ProtBoundConf>  (842) 
nan

>  <Num_Resolved_Atoms>  (842) 
nan

>  <Num_Not_Resolved_Atoms>  (842) 
nan

$$$$
CHEMBL5094887
     RDKit          3D

  0  0  0  0  0  0  0  0  0  0999 V3000
M  V30 BEGIN CTAB
M  V30 COUNTS 60 64 0 0 0
M  V30 BEGIN ATOM
M  V30 1 C -1.238081 -3.792898 4.514641 0
M  V30 2 C -0.784766 -2.407004 4.244992 0
M  V30 3 C -0.765628 -1.489308 5.275406 0
M  V30 4 C -0.354218 -0.189630 5.077448 0
M  V30 5 C 0.060666 0.270556 3.846264 0
M  V30 6 N 0.471272 1.620977 3.710449 0
M  V30 7 C 0.931803 2.329347 2.583990 0
M  V30 8 O 1.011525 1.710795 1.494511 0
M  V30 9 C 1.313371 3.735182 2.638781 0
M  V30 10 C 1.756776 4.372271 1.498742 0
M  V30 11 C 2.104583 5.721513 1.629023 0
M  V30 12 C 2.577029 6.347442 0.350064 0
M  V30 13 F 1.622978 6.131188 -0.651696 0
M  V30 14 F 3.777409 5.813879 -0.021000 0
M  V30 15 F 2.614393 7.708732 0.565397 0
M  V30 16 N 2.017657 6.385387 2.803949 0
M  V30 17 C 1.578299 5.719272 3.891653 0
M  V30 18 N 1.236212 4.427440 3.805980 0
M  V30 19 C 0.025614 -0.675971 2.849803 0
M  V30 20 C -0.376264 -1.985256 2.995038 0
M  V30 21 C -0.377755 -2.916838 1.870765 0
M  V30 22 C 0.071218 -4.214032 1.819981 0
M  V30 23 C -0.025565 -4.923946 0.640348 0
M  V30 24 C -0.564479 -4.361577 -0.495694 0
M  V30 25 C -1.016840 -3.054744 -0.444999 0
M  V30 26 C -0.921772 -2.341314 0.733366 0
M  V30 27 O -1.571980 -2.408615 -1.535642 0
M  V30 28 C -1.362557 -2.652094 -2.916596 0
M  V30 29 C -1.881658 -1.476015 -3.735903 0
M  V30 30 C -1.067562 -1.376268 -4.987034 0
M  V30 31 O 0.207659 -0.892735 -4.712349 0
M  V30 32 C 0.725733 -1.419787 -3.536279 0
M  V30 33 C 0.113023 -2.761719 -3.200236 0
M  V30 34 C -2.014425 -3.932317 -3.371252 0
M  V30 35 C -1.290260 -5.090048 -2.781592 0
M  V30 36 O -1.336742 -6.121947 -3.506023 0
M  V30 37 N -0.548534 -5.303283 -1.573879 0
M  V30 38 H -1.730868 -4.276479 3.646306 0
M  V30 39 H -2.042225 -3.806118 5.309725 0
M  V30 40 H -0.436272 -4.433324 4.969795 0
M  V30 41 H -1.074176 -1.767928 6.268644 0
M  V30 42 H -0.360848 0.497002 5.938617 0
M  V30 43 H 0.440233 2.223091 4.571596 0
M  V30 44 H 1.825555 3.840271 0.561064 0
M  V30 45 H 1.520224 6.275816 4.812769 0
M  V30 46 H 0.329731 -0.412669 1.857816 0
M  V30 47 H 0.477274 -4.569424 2.756438 0
M  V30 48 H 0.339725 -5.941546 0.644740 0
M  V30 49 H -1.306916 -1.337858 0.645037 0
M  V30 50 H -1.721130 -0.570689 -3.121092 0
M  V30 51 H -2.953392 -1.539708 -3.926483 0
M  V30 52 H -0.980298 -2.321387 -5.529610 0
M  V30 53 H -1.590260 -0.662958 -5.683213 0
M  V30 54 H 1.815010 -1.589940 -3.692402 0
M  V30 55 H 0.600309 -0.737398 -2.671110 0
M  V30 56 H 0.650806 -3.148321 -2.307028 0
M  V30 57 H 0.340443 -3.477060 -4.033109 0
M  V30 58 H -1.825382 -3.980644 -4.482432 0
M  V30 59 H -3.096261 -3.947139 -3.162985 0
M  V30 60 H 0.017262 -6.167184 -1.478628 0
M  V30 END ATOM
M  V30 BEGIN BOND
M  V30 1 1 1 2
M  V30 2 2 2 3
M  V30 3 1 3 4
M  V30 4 2 4 5
M  V30 5 1 5 6
M  V30 6 1 6 7
M  V30 7 2 7 8
M  V30 8 1 7 9
M  V30 9 2 9 10
M  V30 10 1 10 11
M  V30 11 1 11 12
M  V30 12 1 12 13
M  V30 13 1 12 14
M  V30 14 1 12 15
M  V30 15 2 11 16
M  V30 16 1 16 17
M  V30 17 2 17 18
M  V30 18 1 5 19
M  V30 19 2 19 20
M  V30 20 1 20 21
M  V30 21 2 21 22
M  V30 22 1 22 23
M  V30 23 2 23 24
M  V30 24 1 24 25
M  V30 25 2 25 26
M  V30 26 1 25 27
M  V30 27 1 27 28
M  V30 28 1 28 29
M  V30 29 1 29 30
M  V30 30 1 30 31
M  V30 31 1 31 32
M  V30 32 1 32 33
M  V30 33 1 28 34
M  V30 34 1 34 35
M  V30 35 2 35 36
M  V30 36 1 35 37
M  V30 37 1 20 2
M  V30 38 1 26 21
M  V30 39 1 33 28
M  V30 40 1 18 9
M  V30 41 1 37 24
M  V30 42 1 1 38
M  V30 43 1 1 39
M  V30 44 1 1 40
M  V30 45 1 3 41
M  V30 46 1 4 42
M  V30 47 1 6 43
M  V30 48 1 10 44
M  V30 49 1 17 45
M  V30 50 1 19 46
M  V30 51 1 22 47
M  V30 52 1 23 48
M  V30 53 1 26 49
M  V30 54 1 29 50
M  V30 55 1 29 51
M  V30 56 1 30 52
M  V30 57 1 30 53
M  V30 58 1 32 54
M  V30 59 1 32 55
M  V30 60 1 33 56
M  V30 61 1 33 57
M  V30 62 1 34 58
M  V30 63 1 34 59
M  V30 64 1 37 60
M  V30 END BOND
M  V30 END CTAB
M  END
>  <Dataset>  (843) 
ChEMBL_Kinases

>  <Ligand_Instance>  (843) 
nan

>  <PDB_ID>  (843) 
nan

>  <Standardized_SMILES>  (843) 
Cc1ccc(NC(=O)c2cc(C(F)(F)F)ncn2)cc1-c1ccc2c(c1)OC1(CCOCC1)CC(=O)N2

>  <Name>  (843) 
nan

>  <Pocket>  (843) 
nan

>  <ATP_Site>  (843) 
nan

>  <Peripheral>  (843) 
nan

>  <Num_H_Atoms_ProtBoundConf>  (843) 
nan

>  <Num_Resolved_Atoms>  (843) 
nan

>  <Num_Not_Resolved_Atoms>  (843) 
nan

$$$$
CHEMBL577269
     RDKit          3D

  0  0  0  0  0  0  0  0  0  0999 V3000
M  V30 BEGIN CTAB
M  V30 COUNTS 43 46 0 0 0
M  V30 BEGIN ATOM
M  V30 1 C -0.883832 1.771393 2.047527 0
M  V30 2 N 0.301345 1.305143 1.354836 0
M  V30 3 C 1.064787 2.086228 0.567669 0
M  V30 4 O 0.739011 3.307325 0.415017 0
M  V30 5 C 2.175512 1.550993 -0.052058 0
M  V30 6 C 2.972407 2.434479 -0.871449 0
M  V30 7 C 2.689608 2.599287 -2.209156 0
M  V30 8 Cl 1.355999 1.751520 -2.952139 0
M  V30 9 C 3.547754 3.479405 -2.879596 0
M  V30 10 C 4.578049 4.107572 -2.215587 0
M  V30 11 C 4.839121 3.922416 -0.866590 0
M  V30 12 C 3.989262 3.043736 -0.177000 0
M  V30 13 Cl 4.349517 2.830333 1.523392 0
M  V30 14 C 2.578612 0.235685 0.075882 0
M  V30 15 C 1.749814 -0.516244 0.901348 0
M  V30 16 C 2.038857 -1.843966 1.125110 0
M  V30 17 N 1.267859 -2.629125 1.930673 0
M  V30 18 C 0.168593 -2.093726 2.541106 0
M  V30 19 N -0.746289 -2.739529 3.417514 0
M  V30 20 C -1.808489 -3.545131 2.948671 0
M  V30 21 C -2.773943 -4.158167 3.775006 0
M  V30 22 C -3.794956 -4.957925 3.269449 0
M  V30 23 C -3.903444 -5.187950 1.892565 0
M  V30 24 C -2.979763 -4.612338 0.997475 0
M  V30 25 N -3.004258 -4.791209 -0.409784 0
M  V30 26 C -2.055325 -3.868765 1.636683 0
M  V30 27 N -0.126513 -0.786931 2.327661 0
M  V30 28 C 0.635360 0.002335 1.528207 0
M  V30 29 H -0.881400 2.873964 2.168738 0
M  V30 30 H -1.003464 1.232118 3.013787 0
M  V30 31 H -1.750017 1.531524 1.375164 0
M  V30 32 H 3.359946 3.633307 -3.922211 0
M  V30 33 H 5.171045 4.761396 -2.829497 0
M  V30 34 H 5.675933 4.479350 -0.483944 0
M  V30 35 H 3.448681 -0.176681 -0.415895 0
M  V30 36 H 2.892785 -2.314938 0.668084 0
M  V30 37 H -0.683249 -2.652234 4.452763 0
M  V30 38 H -2.694720 -3.981982 4.860427 0
M  V30 39 H -4.515286 -5.408039 3.952526 0
M  V30 40 H -4.684764 -5.806667 1.474007 0
M  V30 41 H -3.130082 -4.107226 -1.193411 0
M  V30 42 H -2.882889 -5.737532 -0.836945 0
M  V30 43 H -1.312206 -3.402584 0.962763 0
M  V30 END ATOM
M  V30 BEGIN BOND
M  V30 1 1 1 2
M  V30 2 1 2 3
M  V30 3 2 3 4
M  V30 4 1 3 5
M  V30 5 1 5 6
M  V30 6 2 6 7
M  V30 7 1 7 8
M  V30 8 1 7 9
M  V30 9 2 9 10
M  V30 10 1 10 11
M  V30 11 2 11 12
M  V30 12 1 12 13
M  V30 13 2 5 14
M  V30 14 1 14 15
M  V30 15 2 15 16
M  V30 16 1 16 17
M  V30 17 2 17 18
M  V30 18 1 18 19
M  V30 19 1 19 20
M  V30 20 2 20 21
M  V30 21 1 21 22
M  V30 22 2 22 23
M  V30 23 1 23 24
M  V30 24 1 24 25
M  V30 25 2 24 26
M  V30 26 1 18 27
M  V30 27 2 27 28
M  V30 28 1 28 2
M  V30 29 1 12 6
M  V30 30 1 28 15
M  V30 31 1 26 20
M  V30 32 1 1 29
M  V30 33 1 1 30
M  V30 34 1 1 31
M  V30 35 1 9 32
M  V30 36 1 10 33
M  V30 37 1 11 34
M  V30 38 1 14 35
M  V30 39 1 16 36
M  V30 40 1 19 37
M  V30 41 1 21 38
M  V30 42 1 22 39
M  V30 43 1 23 40
M  V30 44 1 25 41
M  V30 45 1 25 42
M  V30 46 1 26 43
M  V30 END BOND
M  V30 END CTAB
M  END
>  <Dataset>  (844) 
ChEMBL_Kinases

>  <Ligand_Instance>  (844) 
nan

>  <PDB_ID>  (844) 
nan

>  <Standardized_SMILES>  (844) 
Cn1c(=O)c(-c2c(Cl)cccc2Cl)cc2cnc(Nc3cccc(N)c3)nc21

>  <Name>  (844) 
nan

>  <Pocket>  (844) 
nan

>  <ATP_Site>  (844) 
nan

>  <Peripheral>  (844) 
nan

>  <Num_H_Atoms_ProtBoundConf>  (844) 
nan

>  <Num_Resolved_Atoms>  (844) 
nan

>  <Num_Not_Resolved_Atoms>  (844) 
nan

$$$$
CHEMBL5094993
     RDKit          3D

  0  0  0  0  0  0  0  0  0  0999 V3000
M  V30 BEGIN CTAB
M  V30 COUNTS 54 59 0 0 0
M  V30 BEGIN ATOM
M  V30 1 N 5.855224 -3.399122 1.366832 0
M  V30 2 C 4.722768 -3.192189 1.344349 0
M  V30 3 C 3.273407 -2.946812 1.304038 0
M  V30 4 C 2.997583 -1.703674 0.538144 0
M  V30 5 C 2.971776 -0.547118 1.282544 0
M  V30 6 C 2.719507 0.659065 0.637846 0
M  V30 7 C 2.497959 0.672425 -0.748925 0
M  V30 8 N 2.248348 1.851374 -1.492573 0
M  V30 9 C 3.310540 2.500736 -2.001348 0
M  V30 10 N 2.873348 3.587538 -2.669743 0
M  V30 11 C 1.533066 3.641151 -2.593727 0
M  V30 12 C 0.603105 4.525395 -3.090093 0
M  V30 13 N -0.696692 4.289034 -2.829421 0
M  V30 14 C -1.055929 3.213551 -2.102569 0
M  V30 15 C -2.407220 3.051130 -1.885509 0
M  V30 16 C -2.782189 1.949857 -1.140474 0
M  V30 17 F -4.107105 1.776254 -0.918206 0
M  V30 18 C -1.886175 1.039601 -0.624404 0
M  V30 19 C -2.387412 -0.104648 0.159043 0
M  V30 20 C -2.723267 -1.316463 -0.408759 0
M  V30 21 C -3.186933 -2.345301 0.390998 0
M  V30 22 C -3.313156 -2.158702 1.755950 0
M  V30 23 O -3.770962 -3.134634 2.643653 0
M  V30 24 C -2.871944 -4.018040 3.251985 0
M  V30 25 C -3.420548 -4.947651 4.114182 0
M  V30 26 C -2.487841 -5.799210 4.690737 0
M  V30 27 C -1.120837 -5.725740 4.425911 0
M  V30 28 C -0.670487 -4.760596 3.548497 0
M  V30 29 N -1.547675 -3.900812 2.956807 0
M  V30 30 C -2.967646 -0.938482 2.275039 0
M  V30 31 C -2.501284 0.116215 1.519622 0
M  V30 32 Cl -2.074190 1.660999 2.251156 0
M  V30 33 C -0.540803 1.231980 -0.860394 0
M  V30 34 C -0.158728 2.321288 -1.598280 0
M  V30 35 C 1.165830 2.543019 -1.851434 0
M  V30 36 C 2.540220 -0.548825 -1.440368 0
M  V30 37 C 2.789302 -1.763137 -0.822010 0
M  V30 38 H 2.824213 -3.811717 0.767183 0
M  V30 39 H 2.842132 -2.884876 2.324304 0
M  V30 40 H 3.136802 -0.511301 2.351398 0
M  V30 41 H 2.682298 1.611716 1.149638 0
M  V30 42 H 4.379475 2.377403 -2.009797 0
M  V30 43 H 0.967913 5.374896 -3.670929 0
M  V30 44 H -3.123564 3.759547 -2.285476 0
M  V30 45 H -2.617056 -1.442781 -1.482041 0
M  V30 46 H -3.460325 -3.309359 -0.016148 0
M  V30 47 H -4.466120 -4.981369 4.297816 0
M  V30 48 H -2.875032 -6.553079 5.381369 0
M  V30 49 H -0.413691 -6.400985 4.887970 0
M  V30 50 H 0.377748 -4.640979 3.292180 0
M  V30 51 H -3.056399 -0.758433 3.354821 0
M  V30 52 H 0.086148 0.479853 -0.424608 0
M  V30 53 H 2.369245 -0.527892 -2.502033 0
M  V30 54 H 2.814210 -2.683553 -1.386042 0
M  V30 END ATOM
M  V30 BEGIN BOND
M  V30 1 3 1 2
M  V30 2 1 2 3
M  V30 3 1 3 4
M  V30 4 2 4 5
M  V30 5 1 5 6
M  V30 6 2 6 7
M  V30 7 1 7 8
M  V30 8 1 8 9
M  V30 9 2 9 10
M  V30 10 1 10 11
M  V30 11 2 11 12
M  V30 12 1 12 13
M  V30 13 2 13 14
M  V30 14 1 14 15
M  V30 15 2 15 16
M  V30 16 1 16 17
M  V30 17 1 16 18
M  V30 18 1 18 19
M  V30 19 2 19 20
M  V30 20 1 20 21
M  V30 21 2 21 22
M  V30 22 1 22 23
M  V30 23 1 23 24
M  V30 24 2 24 25
M  V30 25 1 25 26
M  V30 26 2 26 27
M  V30 27 1 27 28
M  V30 28 2 28 29
M  V30 29 1 22 30
M  V30 30 2 30 31
M  V30 31 1 31 32
M  V30 32 2 18 33
M  V30 33 1 33 34
M  V30 34 2 34 35
M  V30 35 1 7 36
M  V30 36 2 36 37
M  V30 37 1 37 4
M  V30 38 1 35 8
M  V30 39 1 35 11
M  V30 40 1 34 14
M  V30 41 1 31 19
M  V30 42 1 29 24
M  V30 43 1 3 38
M  V30 44 1 3 39
M  V30 45 1 5 40
M  V30 46 1 6 41
M  V30 47 1 9 42
M  V30 48 1 12 43
M  V30 49 1 15 44
M  V30 50 1 20 45
M  V30 51 1 21 46
M  V30 52 1 25 47
M  V30 53 1 26 48
M  V30 54 1 27 49
M  V30 55 1 28 50
M  V30 56 1 30 51
M  V30 57 1 33 52
M  V30 58 1 36 53
M  V30 59 1 37 54
M  V30 END BOND
M  V30 END CTAB
M  END
>  <Dataset>  (845) 
ChEMBL_Kinases

>  <Ligand_Instance>  (845) 
nan

>  <PDB_ID>  (845) 
nan

>  <Standardized_SMILES>  (845) 
N#CCc1ccc(-n2cnc3cnc4cc(F)c(-c5ccc(Oc6ccccn6)cc5Cl)cc4c32)cc1

>  <Name>  (845) 
nan

>  <Pocket>  (845) 
nan

>  <ATP_Site>  (845) 
nan

>  <Peripheral>  (845) 
nan

>  <Num_H_Atoms_ProtBoundConf>  (845) 
nan

>  <Num_Resolved_Atoms>  (845) 
nan

>  <Num_Not_Resolved_Atoms>  (845) 
nan

$$$$
CHEMBL577153
     RDKit          3D

  0  0  0  0  0  0  0  0  0  0999 V3000
M  V30 BEGIN CTAB
M  V30 COUNTS 47 50 0 0 0
M  V30 BEGIN ATOM
M  V30 1 C 3.425330 -3.039174 0.260412 0
M  V30 2 O 3.461119 -1.651819 0.126795 0
M  V30 3 C 4.248576 -0.999823 -0.792905 0
M  V30 4 C 5.112462 -1.593961 -1.713727 0
M  V30 5 C 5.836645 -0.814765 -2.571351 0
M  V30 6 C 5.773726 0.561646 -2.593589 0
M  V30 7 C 4.929625 1.187893 -1.696744 0
M  V30 8 C 4.191582 0.394656 -0.823007 0
M  V30 9 C 3.288740 1.097884 0.128143 0
M  V30 10 N 1.932277 1.109274 -0.128327 0
M  V30 11 C 0.547163 1.124380 -0.397172 0
M  V30 12 N -0.325718 1.519443 -1.335824 0
M  V30 13 N -1.549109 1.220623 -0.949295 0
M  V30 14 C -1.502564 0.622685 0.252153 0
M  V30 15 C -0.188220 0.531770 0.659131 0
M  V30 16 C -0.210342 -0.136241 1.987839 0
M  V30 17 C -1.654677 -0.368396 2.206154 0
M  V30 18 C -2.214656 -0.980618 3.334970 0
M  V30 19 C -3.606770 -1.120544 3.376869 0
M  V30 20 O -4.238725 -1.715435 4.458832 0
M  V30 21 C -3.525179 -2.212465 5.575850 0
M  V30 22 C -4.386387 -0.665308 2.332981 0
M  V30 23 O -5.768480 -0.826784 2.419559 0
M  V30 24 C -6.659543 -0.400831 1.414570 0
M  V30 25 C -3.839554 -0.062139 1.220245 0
M  V30 26 C -2.471095 0.070826 1.188333 0
M  V30 27 H 3.627420 -3.575823 -0.688815 0
M  V30 28 H 4.183399 -3.429766 0.979299 0
M  V30 29 H 2.439602 -3.417274 0.630240 0
M  V30 30 H 5.157427 -2.674444 -1.691009 0
M  V30 31 H 6.505692 -1.325780 -3.281509 0
M  V30 32 H 6.387716 1.093140 -3.312381 0
M  V30 33 H 4.857841 2.250131 -1.688480 0
M  V30 34 H 3.539114 0.569032 1.126430 0
M  V30 35 H 3.702173 2.125871 0.360070 0
M  V30 36 H 2.200447 1.591254 -1.057166 0
M  V30 37 H -2.235972 1.518856 -1.662330 0
M  V30 38 H 0.392503 -1.061882 2.002034 0
M  V30 39 H 0.127112 0.536222 2.801173 0
M  V30 40 H -1.673639 -1.367881 4.201728 0
M  V30 41 H -4.167168 -2.828387 6.231993 0
M  V30 42 H -3.012955 -1.404992 6.140435 0
M  V30 43 H -2.755721 -2.896032 5.152891 0
M  V30 44 H -7.625733 -0.169008 1.946003 0
M  V30 45 H -6.889718 -1.192940 0.675793 0
M  V30 46 H -6.361330 0.555584 0.930945 0
M  V30 47 H -4.414351 0.307072 0.383358 0
M  V30 END ATOM
M  V30 BEGIN BOND
M  V30 1 1 1 2
M  V30 2 1 2 3
M  V30 3 2 3 4
M  V30 4 1 4 5
M  V30 5 2 5 6
M  V30 6 1 6 7
M  V30 7 2 7 8
M  V30 8 1 8 9
M  V30 9 1 9 10
M  V30 10 1 10 11
M  V30 11 2 11 12
M  V30 12 1 12 13
M  V30 13 1 13 14
M  V30 14 2 14 15
M  V30 15 1 15 16
M  V30 16 1 16 17
M  V30 17 2 17 18
M  V30 18 1 18 19
M  V30 19 1 19 20
M  V30 20 1 20 21
M  V30 21 2 19 22
M  V30 22 1 22 23
M  V30 23 1 23 24
M  V30 24 1 22 25
M  V30 25 2 25 26
M  V30 26 1 8 3
M  V30 27 1 15 11
M  V30 28 1 26 17
M  V30 29 1 26 14
M  V30 30 1 1 27
M  V30 31 1 1 28
M  V30 32 1 1 29
M  V30 33 1 4 30
M  V30 34 1 5 31
M  V30 35 1 6 32
M  V30 36 1 7 33
M  V30 37 1 9 34
M  V30 38 1 9 35
M  V30 39 1 10 36
M  V30 40 1 13 37
M  V30 41 1 16 38
M  V30 42 1 16 39
M  V30 43 1 18 40
M  V30 44 1 21 41
M  V30 45 1 21 42
M  V30 46 1 21 43
M  V30 47 1 24 44
M  V30 48 1 24 45
M  V30 49 1 24 46
M  V30 50 1 25 47
M  V30 END BOND
M  V30 END CTAB
M  END
>  <Dataset>  (846) 
ChEMBL_Kinases

>  <Ligand_Instance>  (846) 
nan

>  <PDB_ID>  (846) 
nan

>  <Standardized_SMILES>  (846) 
COc1ccccc1CNc1n[nH]c2c1Cc1cc(OC)c(OC)cc1-2

>  <Name>  (846) 
nan

>  <Pocket>  (846) 
nan

>  <ATP_Site>  (846) 
nan

>  <Peripheral>  (846) 
nan

>  <Num_H_Atoms_ProtBoundConf>  (846) 
nan

>  <Num_Resolved_Atoms>  (846) 
nan

>  <Num_Not_Resolved_Atoms>  (846) 
nan

$$$$
CHEMBL5085033
     RDKit          3D

  0  0  0  0  0  0  0  0  0  0999 V3000
M  V30 BEGIN CTAB
M  V30 COUNTS 38 41 0 0 0
M  V30 BEGIN ATOM
M  V30 1 C 1.302802 1.409398 3.141004 0
M  V30 2 C 1.893007 0.198099 2.811985 0
M  V30 3 C 1.312632 -0.655565 1.898028 0
M  V30 4 C 1.856853 -1.947513 1.487507 0
M  V30 5 C 2.596150 -2.766997 2.320589 0
M  V30 6 C 3.107712 -3.986746 1.926804 0
M  V30 7 C 2.882474 -4.439961 0.627312 0
M  V30 8 O 3.221351 -5.518947 -0.036977 0
M  V30 9 C 2.751889 -5.469451 -1.267015 0
M  V30 10 C 2.053295 -4.295153 -1.459631 0
M  V30 11 C 2.140086 -3.640732 -0.244820 0
M  V30 12 C 1.650222 -2.428129 0.199191 0
M  V30 13 C 0.104543 -0.302110 1.285354 0
M  V30 14 C -0.439286 0.913216 1.648539 0
M  V30 15 N -1.665601 1.398388 1.102155 0
M  V30 16 C -2.281389 2.687693 1.445010 0
M  V30 17 C -2.644933 3.349345 0.129658 0
M  V30 18 N -1.916747 2.767278 -0.971930 0
M  V30 19 C -2.201277 1.377049 -1.205944 0
M  V30 20 C -2.507027 0.723414 0.131537 0
M  V30 21 N 0.133731 1.742004 2.542100 0
M  V30 22 H 1.751812 2.077705 3.852188 0
M  V30 23 H 2.827995 -0.116467 3.261428 0
M  V30 24 H 2.789444 -2.436644 3.348118 0
M  V30 25 H 3.687766 -4.604769 2.617046 0
M  V30 26 H 2.865968 -6.218612 -2.065219 0
M  V30 27 H 1.540044 -3.928309 -2.339626 0
M  V30 28 H 1.080123 -1.840984 -0.509995 0
M  V30 29 H -0.380812 -0.925599 0.576602 0
M  V30 30 H -1.611869 3.354954 1.984240 0
M  V30 31 H -3.184229 2.478605 2.029118 0
M  V30 32 H -2.409793 4.423450 0.131273 0
M  V30 33 H -3.724452 3.259949 -0.118794 0
M  V30 34 H -0.899971 2.993906 -0.950256 0
M  V30 35 H -1.324692 0.896281 -1.689837 0
M  V30 36 H -3.048382 1.202434 -1.910900 0
M  V30 37 H -2.248852 -0.357327 0.016049 0
M  V30 38 H -3.585869 0.805713 0.340290 0
M  V30 END ATOM
M  V30 BEGIN BOND
M  V30 1 2 1 2
M  V30 2 1 2 3
M  V30 3 1 3 4
M  V30 4 2 4 5
M  V30 5 1 5 6
M  V30 6 2 6 7
M  V30 7 1 7 8
M  V30 8 1 8 9
M  V30 9 2 9 10
M  V30 10 1 10 11
M  V30 11 2 11 12
M  V30 12 2 3 13
M  V30 13 1 13 14
M  V30 14 1 14 15
M  V30 15 1 15 16
M  V30 16 1 16 17
M  V30 17 1 17 18
M  V30 18 1 18 19
M  V30 19 1 19 20
M  V30 20 2 14 21
M  V30 21 1 21 1
M  V30 22 1 12 4
M  V30 23 1 20 15
M  V30 24 1 11 7
M  V30 25 1 1 22
M  V30 26 1 2 23
M  V30 27 1 5 24
M  V30 28 1 6 25
M  V30 29 1 9 26
M  V30 30 1 10 27
M  V30 31 1 12 28
M  V30 32 1 13 29
M  V30 33 1 16 30
M  V30 34 1 16 31
M  V30 35 1 17 32
M  V30 36 1 17 33
M  V30 37 1 18 34
M  V30 38 1 19 35
M  V30 39 1 19 36
M  V30 40 1 20 37
M  V30 41 1 20 38
M  V30 END BOND
M  V30 END CTAB
M  END
>  <Dataset>  (847) 
ChEMBL_Kinases

>  <Ligand_Instance>  (847) 
nan

>  <PDB_ID>  (847) 
nan

>  <Standardized_SMILES>  (847) 
c1cc(-c2ccc3occc3c2)cc(N2CCNCC2)n1

>  <Name>  (847) 
nan

>  <Pocket>  (847) 
nan

>  <ATP_Site>  (847) 
nan

>  <Peripheral>  (847) 
nan

>  <Num_H_Atoms_ProtBoundConf>  (847) 
nan

>  <Num_Resolved_Atoms>  (847) 
nan

>  <Num_Not_Resolved_Atoms>  (847) 
nan

$$$$
CHEMBL577030
     RDKit          3D

  0  0  0  0  0  0  0  0  0  0999 V3000
M  V30 BEGIN CTAB
M  V30 COUNTS 39 41 0 0 0
M  V30 BEGIN ATOM
M  V30 1 C 0.132107 -6.669309 1.156056 0
M  V30 2 C 1.408884 -5.819009 1.127263 0
M  V30 3 O 1.073044 -4.424539 1.148433 0
M  V30 4 C 0.366529 -3.851936 2.175320 0
M  V30 5 O 0.003741 -4.573445 3.125117 0
M  V30 6 C 0.052801 -2.431827 2.146286 0
M  V30 7 C 0.465522 -1.650116 1.081776 0
M  V30 8 C 0.213327 -0.298417 0.970820 0
M  V30 9 C 0.668806 0.487468 -0.171929 0
M  V30 10 C 1.381578 -0.060399 -1.220247 0
M  V30 11 S 1.640548 1.468075 -2.320121 0
M  V30 12 C 0.752466 2.497272 -1.158208 0
M  V30 13 C 0.506551 3.979342 -1.334648 0
M  V30 14 C -0.199485 4.649162 -0.349205 0
M  V30 15 C -0.372396 6.003729 -0.603261 0
M  V30 16 N 0.106325 6.604794 -1.710529 0
M  V30 17 C 0.790513 5.907007 -2.645216 0
M  V30 18 C 1.013715 4.554304 -2.481983 0
M  V30 19 N 0.427036 1.772641 -0.273880 0
M  V30 20 C -0.500205 0.210981 2.036659 0
M  V30 21 O -0.781064 1.454107 2.022223 0
M  V30 22 N -0.917084 -0.519382 3.087245 0
M  V30 23 C -0.662516 -1.837197 3.179857 0
M  V30 24 C -1.115033 -2.658530 4.332160 0
M  V30 25 H -0.085558 -7.032976 2.193942 0
M  V30 26 H -0.750879 -6.039356 0.897440 0
M  V30 27 H 0.166933 -7.499969 0.441881 0
M  V30 28 H 1.912921 -5.984110 0.130837 0
M  V30 29 H 2.080527 -6.059334 1.973192 0
M  V30 30 H 1.014924 -2.166043 0.312584 0
M  V30 31 H 1.700716 -1.189670 -1.321726 0
M  V30 32 H -0.552526 4.115271 0.505086 0
M  V30 33 H -0.927167 6.563496 0.157132 0
M  V30 34 H 1.157996 6.415284 -3.514701 0
M  V30 35 H 1.556345 3.972554 -3.211490 0
M  V30 36 H -1.453070 -0.033191 3.844776 0
M  V30 37 H -1.596407 -1.939257 5.056424 0
M  V30 38 H -1.829249 -3.459871 4.046761 0
M  V30 39 H -0.264252 -3.098412 4.913985 0
M  V30 END ATOM
M  V30 BEGIN BOND
M  V30 1 1 1 2
M  V30 2 1 2 3
M  V30 3 1 3 4
M  V30 4 2 4 5
M  V30 5 1 4 6
M  V30 6 1 6 7
M  V30 7 2 7 8
M  V30 8 1 8 9
M  V30 9 2 9 10
M  V30 10 1 10 11
M  V30 11 1 11 12
M  V30 12 1 12 13
M  V30 13 2 13 14
M  V30 14 1 14 15
M  V30 15 2 15 16
M  V30 16 1 16 17
M  V30 17 2 17 18
M  V30 18 2 12 19
M  V30 19 1 8 20
M  V30 20 2 20 21
M  V30 21 1 20 22
M  V30 22 1 22 23
M  V30 23 1 23 24
M  V30 24 2 23 6
M  V30 25 1 19 9
M  V30 26 1 18 13
M  V30 27 1 1 25
M  V30 28 1 1 26
M  V30 29 1 1 27
M  V30 30 1 2 28
M  V30 31 1 2 29
M  V30 32 1 7 30
M  V30 33 1 10 31
M  V30 34 1 14 32
M  V30 35 1 15 33
M  V30 36 1 17 34
M  V30 37 1 18 35
M  V30 38 1 22 36
M  V30 39 1 24 37
M  V30 40 1 24 38
M  V30 41 1 24 39
M  V30 END BOND
M  V30 END CTAB
M  END
>  <Dataset>  (848) 
ChEMBL_Kinases

>  <Ligand_Instance>  (848) 
nan

>  <PDB_ID>  (848) 
nan

>  <Standardized_SMILES>  (848) 
CCOC(=O)c1cc(-c2csc(-c3ccncc3)n2)c(=O)[nH]c1C

>  <Name>  (848) 
nan

>  <Pocket>  (848) 
nan

>  <ATP_Site>  (848) 
nan

>  <Peripheral>  (848) 
nan

>  <Num_H_Atoms_ProtBoundConf>  (848) 
nan

>  <Num_Resolved_Atoms>  (848) 
nan

>  <Num_Not_Resolved_Atoms>  (848) 
nan

$$$$
CHEMBL576948
     RDKit          3D

  0  0  0  0  0  0  0  0  0  0999 V3000
M  V30 BEGIN CTAB
M  V30 COUNTS 44 47 0 0 0
M  V30 BEGIN ATOM
M  V30 1 C -0.549599 -6.554977 -1.174780 0
M  V30 2 C 0.661331 -5.999696 -0.491932 0
M  V30 3 C 0.513428 -4.620647 -0.024007 0
M  V30 4 C 0.039366 -4.240050 1.240815 0
M  V30 5 C -0.084093 -2.924499 1.637611 0
M  V30 6 C 0.288496 -1.942288 0.714155 0
M  V30 7 C 0.753123 -2.311438 -0.525321 0
M  V30 8 C 0.867501 -3.623804 -0.897917 0
M  V30 9 C 1.011520 -1.017597 -1.139117 0
M  V30 10 N 1.469981 -0.592269 -2.323466 0
M  V30 11 N 1.494772 0.714148 -2.324953 0
M  V30 12 C 1.057415 1.197651 -1.152500 0
M  V30 13 N 0.795272 2.364674 -0.426209 0
M  V30 14 C 0.574063 3.608432 0.197947 0
M  V30 15 C 0.012115 3.346192 1.587205 0
M  V30 16 C 0.824522 2.915749 2.640182 0
M  V30 17 C 2.268966 2.705954 2.407671 0
M  V30 18 C 0.229320 2.700718 3.879056 0
M  V30 19 C -1.116021 2.891794 4.113250 0
M  V30 20 C -1.935058 3.316336 3.087304 0
M  V30 21 C -1.345546 3.528989 1.861346 0
M  V30 22 Cl -2.342167 4.073081 0.508850 0
M  V30 23 C 0.722160 0.086663 -0.324813 0
M  V30 24 C 0.225209 -0.490193 0.959960 0
M  V30 25 H -1.417436 -6.372213 -0.504560 0
M  V30 26 H -0.797982 -6.044033 -2.122031 0
M  V30 27 H -0.441529 -7.651133 -1.266443 0
M  V30 28 H 1.532203 -6.101876 -1.158278 0
M  V30 29 H 0.857916 -6.654232 0.388307 0
M  V30 30 H -0.213472 -5.106133 1.856902 0
M  V30 31 H -0.463627 -2.781202 2.642796 0
M  V30 32 H 1.233397 -3.834218 -1.868995 0
M  V30 33 H 1.808324 -0.957446 -3.232248 0
M  V30 34 H 1.127115 2.963972 -1.263571 0
M  V30 35 H -0.193845 4.277385 -0.259095 0
M  V30 36 H 1.497064 4.235781 0.372264 0
M  V30 37 H 2.737827 2.618317 3.430781 0
M  V30 38 H 2.729306 3.616886 1.978790 0
M  V30 39 H 2.481560 1.799301 1.830264 0
M  V30 40 H 0.857205 2.361769 4.717302 0
M  V30 41 H -1.516275 2.708152 5.094919 0
M  V30 42 H -3.000316 3.484002 3.210920 0
M  V30 43 H -0.788222 -0.117128 1.200802 0
M  V30 44 H 0.932600 -0.249691 1.798424 0
M  V30 END ATOM
M  V30 BEGIN BOND
M  V30 1 1 1 2
M  V30 2 1 2 3
M  V30 3 2 3 4
M  V30 4 1 4 5
M  V30 5 2 5 6
M  V30 6 1 6 7
M  V30 7 2 7 8
M  V30 8 1 7 9
M  V30 9 1 9 10
M  V30 10 1 10 11
M  V30 11 2 11 12
M  V30 12 1 12 13
M  V30 13 1 13 14
M  V30 14 1 14 15
M  V30 15 2 15 16
M  V30 16 1 16 17
M  V30 17 1 16 18
M  V30 18 2 18 19
M  V30 19 1 19 20
M  V30 20 2 20 21
M  V30 21 1 21 22
M  V30 22 1 12 23
M  V30 23 1 23 24
M  V30 24 1 8 3
M  V30 25 2 23 9
M  V30 26 1 24 6
M  V30 27 1 21 15
M  V30 28 1 1 25
M  V30 29 1 1 26
M  V30 30 1 1 27
M  V30 31 1 2 28
M  V30 32 1 2 29
M  V30 33 1 4 30
M  V30 34 1 5 31
M  V30 35 1 8 32
M  V30 36 1 10 33
M  V30 37 1 13 34
M  V30 38 1 14 35
M  V30 39 1 14 36
M  V30 40 1 17 37
M  V30 41 1 17 38
M  V30 42 1 17 39
M  V30 43 1 18 40
M  V30 44 1 19 41
M  V30 45 1 20 42
M  V30 46 1 24 43
M  V30 47 1 24 44
M  V30 END BOND
M  V30 END CTAB
M  END
>  <Dataset>  (849) 
ChEMBL_Kinases

>  <Ligand_Instance>  (849) 
nan

>  <PDB_ID>  (849) 
nan

>  <Standardized_SMILES>  (849) 
CCc1ccc2c(c1)-c1[nH]nc(NCc3c(C)cccc3Cl)c1C2

>  <Name>  (849) 
nan

>  <Pocket>  (849) 
nan

>  <ATP_Site>  (849) 
nan

>  <Peripheral>  (849) 
nan

>  <Num_H_Atoms_ProtBoundConf>  (849) 
nan

>  <Num_Resolved_Atoms>  (849) 
nan

>  <Num_Not_Resolved_Atoms>  (849) 
nan

$$$$
CHEMBL509669
     RDKit          3D

  0  0  0  0  0  0  0  0  0  0999 V3000
M  V30 BEGIN CTAB
M  V30 COUNTS 51 52 0 0 0
M  V30 BEGIN ATOM
M  V30 1 C 0.864249 -1.598464 4.594648 0
M  V30 2 C 1.172792 -0.624130 3.484232 0
M  V30 3 C -0.123570 0.078247 3.150704 0
M  V30 4 C 1.711539 -1.385875 2.285181 0
M  V30 5 C 2.183256 0.409115 3.869575 0
M  V30 6 C 2.397572 1.304728 2.696365 0
M  V30 7 O 3.223426 2.272917 2.702982 0
M  V30 8 O 1.710818 1.136194 1.528416 0
M  V30 9 C 1.893128 1.959691 0.412129 0
M  V30 10 C 1.039664 1.584286 -0.760992 0
M  V30 11 C 1.406047 2.468613 -1.957231 0
M  V30 12 O 1.122698 3.803583 -1.702929 0
M  V30 13 C -0.428593 1.654792 -0.546748 0
M  V30 14 C -0.924068 0.274025 -0.858317 0
M  V30 15 C -2.094598 -0.302758 -0.653623 0
M  V30 16 C -2.462000 -1.670071 -0.998499 0
M  V30 17 C -3.556736 -2.156390 -1.673873 0
M  V30 18 C -3.717346 -3.514245 -1.842820 0
M  V30 19 C -2.796199 -4.430490 -1.346269 0
M  V30 20 C -1.692848 -3.950622 -0.666107 0
M  V30 21 C -0.698005 -4.938140 -0.120915 0
M  V30 22 F -1.103896 -5.364852 1.130857 0
M  V30 23 F -0.463796 -5.974140 -0.974626 0
M  V30 24 F 0.472980 -4.222636 0.036095 0
M  V30 25 C -1.538774 -2.594271 -0.501234 0
M  V30 26 C 0.190947 -0.384576 -1.536061 0
M  V30 27 O 0.049925 -1.349094 -2.357456 0
M  V30 28 O 1.365079 0.239132 -1.110627 0
M  V30 29 H 0.457292 -1.095318 5.477202 0
M  V30 30 H 1.712850 -2.278292 4.838668 0
M  V30 31 H 0.044157 -2.261150 4.219496 0
M  V30 32 H -1.010132 -0.387919 3.641712 0
M  V30 33 H -0.070370 1.167271 3.427229 0
M  V30 34 H -0.273336 -0.017181 2.066277 0
M  V30 35 H 1.201078 -1.137675 1.344347 0
M  V30 36 H 2.800554 -1.186512 2.137061 0
M  V30 37 H 1.635386 -2.491831 2.478789 0
M  V30 38 H 3.127157 -0.122568 4.145839 0
M  V30 39 H 1.863260 0.996677 4.762015 0
M  V30 40 H 1.777765 3.053168 0.658492 0
M  V30 41 H 2.962901 1.858103 0.096658 0
M  V30 42 H 2.508566 2.426018 -2.153429 0
M  V30 43 H 0.875375 2.153934 -2.857068 0
M  V30 44 H 0.354760 3.901818 -1.091243 0
M  V30 45 H -0.715003 1.956619 0.480839 0
M  V30 46 H -0.978101 2.337162 -1.224628 0
M  V30 47 H -2.842057 0.334056 -0.177796 0
M  V30 48 H -4.217734 -1.375967 -2.021413 0
M  V30 49 H -4.602508 -3.843928 -2.385234 0
M  V30 50 H -2.941275 -5.498389 -1.486160 0
M  V30 51 H -0.626574 -2.339372 0.064149 0
M  V30 END ATOM
M  V30 BEGIN BOND
M  V30 1 1 1 2
M  V30 2 1 2 3
M  V30 3 1 2 4
M  V30 4 1 2 5
M  V30 5 1 5 6
M  V30 6 2 6 7
M  V30 7 1 6 8
M  V30 8 1 8 9
M  V30 9 1 9 10
M  V30 10 1 10 11
M  V30 11 1 11 12
M  V30 12 1 10 13
M  V30 13 1 13 14
M  V30 14 2 14 15
M  V30 15 1 15 16
M  V30 16 2 16 17
M  V30 17 1 17 18
M  V30 18 2 18 19
M  V30 19 1 19 20
M  V30 20 1 20 21
M  V30 21 1 21 22
M  V30 22 1 21 23
M  V30 23 1 21 24
M  V30 24 2 20 25
M  V30 25 1 14 26
M  V30 26 2 26 27
M  V30 27 1 26 28
M  V30 28 1 28 10
M  V30 29 1 25 16
M  V30 30 1 1 29
M  V30 31 1 1 30
M  V30 32 1 1 31
M  V30 33 1 3 32
M  V30 34 1 3 33
M  V30 35 1 3 34
M  V30 36 1 4 35
M  V30 37 1 4 36
M  V30 38 1 4 37
M  V30 39 1 5 38
M  V30 40 1 5 39
M  V30 41 1 9 40
M  V30 42 1 9 41
M  V30 43 1 11 42
M  V30 44 1 11 43
M  V30 45 1 12 44
M  V30 46 1 13 45
M  V30 47 1 13 46
M  V30 48 1 15 47
M  V30 49 1 17 48
M  V30 50 1 18 49
M  V30 51 1 19 50
M  V30 52 1 25 51
M  V30 END BOND
M  V30 END CTAB
M  END
>  <Dataset>  (850) 
ChEMBL_Kinases

>  <Ligand_Instance>  (850) 
nan

>  <PDB_ID>  (850) 
nan

>  <Standardized_SMILES>  (850) 
CC(C)(C)CC(=O)OCC1(CO)C/C(=C/c2cccc(C(F)(F)F)c2)C(=O)O1

>  <Name>  (850) 
nan

>  <Pocket>  (850) 
nan

>  <ATP_Site>  (850) 
nan

>  <Peripheral>  (850) 
nan

>  <Num_H_Atoms_ProtBoundConf>  (850) 
nan

>  <Num_Resolved_Atoms>  (850) 
nan

>  <Num_Not_Resolved_Atoms>  (850) 
nan

$$$$
CHEMBL509697
     RDKit          3D

  0  0  0  0  0  0  0  0  0  0999 V3000
M  V30 BEGIN CTAB
M  V30 COUNTS 45 47 0 0 0
M  V30 BEGIN ATOM
M  V30 1 O -2.155983 -3.700370 2.701227 0
M  V30 2 C -1.266571 -2.822678 2.409008 0
M  V30 3 O 0.019893 -2.577213 2.843255 0
M  V30 4 C 0.380552 -1.266973 2.528237 0
M  V30 5 C 0.921390 -0.510679 3.723069 0
M  V30 6 O 2.036094 -1.158000 4.200559 0
M  V30 7 C 1.436332 -1.226499 1.414890 0
M  V30 8 O 1.713573 0.118477 1.199602 0
M  V30 9 C 2.614774 0.631835 0.283248 0
M  V30 10 O 3.188524 -0.278393 -0.368932 0
M  V30 11 C 2.862743 2.060288 0.103165 0
M  V30 12 C 2.245188 3.075987 0.804207 0
M  V30 13 C 2.545459 4.406325 0.563432 0
M  V30 14 C 3.495404 4.709084 -0.412641 0
M  V30 15 N 3.725915 6.108120 -0.575712 0 CHG=1 VAL=4
M  V30 16 O 4.540682 6.574860 -1.399849 0
M  V30 17 O 3.117080 7.129219 0.115595 0 CHG=-1 VAL=1
M  V30 18 C 4.124563 3.704667 -1.124936 0
M  V30 19 C 3.809816 2.386046 -0.868454 0
M  V30 20 C -0.857955 -0.610761 1.967983 0
M  V30 21 C -1.579710 -1.811031 1.407505 0
M  V30 22 C -2.312765 -1.954571 0.290536 0
M  V30 23 C -2.906929 -3.238723 -0.050819 0
M  V30 24 C -2.190289 -4.431925 0.037399 0
M  V30 25 C -2.697651 -5.682816 -0.252848 0
M  V30 26 C -4.025991 -5.731514 -0.662810 0
M  V30 27 C -4.778492 -4.579938 -0.767047 0
M  V30 28 C -4.233089 -3.333216 -0.465520 0
M  V30 29 H 1.147483 0.511137 3.364911 0
M  V30 30 H 0.137970 -0.501905 4.488751 0
M  V30 31 H 2.704883 -1.419715 3.526576 0
M  V30 32 H 2.278140 -1.889276 1.594651 0
M  V30 33 H 0.949833 -1.604454 0.471103 0
M  V30 34 H 1.523274 2.728294 1.539629 0
M  V30 35 H 2.013001 5.147249 1.160357 0
M  V30 36 H 4.851320 4.026959 -1.867270 0
M  V30 37 H 4.337183 1.643829 -1.459597 0
M  V30 38 H -1.463862 -0.196826 2.795603 0
M  V30 39 H -0.641687 0.125820 1.171263 0
M  V30 40 H -2.427226 -1.051108 -0.330320 0
M  V30 41 H -1.137449 -4.449248 0.340230 0
M  V30 42 H -2.124924 -6.576644 -0.174546 0
M  V30 43 H -4.423322 -6.732407 -0.892779 0
M  V30 44 H -5.814874 -4.674549 -1.093237 0
M  V30 45 H -4.853466 -2.449772 -0.558524 0
M  V30 END ATOM
M  V30 BEGIN BOND
M  V30 1 2 1 2
M  V30 2 1 2 3
M  V30 3 1 3 4
M  V30 4 1 4 5
M  V30 5 1 5 6
M  V30 6 1 4 7
M  V30 7 1 7 8
M  V30 8 1 8 9
M  V30 9 2 9 10
M  V30 10 1 9 11
M  V30 11 2 11 12
M  V30 12 1 12 13
M  V30 13 2 13 14
M  V30 14 1 14 15
M  V30 15 2 15 16
M  V30 16 1 15 17
M  V30 17 1 14 18
M  V30 18 2 18 19
M  V30 19 1 4 20
M  V30 20 1 20 21
M  V30 21 2 21 22
M  V30 22 1 22 23
M  V30 23 2 23 24
M  V30 24 1 24 25
M  V30 25 2 25 26
M  V30 26 1 26 27
M  V30 27 2 27 28
M  V30 28 1 21 2
M  V30 29 1 28 23
M  V30 30 1 19 11
M  V30 31 1 5 29
M  V30 32 1 5 30
M  V30 33 1 6 31
M  V30 34 1 7 32
M  V30 35 1 7 33
M  V30 36 1 12 34
M  V30 37 1 13 35
M  V30 38 1 18 36
M  V30 39 1 19 37
M  V30 40 1 20 38
M  V30 41 1 20 39
M  V30 42 1 22 40
M  V30 43 1 24 41
M  V30 44 1 25 42
M  V30 45 1 26 43
M  V30 46 1 27 44
M  V30 47 1 28 45
M  V30 END BOND
M  V30 END CTAB
M  END
>  <Dataset>  (851) 
ChEMBL_Kinases

>  <Ligand_Instance>  (851) 
nan

>  <PDB_ID>  (851) 
nan

>  <Standardized_SMILES>  (851) 
O=C1OC(CO)(COC(=O)c2ccc([N+](=O)[O-])cc2)C/C1=C/c1ccccc1

>  <Name>  (851) 
nan

>  <Pocket>  (851) 
nan

>  <ATP_Site>  (851) 
nan

>  <Peripheral>  (851) 
nan

>  <Num_H_Atoms_ProtBoundConf>  (851) 
nan

>  <Num_Resolved_Atoms>  (851) 
nan

>  <Num_Not_Resolved_Atoms>  (851) 
nan

$$$$
CHEMBL576620
     RDKit          3D

  0  0  0  0  0  0  0  0  0  0999 V3000
M  V30 BEGIN CTAB
M  V30 COUNTS 39 41 0 0 0
M  V30 BEGIN ATOM
M  V30 1 C -0.221686 -4.165948 1.672645 0
M  V30 2 C -0.033917 -3.031628 1.271469 0
M  V30 3 N 0.173697 -1.724677 0.823698 0
M  V30 4 C 1.356208 -1.357181 0.292448 0
M  V30 5 C 2.552797 -2.132993 0.081771 0
M  V30 6 C 3.554505 -2.787943 -0.087995 0
M  V30 7 C 4.759409 -3.605776 -0.294105 0
M  V30 8 C 5.911768 -3.112061 0.541191 0
M  V30 9 O 6.212948 -1.792153 0.197975 0
M  V30 10 N 1.257543 -0.050080 -0.044206 0
M  V30 11 C 0.018777 0.399010 0.274923 0
M  V30 12 C -0.538639 1.731986 0.097230 0
M  V30 13 C -1.575279 2.167263 -0.700418 0
M  V30 14 C -1.972963 3.477230 -0.739088 0
M  V30 15 C -1.326909 4.425930 0.044051 0
M  V30 16 F -1.830484 5.676879 -0.098367 0
M  V30 17 C -0.280362 3.999935 0.852121 0
M  V30 18 C 0.112861 2.690539 0.886966 0
M  V30 19 C -0.662062 -0.666071 0.823638 0
M  V30 20 C -2.012952 -0.806628 1.349547 0
M  V30 21 C -2.084505 -1.086372 2.720174 0
M  V30 22 C -3.258588 -1.259027 3.410165 0
M  V30 23 N -4.443831 -1.155088 2.732968 0
M  V30 24 C -4.401112 -0.887475 1.416571 0
M  V30 25 C -3.230687 -0.711790 0.710555 0
M  V30 26 H -0.371850 -5.171184 2.032640 0
M  V30 27 H 4.516189 -4.618085 0.043984 0
M  V30 28 H 5.050091 -3.527304 -1.353952 0
M  V30 29 H 5.702762 -3.156343 1.625632 0
M  V30 30 H 6.794180 -3.722360 0.278604 0
M  V30 31 H 5.470070 -1.169895 0.342591 0
M  V30 32 H -2.018698 1.385878 -1.271548 0
M  V30 33 H -2.800198 3.665240 -1.412339 0
M  V30 34 H 0.160942 4.821332 1.425304 0
M  V30 35 H 0.930671 2.557053 1.564498 0
M  V30 36 H -1.185179 -1.184201 3.328656 0
M  V30 37 H -3.277451 -1.474669 4.469089 0
M  V30 38 H -5.277933 -0.783424 0.781815 0
M  V30 39 H -3.143171 -0.498722 -0.344783 0
M  V30 END ATOM
M  V30 BEGIN BOND
M  V30 1 3 1 2
M  V30 2 1 2 3
M  V30 3 1 3 4
M  V30 4 1 4 5
M  V30 5 3 5 6
M  V30 6 1 6 7
M  V30 7 1 7 8
M  V30 8 1 8 9
M  V30 9 2 4 10
M  V30 10 1 10 11
M  V30 11 1 11 12
M  V30 12 2 12 13
M  V30 13 1 13 14
M  V30 14 2 14 15
M  V30 15 1 15 16
M  V30 16 1 15 17
M  V30 17 2 17 18
M  V30 18 2 11 19
M  V30 19 1 19 20
M  V30 20 2 20 21
M  V30 21 1 21 22
M  V30 22 2 22 23
M  V30 23 1 23 24
M  V30 24 2 24 25
M  V30 25 1 19 3
M  V30 26 1 25 20
M  V30 27 1 18 12
M  V30 28 1 1 26
M  V30 29 1 7 27
M  V30 30 1 7 28
M  V30 31 1 8 29
M  V30 32 1 8 30
M  V30 33 1 9 31
M  V30 34 1 13 32
M  V30 35 1 14 33
M  V30 36 1 17 34
M  V30 37 1 18 35
M  V30 38 1 21 36
M  V30 39 1 22 37
M  V30 40 1 24 38
M  V30 41 1 25 39
M  V30 END BOND
M  V30 END CTAB
M  END
>  <Dataset>  (852) 
ChEMBL_Kinases

>  <Ligand_Instance>  (852) 
nan

>  <PDB_ID>  (852) 
nan

>  <Standardized_SMILES>  (852) 
C#Cn1c(C#CCCO)nc(-c2ccc(F)cc2)c1-c1ccncc1

>  <Name>  (852) 
nan

>  <Pocket>  (852) 
nan

>  <ATP_Site>  (852) 
nan

>  <Peripheral>  (852) 
nan

>  <Num_H_Atoms_ProtBoundConf>  (852) 
nan

>  <Num_Resolved_Atoms>  (852) 
nan

>  <Num_Not_Resolved_Atoms>  (852) 
nan

$$$$
CHEMBL509776
     RDKit          3D

  0  0  0  0  0  0  0  0  0  0999 V3000
M  V30 BEGIN CTAB
M  V30 COUNTS 37 40 0 0 0
M  V30 BEGIN ATOM
M  V30 1 O -3.014323 -1.491791 2.799349 0
M  V30 2 C -1.828782 -1.660215 2.403951 0
M  V30 3 N -1.116832 -2.881073 2.686012 0
M  V30 4 C 0.326242 -2.761726 2.749281 0
M  V30 5 C 0.925356 -2.133101 1.523261 0
M  V30 6 C 0.807741 -3.000120 0.298735 0
M  V30 7 C 1.470333 -4.352157 0.368609 0
M  V30 8 C 2.751593 -3.728866 -0.142506 0
M  V30 9 C 1.866692 -2.614621 -0.716018 0
M  V30 10 C 0.215693 -0.866257 1.218961 0
M  V30 11 N 0.559736 0.255510 0.561082 0
M  V30 12 C -0.436163 1.154439 0.541800 0
M  V30 13 C -0.428816 2.485230 -0.078587 0
M  V30 14 C -1.543144 3.273422 0.000763 0
M  V30 15 C -1.528323 4.523372 -0.585073 0
M  V30 16 N -0.421188 4.943984 -1.222373 0
M  V30 17 C 0.672613 4.165199 -1.297885 0
M  V30 18 C 0.727258 2.896973 -0.731316 0
M  V30 19 C -1.479668 0.579987 1.225131 0
M  V30 20 C -1.078225 -0.663107 1.641535 0
M  V30 21 H -1.682895 -3.770829 2.826428 0
M  V30 22 H 0.787934 -3.729983 2.986359 0
M  V30 23 H 0.560023 -2.096716 3.606832 0
M  V30 24 H 1.997965 -1.961683 1.746031 0
M  V30 25 H -0.198489 -2.969909 -0.124946 0
M  V30 26 H 1.043994 -5.008474 -0.440604 0
M  V30 27 H 1.530070 -4.838926 1.339930 0
M  V30 28 H 3.421946 -3.360756 0.676756 0
M  V30 29 H 3.303252 -4.312027 -0.898511 0
M  V30 30 H 1.576488 -2.804430 -1.771994 0
M  V30 31 H 2.375321 -1.660575 -0.567857 0
M  V30 32 H 1.471127 0.459082 0.102599 0
M  V30 33 H -2.448595 2.945613 0.514448 0
M  V30 34 H -2.391844 5.191481 -0.550184 0
M  V30 35 H 1.598412 4.468618 -1.808394 0
M  V30 36 H 1.633380 2.282459 -0.808088 0
M  V30 37 H -2.428235 1.085549 1.369453 0
M  V30 END ATOM
M  V30 BEGIN BOND
M  V30 1 2 1 2
M  V30 2 1 2 3
M  V30 3 1 3 4
M  V30 4 1 4 5
M  V30 5 1 5 6
M  V30 6 1 6 7
M  V30 7 1 7 8
M  V30 8 1 8 9
M  V30 9 1 5 10
M  V30 10 1 10 11
M  V30 11 1 11 12
M  V30 12 1 12 13
M  V30 13 2 13 14
M  V30 14 1 14 15
M  V30 15 2 15 16
M  V30 16 1 16 17
M  V30 17 2 17 18
M  V30 18 2 12 19
M  V30 19 1 19 20
M  V30 20 1 20 2
M  V30 21 1 9 6
M  V30 22 2 20 10
M  V30 23 1 18 13
M  V30 24 1 3 21
M  V30 25 1 4 22
M  V30 26 1 4 23
M  V30 27 1 5 24
M  V30 28 1 6 25
M  V30 29 1 7 26
M  V30 30 1 7 27
M  V30 31 1 8 28
M  V30 32 1 8 29
M  V30 33 1 9 30
M  V30 34 1 9 31
M  V30 35 1 11 32
M  V30 36 1 14 33
M  V30 37 1 15 34
M  V30 38 1 17 35
M  V30 39 1 18 36
M  V30 40 1 19 37
M  V30 END BOND
M  V30 END CTAB
M  END
>  <Dataset>  (853) 
ChEMBL_Kinases

>  <Ligand_Instance>  (853) 
nan

>  <PDB_ID>  (853) 
nan

>  <Standardized_SMILES>  (853) 
O=C1NCC(C2CCC2)c2[nH]c(-c3ccncc3)cc21

>  <Name>  (853) 
nan

>  <Pocket>  (853) 
nan

>  <ATP_Site>  (853) 
nan

>  <Peripheral>  (853) 
nan

>  <Num_H_Atoms_ProtBoundConf>  (853) 
nan

>  <Num_Resolved_Atoms>  (853) 
nan

>  <Num_Not_Resolved_Atoms>  (853) 
nan

$$$$
CHEMBL576540
     RDKit          3D

  0  0  0  0  0  0  0  0  0  0999 V3000
M  V30 BEGIN CTAB
M  V30 COUNTS 39 42 0 0 0
M  V30 BEGIN ATOM
M  V30 1 C 0.021123 -5.768446 2.023181 0
M  V30 2 C 1.209281 -4.876733 2.081715 0
M  V30 3 N 2.467916 -5.181039 2.424220 0
M  V30 4 N 3.206279 -4.068073 2.335076 0
M  V30 5 C 2.404889 -3.057964 1.933645 0
M  V30 6 C 2.845930 -1.665101 1.716877 0
M  V30 7 C 4.163995 -1.263180 1.913707 0
M  V30 8 C 4.463144 0.063149 1.680971 0
M  V30 9 C 3.526289 0.984998 1.269855 0
M  V30 10 O 3.655833 2.266129 1.010327 0
M  V30 11 C 2.466900 2.744330 0.643948 0
M  V30 12 C 1.531236 1.713656 0.671633 0
M  V30 13 C 0.107324 1.756485 0.351865 0
M  V30 14 C -0.295935 2.439039 -0.801105 0
M  V30 15 C -1.627272 2.518754 -1.162949 0
M  V30 16 C -2.581072 1.911412 -0.369238 0
M  V30 17 S -4.310359 1.899066 -0.655620 0 CHG=1 VAL=3
M  V30 18 C -4.821030 0.514257 -1.636424 0
M  V30 19 O -5.161455 1.854337 0.780500 0 CHG=-1 VAL=1
M  V30 20 C -2.202829 1.227077 0.782130 0
M  V30 21 C -0.852678 1.152699 1.138846 0
M  V30 22 C 2.208509 0.578904 1.074025 0
M  V30 23 C 1.907032 -0.741481 1.304918 0
M  V30 24 N 1.144659 -3.556663 1.771149 0
M  V30 25 H -0.258943 -5.938230 0.947007 0
M  V30 26 H 0.260704 -6.759780 2.449831 0
M  V30 27 H -0.790475 -5.258302 2.578192 0
M  V30 28 H 4.863614 -2.019934 2.236068 0
M  V30 29 H 5.489412 0.328981 1.844805 0
M  V30 30 H 2.142139 3.737783 0.350078 0
M  V30 31 H 0.399801 2.943999 -1.478223 0
M  V30 32 H -2.018409 3.018298 -2.023766 0
M  V30 33 H -5.289652 -0.293273 -1.006012 0
M  V30 34 H -5.512822 0.787505 -2.450932 0
M  V30 35 H -3.908296 0.083919 -2.089689 0
M  V30 36 H -2.896454 0.724878 1.455247 0
M  V30 37 H -0.568089 0.621572 2.030868 0
M  V30 38 H 0.904334 -1.060808 1.158229 0
M  V30 39 H 0.292391 -3.003024 1.461157 0
M  V30 END ATOM
M  V30 BEGIN BOND
M  V30 1 1 1 2
M  V30 2 2 2 3
M  V30 3 1 3 4
M  V30 4 2 4 5
M  V30 5 1 5 6
M  V30 6 2 6 7
M  V30 7 1 7 8
M  V30 8 2 8 9
M  V30 9 1 9 10
M  V30 10 1 10 11
M  V30 11 2 11 12
M  V30 12 1 12 13
M  V30 13 2 13 14
M  V30 14 1 14 15
M  V30 15 2 15 16
M  V30 16 1 16 17
M  V30 17 1 17 18
M  V30 18 1 17 19
M  V30 19 1 16 20
M  V30 20 2 20 21
M  V30 21 1 12 22
M  V30 22 2 22 23
M  V30 23 1 5 24
M  V30 24 1 24 2
M  V30 25 1 23 6
M  V30 26 1 22 9
M  V30 27 1 21 13
M  V30 28 1 1 25
M  V30 29 1 1 26
M  V30 30 1 1 27
M  V30 31 1 7 28
M  V30 32 1 8 29
M  V30 33 1 11 30
M  V30 34 1 14 31
M  V30 35 1 15 32
M  V30 36 1 18 33
M  V30 37 1 18 34
M  V30 38 1 18 35
M  V30 39 1 20 36
M  V30 40 1 21 37
M  V30 41 1 23 38
M  V30 42 1 24 39
M  V30 END BOND
M  V30 END CTAB
M  END
>  <Dataset>  (854) 
ChEMBL_Kinases

>  <Ligand_Instance>  (854) 
nan

>  <PDB_ID>  (854) 
nan

>  <Standardized_SMILES>  (854) 
Cc1nnc(-c2ccc3occ(-c4ccc([S+](C)[O-])cc4)c3c2)[nH]1

>  <Name>  (854) 
nan

>  <Pocket>  (854) 
nan

>  <ATP_Site>  (854) 
nan

>  <Peripheral>  (854) 
nan

>  <Num_H_Atoms_ProtBoundConf>  (854) 
nan

>  <Num_Resolved_Atoms>  (854) 
nan

>  <Num_Not_Resolved_Atoms>  (854) 
nan

$$$$
CHEMBL509940
     RDKit          3D

  0  0  0  0  0  0  0  0  0  0999 V3000
M  V30 BEGIN CTAB
M  V30 COUNTS 51 52 0 0 0
M  V30 BEGIN ATOM
M  V30 1 C 0.897659 -1.481691 3.793806 0
M  V30 2 C 2.068663 -1.100255 4.664908 0
M  V30 3 C 1.791756 -1.662897 6.056922 0
M  V30 4 C 3.308912 -1.732470 4.098704 0
M  V30 5 C 2.178783 0.382732 4.828601 0
M  V30 6 C 2.365757 1.133570 3.571932 0
M  V30 7 O 2.996943 2.077401 3.042384 0
M  V30 8 O 1.711723 0.911436 2.351833 0
M  V30 9 C 1.996607 1.723284 1.224537 0
M  V30 10 C 1.191081 1.271532 0.068540 0
M  V30 11 C 1.473071 2.083760 -1.177490 0
M  V30 12 O 0.679977 1.728529 -2.249164 0
M  V30 13 C -0.282603 1.307818 0.389311 0
M  V30 14 C -0.796186 0.246340 -0.519484 0
M  V30 15 C -2.043898 -0.105267 -0.821267 0
M  V30 16 C -2.481955 -1.166954 -1.725667 0
M  V30 17 C -3.435823 -0.702505 -2.628464 0
M  V30 18 C -3.937368 -1.648750 -3.535229 0
M  V30 19 C -3.467968 -2.941346 -3.477051 0
M  V30 20 C -3.948513 -4.020468 -4.406681 0
M  V30 21 F -5.228657 -3.672919 -4.802575 0
M  V30 22 F -3.152530 -3.930934 -5.533570 0
M  V30 23 F -3.937445 -5.257360 -3.830875 0
M  V30 24 C -2.521419 -3.344596 -2.560473 0
M  V30 25 C -2.006468 -2.427785 -1.648283 0
M  V30 26 C 0.358609 -0.422211 -1.163876 0
M  V30 27 O 0.353971 -1.107909 -2.222997 0
M  V30 28 O 1.444087 -0.099750 -0.306916 0
M  V30 29 H 0.172078 -0.651389 3.798401 0
M  V30 30 H 0.417905 -2.414449 4.133901 0
M  V30 31 H 1.283162 -1.674240 2.789296 0
M  V30 32 H 1.520597 -2.729011 5.924887 0
M  V30 33 H 2.671160 -1.523616 6.718022 0
M  V30 34 H 0.958438 -1.050784 6.483280 0
M  V30 35 H 3.059123 -2.666693 3.515188 0
M  V30 36 H 3.867384 -1.021286 3.480148 0
M  V30 37 H 3.955160 -2.109920 4.930183 0
M  V30 38 H 3.001357 0.611643 5.546099 0
M  V30 39 H 1.237313 0.737620 5.320235 0
M  V30 40 H 1.757911 2.790249 1.459640 0
M  V30 41 H 3.077285 1.587396 0.945932 0
M  V30 42 H 1.271248 3.166905 -0.987843 0
M  V30 43 H 2.532761 1.997623 -1.486303 0
M  V30 44 H -0.251012 2.002428 -2.202711 0
M  V30 45 H -0.506462 1.153360 1.444977 0
M  V30 46 H -0.651702 2.317490 0.111270 0
M  V30 47 H -2.796458 0.505629 -0.302293 0
M  V30 48 H -3.811308 0.310919 -2.679674 0
M  V30 49 H -4.673854 -1.369239 -4.259927 0
M  V30 50 H -2.137302 -4.375330 -2.504220 0
M  V30 51 H -1.283843 -2.762349 -0.935244 0
M  V30 END ATOM
M  V30 BEGIN BOND
M  V30 1 1 1 2
M  V30 2 1 2 3
M  V30 3 1 2 4
M  V30 4 1 2 5
M  V30 5 1 5 6
M  V30 6 2 6 7
M  V30 7 1 6 8
M  V30 8 1 8 9
M  V30 9 1 9 10
M  V30 10 1 10 11
M  V30 11 1 11 12
M  V30 12 1 10 13
M  V30 13 1 13 14
M  V30 14 2 14 15
M  V30 15 1 15 16
M  V30 16 2 16 17
M  V30 17 1 17 18
M  V30 18 2 18 19
M  V30 19 1 19 20
M  V30 20 1 20 21
M  V30 21 1 20 22
M  V30 22 1 20 23
M  V30 23 1 19 24
M  V30 24 2 24 25
M  V30 25 1 14 26
M  V30 26 2 26 27
M  V30 27 1 26 28
M  V30 28 1 28 10
M  V30 29 1 25 16
M  V30 30 1 1 29
M  V30 31 1 1 30
M  V30 32 1 1 31
M  V30 33 1 3 32
M  V30 34 1 3 33
M  V30 35 1 3 34
M  V30 36 1 4 35
M  V30 37 1 4 36
M  V30 38 1 4 37
M  V30 39 1 5 38
M  V30 40 1 5 39
M  V30 41 1 9 40
M  V30 42 1 9 41
M  V30 43 1 11 42
M  V30 44 1 11 43
M  V30 45 1 12 44
M  V30 46 1 13 45
M  V30 47 1 13 46
M  V30 48 1 15 47
M  V30 49 1 17 48
M  V30 50 1 18 49
M  V30 51 1 24 50
M  V30 52 1 25 51
M  V30 END BOND
M  V30 END CTAB
M  END
>  <Dataset>  (855) 
ChEMBL_Kinases

>  <Ligand_Instance>  (855) 
nan

>  <PDB_ID>  (855) 
nan

>  <Standardized_SMILES>  (855) 
CC(C)(C)CC(=O)OCC1(CO)C/C(=C/c2ccc(C(F)(F)F)cc2)C(=O)O1

>  <Name>  (855) 
nan

>  <Pocket>  (855) 
nan

>  <ATP_Site>  (855) 
nan

>  <Peripheral>  (855) 
nan

>  <Num_H_Atoms_ProtBoundConf>  (855) 
nan

>  <Num_Resolved_Atoms>  (855) 
nan

>  <Num_Not_Resolved_Atoms>  (855) 
nan

$$$$
CHEMBL3746559
     RDKit          3D

  0  0  0  0  0  0  0  0  0  0999 V3000
M  V30 BEGIN CTAB
M  V30 COUNTS 46 48 0 0 0
M  V30 BEGIN ATOM
M  V30 1 N 0.725386 -2.743638 2.340448 0
M  V30 2 C -0.540263 -2.220409 1.971567 0
M  V30 3 O -1.451003 -2.948688 2.435607 0
M  V30 4 C -0.823242 -1.040161 1.187079 0
M  V30 5 C 0.215245 -0.276011 0.700863 0
M  V30 6 O 1.510286 -0.684200 0.993269 0
M  V30 7 C 2.619003 0.035158 0.537635 0
M  V30 8 C 3.042304 -0.420907 -0.716126 0
M  V30 9 C 4.148373 0.224898 -1.276875 0
M  V30 10 C 4.783801 1.259927 -0.617783 0
M  V30 11 F 5.856532 1.893430 -1.151174 0
M  V30 12 C 4.341405 1.691963 0.626631 0
M  V30 13 N 4.968123 2.754819 1.338697 0
M  V30 14 S 4.360220 3.250747 2.900503 0
M  V30 15 N 2.744856 3.810076 2.738851 0
M  V30 16 O 4.509966 2.162821 3.913286 0
M  V30 17 O 5.213409 4.396268 3.377774 0
M  V30 18 C 3.252324 1.063662 1.189967 0
M  V30 19 C -0.116542 0.849018 -0.047873 0
M  V30 20 C -1.456246 1.160068 -0.276940 0
M  V30 21 F -1.728880 2.263565 -1.010423 0
M  V30 22 C -2.480100 0.356944 0.235267 0
M  V30 23 F -3.766288 0.687834 -0.005966 0
M  V30 24 C -2.160655 -0.769624 0.984790 0
M  V30 25 N -3.192325 -1.609102 1.520611 0
M  V30 26 C -3.639456 -2.683817 0.700687 0
M  V30 27 C -3.065216 -2.853838 -0.542025 0
M  V30 28 C -3.501310 -3.904907 -1.345949 0
M  V30 29 C -4.495568 -4.768945 -0.909721 0
M  V30 30 I -5.078390 -6.334493 -2.222628 0
M  V30 31 C -5.084126 -4.614180 0.335124 0
M  V30 32 C -4.626455 -3.552058 1.118203 0
M  V30 33 F -5.211355 -3.419597 2.323966 0
M  V30 34 H 1.007581 -2.589457 3.332692 0
M  V30 35 H 1.568384 -3.272568 1.980038 0
M  V30 36 H 2.583844 -1.224342 -1.275301 0
M  V30 37 H 4.519918 -0.085650 -2.244640 0
M  V30 38 H 5.801214 3.206820 0.867800 0
M  V30 39 H 2.691282 4.837416 2.856304 0
M  V30 40 H 2.131381 3.355801 3.436036 0
M  V30 41 H 2.837991 1.338385 2.163517 0
M  V30 42 H 0.710703 1.430890 -0.417491 0
M  V30 43 H -3.625819 -1.484063 2.452843 0
M  V30 44 H -2.292706 -2.227544 -0.947893 0
M  V30 45 H -3.060665 -4.051325 -2.323180 0
M  V30 46 H -5.858627 -5.297456 0.659834 0
M  V30 END ATOM
M  V30 BEGIN BOND
M  V30 1 1 1 2
M  V30 2 2 2 3
M  V30 3 1 2 4
M  V30 4 2 4 5
M  V30 5 1 5 6
M  V30 6 1 6 7
M  V30 7 2 7 8
M  V30 8 1 8 9
M  V30 9 2 9 10
M  V30 10 1 10 11
M  V30 11 1 10 12
M  V30 12 1 12 13
M  V30 13 1 13 14
M  V30 14 1 14 15
M  V30 15 2 14 16
M  V30 16 2 14 17
M  V30 17 2 12 18
M  V30 18 1 5 19
M  V30 19 2 19 20
M  V30 20 1 20 21
M  V30 21 1 20 22
M  V30 22 1 22 23
M  V30 23 2 22 24
M  V30 24 1 24 25
M  V30 25 1 25 26
M  V30 26 2 26 27
M  V30 27 1 27 28
M  V30 28 2 28 29
M  V30 29 1 29 30
M  V30 30 1 29 31
M  V30 31 2 31 32
M  V30 32 1 32 33
M  V30 33 1 24 4
M  V30 34 1 32 26
M  V30 35 1 18 7
M  V30 36 1 1 34
M  V30 37 1 1 35
M  V30 38 1 8 36
M  V30 39 1 9 37
M  V30 40 1 13 38
M  V30 41 1 15 39
M  V30 42 1 15 40
M  V30 43 1 18 41
M  V30 44 1 19 42
M  V30 45 1 25 43
M  V30 46 1 27 44
M  V30 47 1 28 45
M  V30 48 1 31 46
M  V30 END BOND
M  V30 END CTAB
M  END
>  <Dataset>  (856) 
ChEMBL_Kinases

>  <Ligand_Instance>  (856) 
nan

>  <PDB_ID>  (856) 
nan

>  <Standardized_SMILES>  (856) 
NC(=O)c1c(Oc2ccc(F)c(NS(N)(=O)=O)c2)cc(F)c(F)c1Nc1ccc(I)cc1F

>  <Name>  (856) 
nan

>  <Pocket>  (856) 
nan

>  <ATP_Site>  (856) 
nan

>  <Peripheral>  (856) 
nan

>  <Num_H_Atoms_ProtBoundConf>  (856) 
nan

>  <Num_Resolved_Atoms>  (856) 
nan

>  <Num_Not_Resolved_Atoms>  (856) 
nan

$$$$
CHEMBL3746537
     RDKit          3D

  0  0  0  0  0  0  0  0  0  0999 V3000
M  V30 BEGIN CTAB
M  V30 COUNTS 46 48 0 0 0
M  V30 BEGIN ATOM
M  V30 1 N -2.501542 -1.970076 -1.497246 0
M  V30 2 C -2.567332 -0.753251 -0.804962 0
M  V30 3 O -2.927091 -1.581095 0.057807 0
M  V30 4 C -2.384142 0.680914 -0.850668 0
M  V30 5 C -2.632278 1.372613 0.301113 0
M  V30 6 N -3.009204 0.877633 1.548627 0
M  V30 7 C -2.409393 0.051315 2.505687 0
M  V30 8 C -1.149922 -0.507812 2.445657 0
M  V30 9 C -0.586864 -1.320039 3.407598 0
M  V30 10 C -1.336900 -1.604424 4.528915 0
M  V30 11 I -0.555139 -2.830040 6.036672 0
M  V30 12 C -2.598004 -1.062097 4.619817 0
M  V30 13 C -3.119586 -0.262294 3.645450 0
M  V30 14 F -4.382822 0.237978 3.812166 0
M  V30 15 C -2.479380 2.755687 0.145077 0
M  V30 16 C -2.119348 3.375296 -1.024630 0
M  V30 17 F -2.008200 4.719382 -1.035386 0
M  V30 18 C -1.890762 2.564542 -2.133179 0
M  V30 19 C -2.019744 1.169212 -2.073103 0
M  V30 20 O -1.746753 0.622790 -3.265673 0
M  V30 21 C -0.831731 -0.262154 -3.706068 0
M  V30 22 C -1.002348 -1.480049 -4.331587 0
M  V30 23 C -0.026812 -2.350469 -4.763015 0
M  V30 24 C 1.262035 -1.922063 -4.525579 0
M  V30 25 C 1.549419 -0.722948 -3.908106 0
M  V30 26 N 2.922823 -0.411645 -3.728977 0
M  V30 27 S 4.195055 -1.481222 -4.260668 0
M  V30 28 N 4.069693 -3.000531 -3.424908 0
M  V30 29 O 5.522541 -0.858919 -3.956775 0
M  V30 30 O 4.074512 -1.751955 -5.733284 0
M  V30 31 C 0.500945 0.108695 -3.497513 0
M  V30 32 Br 1.101604 1.722426 -2.661470 0
M  V30 33 H -2.967212 -2.353483 -2.365833 0
M  V30 34 H -2.965383 -2.358809 -2.366804 0
M  V30 35 H -3.967203 1.261751 1.718691 0
M  V30 36 H -0.559304 -0.282218 1.559905 0
M  V30 37 H 0.401897 -1.694161 3.246333 0
M  V30 38 H -3.201987 -1.275010 5.494561 0
M  V30 39 H -2.663300 3.385537 1.030602 0
M  V30 40 H -1.612421 3.158227 -3.008595 0
M  V30 41 H -2.040638 -1.756290 -4.490818 0
M  V30 42 H -0.289270 -3.264963 -5.234543 0
M  V30 43 H 2.071406 -2.589053 -4.855403 0
M  V30 44 H 3.183887 0.501061 -3.256601 0
M  V30 45 H 4.851913 -3.100074 -2.738708 0
M  V30 46 H 4.135903 -3.815868 -4.069129 0
M  V30 END ATOM
M  V30 BEGIN BOND
M  V30 1 1 1 2
M  V30 2 2 2 3
M  V30 3 1 2 4
M  V30 4 2 4 5
M  V30 5 1 5 6
M  V30 6 1 6 7
M  V30 7 2 7 8
M  V30 8 1 8 9
M  V30 9 2 9 10
M  V30 10 1 10 11
M  V30 11 1 10 12
M  V30 12 2 12 13
M  V30 13 1 13 14
M  V30 14 1 5 15
M  V30 15 2 15 16
M  V30 16 1 16 17
M  V30 17 1 16 18
M  V30 18 2 18 19
M  V30 19 1 19 20
M  V30 20 1 20 21
M  V30 21 2 21 22
M  V30 22 1 22 23
M  V30 23 2 23 24
M  V30 24 1 24 25
M  V30 25 1 25 26
M  V30 26 1 26 27
M  V30 27 1 27 28
M  V30 28 2 27 29
M  V30 29 2 27 30
M  V30 30 2 25 31
M  V30 31 1 31 32
M  V30 32 1 19 4
M  V30 33 1 31 21
M  V30 34 1 13 7
M  V30 35 1 1 33
M  V30 36 1 1 34
M  V30 37 1 6 35
M  V30 38 1 8 36
M  V30 39 1 9 37
M  V30 40 1 12 38
M  V30 41 1 15 39
M  V30 42 1 18 40
M  V30 43 1 22 41
M  V30 44 1 23 42
M  V30 45 1 24 43
M  V30 46 1 26 44
M  V30 47 1 28 45
M  V30 48 1 28 46
M  V30 END BOND
M  V30 END CTAB
M  END
>  <Dataset>  (857) 
ChEMBL_Kinases

>  <Ligand_Instance>  (857) 
nan

>  <PDB_ID>  (857) 
nan

>  <Standardized_SMILES>  (857) 
NC(=O)c1c(Nc2ccc(I)cc2F)cc(F)cc1Oc1cccc(NS(N)(=O)=O)c1Br

>  <Name>  (857) 
nan

>  <Pocket>  (857) 
nan

>  <ATP_Site>  (857) 
nan

>  <Peripheral>  (857) 
nan

>  <Num_H_Atoms_ProtBoundConf>  (857) 
nan

>  <Num_Resolved_Atoms>  (857) 
nan

>  <Num_Not_Resolved_Atoms>  (857) 
nan

$$$$
CHEMBL3746516
     RDKit          3D

  0  0  0  0  0  0  0  0  0  0999 V3000
M  V30 BEGIN CTAB
M  V30 COUNTS 46 48 0 0 0
M  V30 BEGIN ATOM
M  V30 1 N -0.662685 0.508341 1.967050 0
M  V30 2 C 0.553677 0.302814 1.304752 0
M  V30 3 O 1.098582 0.442855 2.416172 0
M  V30 4 C 1.009839 0.047543 -0.029644 0
M  V30 5 C 2.354972 -0.057425 -0.221397 0
M  V30 6 N 3.404374 0.065902 0.698163 0
M  V30 7 C 3.908777 1.050024 1.590469 0
M  V30 8 C 4.144049 1.163407 2.959179 0
M  V30 9 C 4.655445 2.305103 3.520596 0
M  V30 10 C 4.966707 3.408874 2.756573 0
M  V30 11 I 5.742387 5.063836 3.799962 0
M  V30 12 C 4.745614 3.338406 1.372892 0
M  V30 13 C 4.231024 2.182841 0.826630 0
M  V30 14 F 4.105332 2.355415 -0.525720 0
M  V30 15 C 2.815069 -0.314583 -1.504363 0
M  V30 16 C 1.910616 -0.459704 -2.562984 0
M  V30 17 F 2.379169 -0.712493 -3.811486 0
M  V30 18 C 0.543831 -0.336191 -2.274811 0
M  V30 19 C 0.049842 -0.075322 -0.984252 0
M  V30 20 O -1.289082 -0.011651 -1.025545 0
M  V30 21 C -2.310679 -0.674426 -0.460436 0
M  V30 22 C -3.322817 -0.104984 0.322685 0
M  V30 23 C -4.400911 -0.698652 0.936809 0
M  V30 24 C -4.478261 -2.084125 0.735629 0
M  V30 25 F -5.513810 -2.723474 1.311233 0
M  V30 26 C -3.531441 -2.740774 -0.019325 0
M  V30 27 N -3.689794 -4.148602 -0.174625 0
M  V30 28 S -2.813764 -4.769281 1.143291 0
M  V30 29 N -3.443768 -4.270173 2.668348 0
M  V30 30 O -2.879467 -6.265588 1.118523 0
M  V30 31 O -1.346134 -4.367963 1.090732 0
M  V30 32 C -2.484423 -2.053054 -0.595971 0
M  V30 33 F -1.616672 -2.801149 -1.313764 0
M  V30 34 H -1.327947 -0.205936 2.412113 0
M  V30 35 H -1.274575 1.341679 2.223911 0
M  V30 36 H 4.168972 -0.590440 0.981095 0
M  V30 37 H 3.842496 0.201055 3.396181 0
M  V30 38 H 4.762064 2.186562 4.591703 0
M  V30 39 H 5.024097 4.252154 0.892850 0
M  V30 40 H 3.867645 -0.418131 -1.774121 0
M  V30 41 H -0.058170 -0.472723 -3.188677 0
M  V30 42 H -3.239834 0.969523 0.463063 0
M  V30 43 H -5.088147 -0.121509 1.501724 0
M  V30 44 H -4.218265 -4.673826 -0.921022 0
M  V30 45 H -3.342375 -3.244815 2.822763 0
M  V30 46 H -3.063263 -4.835811 3.450953 0
M  V30 END ATOM
M  V30 BEGIN BOND
M  V30 1 1 1 2
M  V30 2 2 2 3
M  V30 3 1 2 4
M  V30 4 2 4 5
M  V30 5 1 5 6
M  V30 6 1 6 7
M  V30 7 2 7 8
M  V30 8 1 8 9
M  V30 9 2 9 10
M  V30 10 1 10 11
M  V30 11 1 10 12
M  V30 12 2 12 13
M  V30 13 1 13 14
M  V30 14 1 5 15
M  V30 15 2 15 16
M  V30 16 1 16 17
M  V30 17 1 16 18
M  V30 18 2 18 19
M  V30 19 1 19 20
M  V30 20 1 20 21
M  V30 21 2 21 22
M  V30 22 1 22 23
M  V30 23 2 23 24
M  V30 24 1 24 25
M  V30 25 1 24 26
M  V30 26 1 26 27
M  V30 27 1 27 28
M  V30 28 1 28 29
M  V30 29 2 28 30
M  V30 30 2 28 31
M  V30 31 2 26 32
M  V30 32 1 32 33
M  V30 33 1 19 4
M  V30 34 1 32 21
M  V30 35 1 13 7
M  V30 36 1 1 34
M  V30 37 1 1 35
M  V30 38 1 6 36
M  V30 39 1 8 37
M  V30 40 1 9 38
M  V30 41 1 12 39
M  V30 42 1 15 40
M  V30 43 1 18 41
M  V30 44 1 22 42
M  V30 45 1 23 43
M  V30 46 1 27 44
M  V30 47 1 29 45
M  V30 48 1 29 46
M  V30 END BOND
M  V30 END CTAB
M  END
>  <Dataset>  (858) 
ChEMBL_Kinases

>  <Ligand_Instance>  (858) 
nan

>  <PDB_ID>  (858) 
nan

>  <Standardized_SMILES>  (858) 
NC(=O)c1c(Nc2ccc(I)cc2F)cc(F)cc1Oc1ccc(F)c(NS(N)(=O)=O)c1F

>  <Name>  (858) 
nan

>  <Pocket>  (858) 
nan

>  <ATP_Site>  (858) 
nan

>  <Peripheral>  (858) 
nan

>  <Num_H_Atoms_ProtBoundConf>  (858) 
nan

>  <Num_Resolved_Atoms>  (858) 
nan

>  <Num_Not_Resolved_Atoms>  (858) 
nan

$$$$
CHEMBL509601
     RDKit          3D

  0  0  0  0  0  0  0  0  0  0999 V3000
M  V30 BEGIN CTAB
M  V30 COUNTS 37 40 0 0 0
M  V30 BEGIN ATOM
M  V30 1 O 2.909534 -5.448142 0.440195 0
M  V30 2 C 2.889352 -4.234346 0.744430 0
M  V30 3 N 3.801667 -3.462206 1.514931 0
M  V30 4 C 3.355450 -2.128032 1.584900 0
M  V30 5 O 4.049708 -1.348554 2.221357 0
M  V30 6 C 2.133492 -1.982257 0.860878 0
M  V30 7 C 1.865090 -3.237051 0.365965 0
M  V30 8 C 0.725452 -3.479328 -0.408217 0
M  V30 9 C -0.096653 -2.405314 -0.640427 0
M  V30 10 C 0.145685 -1.150823 -0.160992 0
M  V30 11 C 1.281829 -0.969178 0.594447 0
M  V30 12 C 1.306546 0.345348 0.944043 0
M  V30 13 C 2.105583 1.189074 1.656826 0
M  V30 14 C 1.876962 2.531290 1.855027 0
M  V30 15 O 2.710601 3.375571 2.589550 0
M  V30 16 C 0.733997 3.105120 1.287632 0
M  V30 17 C -0.080534 2.259405 0.564683 0
M  V30 18 C 0.180744 0.897146 0.381777 0
M  V30 19 N -0.563267 -0.019617 -0.314829 0
M  V30 20 C -1.776319 0.303422 -1.004507 0
M  V30 21 C -2.951774 0.214703 -0.082728 0
M  V30 22 C -3.200289 -1.136340 0.519593 0
M  V30 23 O -3.464838 -2.115874 -0.415966 0
M  V30 24 H 4.652861 -3.957454 1.916482 0
M  V30 25 H 0.497172 -4.458164 -0.806350 0
M  V30 26 H -0.962253 -2.605692 -1.245224 0
M  V30 27 H 3.000591 0.869866 2.134159 0
M  V30 28 H 2.805172 3.199871 3.583230 0
M  V30 29 H 0.518930 4.155393 1.420153 0
M  V30 30 H -0.953913 2.759105 0.146661 0
M  V30 31 H -1.909835 -0.297442 -1.929980 0
M  V30 32 H -1.711181 1.375387 -1.347395 0
M  V30 33 H -2.811968 0.916810 0.776732 0
M  V30 34 H -3.910685 0.496549 -0.612424 0
M  V30 35 H -2.356649 -1.469450 1.170021 0
M  V30 36 H -4.072201 -1.071070 1.222675 0
M  V30 37 H -3.126411 -2.974153 -0.084335 0
M  V30 END ATOM
M  V30 BEGIN BOND
M  V30 1 2 1 2
M  V30 2 1 2 3
M  V30 3 1 3 4
M  V30 4 2 4 5
M  V30 5 1 4 6
M  V30 6 2 6 7
M  V30 7 1 7 8
M  V30 8 2 8 9
M  V30 9 1 9 10
M  V30 10 2 10 11
M  V30 11 1 11 12
M  V30 12 2 12 13
M  V30 13 1 13 14
M  V30 14 1 14 15
M  V30 15 2 14 16
M  V30 16 1 16 17
M  V30 17 2 17 18
M  V30 18 1 18 19
M  V30 19 1 19 20
M  V30 20 1 20 21
M  V30 21 1 21 22
M  V30 22 1 22 23
M  V30 23 1 7 2
M  V30 24 1 19 10
M  V30 25 1 11 6
M  V30 26 1 18 12
M  V30 27 1 3 24
M  V30 28 1 8 25
M  V30 29 1 9 26
M  V30 30 1 13 27
M  V30 31 1 15 28
M  V30 32 1 16 29
M  V30 33 1 17 30
M  V30 34 1 20 31
M  V30 35 1 20 32
M  V30 36 1 21 33
M  V30 37 1 21 34
M  V30 38 1 22 35
M  V30 39 1 22 36
M  V30 40 1 23 37
M  V30 END BOND
M  V30 END CTAB
M  END
>  <Dataset>  (859) 
ChEMBL_Kinases

>  <Ligand_Instance>  (859) 
nan

>  <PDB_ID>  (859) 
nan

>  <Standardized_SMILES>  (859) 
O=C1NC(=O)c2c1ccc1c2c2cc(O)ccc2n1CCCO

>  <Name>  (859) 
nan

>  <Pocket>  (859) 
nan

>  <ATP_Site>  (859) 
nan

>  <Peripheral>  (859) 
nan

>  <Num_H_Atoms_ProtBoundConf>  (859) 
nan

>  <Num_Resolved_Atoms>  (859) 
nan

>  <Num_Not_Resolved_Atoms>  (859) 
nan

$$$$
CHEMBL5093914
     RDKit          3D

  0  0  0  0  0  0  0  0  0  0999 V3000
M  V30 BEGIN CTAB
M  V30 COUNTS 51 55 0 0 0
M  V30 BEGIN ATOM
M  V30 1 C 4.563422 0.108869 4.113439 0
M  V30 2 N 4.905090 1.419328 4.608434 0
M  V30 3 N 5.273493 1.685739 5.871227 0
M  V30 4 C 5.505721 2.988365 5.960834 0
M  V30 5 C 5.283925 3.554167 4.749041 0
M  V30 6 C 4.896796 2.539448 3.878598 0
M  V30 7 N 4.583025 2.762795 2.510219 0
M  V30 8 C 4.208640 1.726698 1.613176 0
M  V30 9 N 5.243722 1.215282 0.881981 0
M  V30 10 C 5.041447 0.224064 -0.003887 0
M  V30 11 C 3.739798 -0.215028 -0.104401 0
M  V30 12 C 2.659760 0.259109 0.602819 0
M  V30 13 C 1.304770 -0.252411 0.455923 0
M  V30 14 C 0.190249 0.182276 1.139924 0
M  V30 15 N -0.811367 -0.589254 0.666122 0
M  V30 16 C -0.393884 -1.465219 -0.258602 0
M  V30 17 N 0.936652 -1.239832 -0.377936 0
M  V30 18 C -1.523394 -2.291487 -0.755280 0
M  V30 19 N -2.663199 -1.829803 -0.025739 0
M  V30 20 C -4.025014 -2.337907 -0.144341 0 CFG=2
M  V30 21 C -4.086200 -3.795376 0.279736 0
M  V30 22 O -3.668457 -3.945961 1.609076 0
M  V30 23 C -4.483374 -2.269271 -1.556268 0
M  V30 24 C -4.238297 -1.098932 -2.277876 0
M  V30 25 C -4.626790 -0.947601 -3.591019 0
M  V30 26 C -5.292662 -1.977729 -4.262198 0
M  V30 27 C -5.536660 -3.134857 -3.553949 0
M  V30 28 Cl -6.371085 -4.515210 -4.286351 0
M  V30 29 C -5.139818 -3.267228 -2.240263 0
M  V30 30 C -2.222096 -0.789545 0.835105 0
M  V30 31 O -2.957050 -0.135044 1.632447 0
M  V30 32 N 2.949425 1.259758 1.475837 0
M  V30 33 H 5.138093 -0.235692 3.255299 0
M  V30 34 H 3.459693 0.017632 3.925662 0
M  V30 35 H 4.763114 -0.656228 4.919406 0
M  V30 36 H 5.815414 3.462284 6.869203 0
M  V30 37 H 5.412595 4.629095 4.576027 0
M  V30 38 H 4.613162 3.709592 2.094332 0
M  V30 39 H 5.799107 -0.237393 -0.620830 0
M  V30 40 H 3.535955 -1.012468 -0.806007 0
M  V30 41 H 0.180724 0.967385 1.877705 0
M  V30 42 H -1.609526 -2.209541 -1.847051 0
M  V30 43 H -1.333933 -3.360047 -0.459933 0
M  V30 44 H -4.712787 -1.796148 0.546698 0
M  V30 45 H -3.563191 -4.432322 -0.432117 0
M  V30 46 H -5.164644 -4.126460 0.299573 0
M  V30 47 H -4.171264 -3.237054 2.106275 0
M  V30 48 H -3.728885 -0.243067 -1.848353 0
M  V30 49 H -4.458281 -0.070070 -4.176118 0
M  V30 50 H -5.628951 -1.937664 -5.288160 0
M  V30 51 H -5.345285 -4.186745 -1.712777 0
M  V30 END ATOM
M  V30 BEGIN BOND
M  V30 1 1 1 2
M  V30 2 1 2 3
M  V30 3 2 3 4
M  V30 4 1 4 5
M  V30 5 2 5 6
M  V30 6 1 6 7
M  V30 7 1 7 8
M  V30 8 2 8 9
M  V30 9 1 9 10
M  V30 10 2 10 11
M  V30 11 1 11 12
M  V30 12 1 12 13
M  V30 13 2 13 14
M  V30 14 1 14 15
M  V30 15 1 15 16
M  V30 16 2 16 17
M  V30 17 1 16 18
M  V30 18 1 18 19
M  V30 19 1 19 20
M  V30 20 1 20 21
M  V30 21 1 21 22
M  V30 22 1 20 23
M  V30 23 2 23 24
M  V30 24 1 24 25
M  V30 25 2 25 26
M  V30 26 1 26 27
M  V30 27 1 27 28
M  V30 28 2 27 29
M  V30 29 1 19 30
M  V30 30 2 30 31
M  V30 31 2 12 32
M  V30 32 1 6 2
M  V30 33 1 32 8
M  V30 34 1 17 13
M  V30 35 1 29 23
M  V30 36 1 30 15
M  V30 37 1 1 33
M  V30 38 1 1 34
M  V30 39 1 1 35
M  V30 40 1 4 36
M  V30 41 1 5 37
M  V30 42 1 7 38
M  V30 43 1 10 39
M  V30 44 1 11 40
M  V30 45 1 14 41
M  V30 46 1 18 42
M  V30 47 1 18 43
M  V30 48 1 20 44 CFG=1
M  V30 49 1 21 45
M  V30 50 1 21 46
M  V30 51 1 22 47
M  V30 52 1 24 48
M  V30 53 1 25 49
M  V30 54 1 26 50
M  V30 55 1 29 51
M  V30 END BOND
M  V30 END CTAB
M  END
>  <Dataset>  (860) 
ChEMBL_Kinases

>  <Ligand_Instance>  (860) 
nan

>  <PDB_ID>  (860) 
nan

>  <Standardized_SMILES>  (860) 
Cn1nccc1Nc1nccc(-c2cn3c(n2)CN([C@H](CO)c2cccc(Cl)c2)C3=O)n1

>  <Name>  (860) 
nan

>  <Pocket>  (860) 
nan

>  <ATP_Site>  (860) 
nan

>  <Peripheral>  (860) 
nan

>  <Num_H_Atoms_ProtBoundConf>  (860) 
nan

>  <Num_Resolved_Atoms>  (860) 
nan

>  <Num_Not_Resolved_Atoms>  (860) 
nan

$$$$
CHEMBL5093965
     RDKit          3D

  0  0  0  0  0  0  0  0  0  0999 V3000
M  V30 BEGIN CTAB
M  V30 COUNTS 54 58 0 0 0
M  V30 BEGIN ATOM
M  V30 1 O 3.041824 1.679618 3.625227 0
M  V30 2 C 3.481045 1.233233 2.531176 0
M  V30 3 N 4.872435 1.324236 2.381535 0
M  V30 4 C 5.805941 1.854641 3.315339 0
M  V30 5 C 6.311526 0.919608 4.210749 0
M  V30 6 C 7.239248 1.320058 5.179222 0
M  V30 7 C 7.629740 2.652070 5.216021 0
M  V30 8 C 7.128217 3.591007 4.324146 0
M  V30 9 C 6.221786 3.179455 3.384364 0
M  V30 10 C 2.615071 0.667192 1.501974 0
M  V30 11 C 3.080594 0.174201 0.299291 0
M  V30 12 C 2.242903 -0.358187 -0.662866 0
M  V30 13 C 0.886655 -0.399815 -0.413964 0
M  V30 14 C 0.422648 0.099146 0.801477 0
M  V30 15 C 1.245354 0.637139 1.779761 0
M  V30 16 C -0.977606 0.142459 1.248448 0
M  V30 17 O -1.267343 0.800520 2.281168 0
M  V30 18 C -2.111016 -0.520544 0.599095 0
M  V30 19 C -3.343995 -0.114208 1.067457 0
M  V30 20 C -4.550467 -0.598983 0.606428 0
M  V30 21 C -4.509723 -1.553372 -0.389415 0
M  V30 22 N -5.704946 -2.108344 -0.924506 0
M  V30 23 C -5.889346 -3.096021 -1.930490 0
M  V30 24 C -6.561363 -2.939301 -3.123316 0
M  V30 25 C -6.665563 -3.988935 -4.013764 0
M  V30 26 C -6.098079 -5.236326 -3.739064 0
M  V30 27 F -6.226164 -6.242970 -4.647434 0
M  V30 28 C -5.423580 -5.372329 -2.527852 0
M  V30 29 C -5.320584 -4.319584 -1.637641 0
M  V30 30 F -4.620794 -4.691763 -0.531701 0
M  V30 31 C -3.298532 -1.972144 -0.869943 0
M  V30 32 C -2.096001 -1.478367 -0.399379 0
M  V30 33 C -0.875758 -2.041361 -1.030642 0
M  V30 34 C 0.078721 -0.994975 -1.521976 0
M  V30 35 H 5.353433 0.992018 1.528442 0
M  V30 36 H 6.011688 -0.131480 4.191497 0
M  V30 37 H 7.670902 0.644635 5.904596 0
M  V30 38 H 8.351595 2.950112 5.973867 0
M  V30 39 H 7.438028 4.636816 4.356754 0
M  V30 40 H 5.775177 3.853349 2.641909 0
M  V30 41 H 4.141708 0.201131 0.092055 0
M  V30 42 H 2.627377 -0.739260 -1.598792 0
M  V30 43 H 0.835845 1.010061 2.703983 0
M  V30 44 H -3.348396 0.635578 1.848761 0
M  V30 45 H -5.503396 -0.239563 1.015630 0
M  V30 46 H -6.625300 -1.769436 -0.552216 0
M  V30 47 H -6.989426 -1.957619 -3.303734 0
M  V30 48 H -7.202533 -3.802531 -4.926603 0
M  V30 49 H -5.018183 -6.377217 -2.406353 0
M  V30 50 H -3.164984 -2.712524 -1.646567 0
M  V30 51 H -1.187542 -2.656424 -1.873044 0
M  V30 52 H -0.370832 -2.677201 -0.282947 0
M  V30 53 H -0.444986 -0.161973 -2.029800 0
M  V30 54 H 0.777939 -1.468978 -2.217664 0
M  V30 END ATOM
M  V30 BEGIN BOND
M  V30 1 2 1 2
M  V30 2 1 2 3
M  V30 3 1 3 4
M  V30 4 2 4 5
M  V30 5 1 5 6
M  V30 6 2 6 7
M  V30 7 1 7 8
M  V30 8 2 8 9
M  V30 9 1 2 10
M  V30 10 2 10 11
M  V30 11 1 11 12
M  V30 12 2 12 13
M  V30 13 1 13 14
M  V30 14 2 14 15
M  V30 15 1 14 16
M  V30 16 2 16 17
M  V30 17 1 16 18
M  V30 18 2 18 19
M  V30 19 1 19 20
M  V30 20 2 20 21
M  V30 21 1 21 22
M  V30 22 1 22 23
M  V30 23 2 23 24
M  V30 24 1 24 25
M  V30 25 2 25 26
M  V30 26 1 26 27
M  V30 27 1 26 28
M  V30 28 2 28 29
M  V30 29 1 29 30
M  V30 30 1 21 31
M  V30 31 2 31 32
M  V30 32 1 32 33
M  V30 33 1 33 34
M  V30 34 1 9 4
M  V30 35 1 15 10
M  V30 36 1 32 18
M  V30 37 1 34 13
M  V30 38 1 29 23
M  V30 39 1 3 35
M  V30 40 1 5 36
M  V30 41 1 6 37
M  V30 42 1 7 38
M  V30 43 1 8 39
M  V30 44 1 9 40
M  V30 45 1 11 41
M  V30 46 1 12 42
M  V30 47 1 15 43
M  V30 48 1 19 44
M  V30 49 1 20 45
M  V30 50 1 22 46
M  V30 51 1 24 47
M  V30 52 1 25 48
M  V30 53 1 28 49
M  V30 54 1 31 50
M  V30 55 1 33 51
M  V30 56 1 33 52
M  V30 57 1 34 53
M  V30 58 1 34 54
M  V30 END BOND
M  V30 END CTAB
M  END
>  <Dataset>  (861) 
ChEMBL_Kinases

>  <Ligand_Instance>  (861) 
nan

>  <PDB_ID>  (861) 
nan

>  <Standardized_SMILES>  (861) 
O=C(Nc1ccccc1)c1ccc2c(c1)C(=O)c1ccc(Nc3ccc(F)cc3F)cc1CC2

>  <Name>  (861) 
nan

>  <Pocket>  (861) 
nan

>  <ATP_Site>  (861) 
nan

>  <Peripheral>  (861) 
nan

>  <Num_H_Atoms_ProtBoundConf>  (861) 
nan

>  <Num_Resolved_Atoms>  (861) 
nan

>  <Num_Not_Resolved_Atoms>  (861) 
nan

$$$$
CHEMBL5093970
     RDKit          3D

  0  0  0  0  0  0  0  0  0  0999 V3000
M  V30 BEGIN CTAB
M  V30 COUNTS 131 134 0 0 0
M  V30 BEGIN ATOM
M  V30 1 C 0.100355 -8.375929 3.071371 0
M  V30 2 O 0.073791 -7.288893 2.150578 0
M  V30 3 C -0.961466 -6.399218 2.265635 0
M  V30 4 O -1.521283 -6.964376 3.232952 0
M  V30 5 C -1.127539 -5.207622 1.376222 0 CFG=2
M  V30 6 C -2.469381 -5.282256 0.682901 0
M  V30 7 C -3.606720 -5.301372 1.691387 0
M  V30 8 C -4.926732 -5.376475 0.975452 0
M  V30 9 C -3.597086 -4.084642 2.588300 0
M  V30 10 N -0.073656 -5.083684 0.408074 0
M  V30 11 C 0.848052 -3.983225 0.238258 0
M  V30 12 O 0.456150 -3.175690 1.162630 0
M  V30 13 C 1.901768 -4.086540 -0.862652 0 CFG=2
M  V30 14 C 2.863810 -5.190964 -0.503925 0
M  V30 15 C 4.072482 -4.464901 0.110764 0
M  V30 16 C 3.401444 -3.129444 0.412023 0 CFG=1
M  V30 17 O 4.324622 -2.177719 0.805894 0
M  V30 18 C 3.908551 -1.704369 2.025994 0
M  V30 19 C 4.721549 -0.724636 2.748115 0
M  V30 20 N 5.015489 0.534370 2.135114 0
M  V30 21 C 4.373569 1.636823 1.559796 0
M  V30 22 O 3.322069 0.963590 1.790560 0
M  V30 23 C 3.788090 2.832503 0.945880 0
M  V30 24 C 2.722412 2.383182 -0.011709 0
M  V30 25 C 1.942009 3.543207 -0.621300 0 CFG=2
M  V30 26 N 1.014689 4.028920 0.327528 0
M  V30 27 C 0.353799 4.826459 1.286490 0
M  V30 28 O 1.123626 5.817010 1.382352 0
M  V30 29 C -0.907289 4.415958 1.903485 0
M  V30 30 C -1.800930 3.774092 1.069119 0
M  V30 31 C -3.003861 3.255976 1.438645 0
M  V30 32 O -3.992504 2.602253 0.757766 0
M  V30 33 C -4.089749 2.233889 -0.563679 0
M  V30 34 C -3.063696 1.271896 -1.078199 0
M  V30 35 N -3.336851 1.016305 -2.478988 0
M  V30 36 C -2.402596 0.103669 -3.066844 0
M  V30 37 C -4.674627 0.649179 -2.776272 0
M  V30 38 C -3.318477 3.413039 2.793764 0
M  V30 39 C -2.451878 4.046298 3.657523 0
M  V30 40 C -2.667775 4.188291 5.098401 0
M  V30 41 C -3.336955 3.067405 5.540350 0
M  V30 42 C -3.639816 2.951151 6.908935 0
M  V30 43 C -3.230314 3.999607 7.722472 0
M  V30 44 C -3.470888 3.968086 9.180638 0
M  V30 45 O -3.125420 4.909295 9.941429 0
M  V30 46 O -4.094776 2.899094 9.820560 0
M  V30 47 C -2.562477 5.107561 7.240611 0
M  V30 48 C -2.261662 5.228561 5.895101 0
M  V30 49 C -1.231280 4.558274 3.218033 0
M  V30 50 C 1.354567 3.134522 -1.902347 0
M  V30 51 O 0.161494 3.200878 -2.248829 0
M  V30 52 N 1.877105 2.576653 -3.071882 0
M  V30 53 C 1.251204 2.154218 -4.348873 0 CFG=1
M  V30 54 C 2.006697 2.692714 -5.499882 0
M  V30 55 O 3.339027 2.263485 -5.478769 0
M  V30 56 C 1.341116 0.650595 -4.244052 0
M  V30 57 O 0.732235 -0.187814 -4.950469 0
M  V30 58 N 1.971580 -0.372911 -3.528158 0
M  V30 59 C 2.098581 -1.779900 -3.225849 0 CFG=1
M  V30 60 C 2.989565 -2.421832 -4.285187 0 CFG=1
M  V30 61 C 3.039136 -3.930086 -4.041082 0
M  V30 62 O 2.383672 -2.273404 -5.515620 0
M  V30 63 P 3.393169 -1.922268 -6.786814 0
M  V30 64 O 4.693204 -2.693048 -6.734160 0
M  V30 65 O 3.701178 -0.280319 -7.022101 0
M  V30 66 O 2.615663 -2.465986 -8.222379 0
M  V30 67 C 2.652423 -1.966402 -1.881518 0
M  V30 68 O 3.328166 -1.159067 -1.227084 0
M  V30 69 N 2.713915 -2.889816 -0.826242 0
M  V30 70 H -0.807831 -8.975972 3.017390 0
M  V30 71 H 1.008373 -8.984390 2.808219 0
M  V30 72 H 0.234380 -8.022136 4.118529 0
M  V30 73 H -1.157685 -4.311741 2.046466 0
M  V30 74 H -2.500302 -6.230971 0.124609 0
M  V30 75 H -2.594874 -4.387813 0.039772 0
M  V30 76 H -3.534228 -6.197810 2.351679 0
M  V30 77 H -5.710588 -5.865797 1.630892 0
M  V30 78 H -5.348162 -4.377861 0.736266 0
M  V30 79 H -4.892549 -5.971841 0.055490 0
M  V30 80 H -2.931318 -3.299666 2.166403 0
M  V30 81 H -3.230787 -4.298673 3.600017 0
M  V30 82 H -4.619395 -3.636246 2.724534 0
M  V30 83 H 0.006748 -5.924447 -0.244101 0
M  V30 84 H 1.336347 -4.277890 -1.767024 0
M  V30 85 H 2.414933 -5.860283 0.257037 0
M  V30 86 H 3.184946 -5.798107 -1.359739 0
M  V30 87 H 4.346536 -5.003263 1.015628 0
M  V30 88 H 4.916477 -4.388544 -0.568539 0
M  V30 89 H 2.685973 -3.288147 1.213513 0
M  V30 90 H 3.857172 -2.633844 2.690010 0
M  V30 91 H 2.859055 -1.314232 1.940266 0
M  V30 92 H 5.733847 -1.126010 3.041790 0
M  V30 93 H 4.224625 -0.562181 3.754717 0
M  V30 94 H 5.876719 1.098010 1.892815 0
M  V30 95 H 4.613770 3.284106 0.312834 0
M  V30 96 H 3.432287 3.560055 1.678131 0
M  V30 97 H 3.167847 1.743782 -0.830688 0
M  V30 98 H 2.043153 1.686522 0.520551 0
M  V30 99 H 2.744480 4.299736 -0.866006 0
M  V30 100 H 0.402380 3.132487 0.226378 0
M  V30 101 H -1.582748 3.646602 0.026458 0
M  V30 102 H -5.092322 1.729162 -0.697709 0
M  V30 103 H -4.130803 3.089137 -1.271370 0
M  V30 104 H -3.231469 0.263939 -0.573833 0
M  V30 105 H -2.026183 1.577680 -0.995939 0
M  V30 106 H -2.442733 -0.930050 -2.671739 0
M  V30 107 H -1.360208 0.492255 -2.918266 0
M  V30 108 H -2.558764 0.034578 -4.158945 0
M  V30 109 H -5.235096 0.175807 -1.959120 0
M  V30 110 H -5.247453 1.566791 -3.090065 0
M  V30 111 H -4.642358 -0.062471 -3.629610 0
M  V30 112 H -4.238490 3.062832 3.257611 0
M  V30 113 H -3.702830 2.202534 5.012140 0
M  V30 114 H -4.158428 2.122734 7.371160 0
M  V30 115 H -3.912692 2.683572 10.793166 0
M  V30 116 H -2.238203 5.938954 7.882037 0
M  V30 117 H -1.748766 6.038832 5.405733 0
M  V30 118 H -0.510844 5.057766 3.815932 0
M  V30 119 H 2.867349 2.517978 -2.830142 0
M  V30 120 H 0.190447 2.458350 -4.377223 0
M  V30 121 H 2.079564 3.810446 -5.367936 0
M  V30 122 H 1.496782 2.513023 -6.446175 0
M  V30 123 H 3.500224 1.852850 -4.618828 0
M  V30 124 H 2.612236 0.269714 -3.023860 0
M  V30 125 H 1.114544 -2.255680 -3.354072 0
M  V30 126 H 4.002997 -2.024595 -4.332033 0
M  V30 127 H 3.510005 -4.345614 -4.982031 0
M  V30 128 H 2.010971 -4.291432 -4.041911 0
M  V30 129 H 3.663003 -4.214090 -3.198347 0
M  V30 130 H 3.598900 0.004500 -7.950159 0
M  V30 131 H 1.649122 -2.342528 -8.162050 0
M  V30 END ATOM
M  V30 BEGIN BOND
M  V30 1 1 1 2
M  V30 2 1 2 3
M  V30 3 2 3 4
M  V30 4 1 3 5
M  V30 5 1 5 6
M  V30 6 1 6 7
M  V30 7 1 7 8
M  V30 8 1 7 9
M  V30 9 1 5 10
M  V30 10 1 10 11
M  V30 11 2 11 12
M  V30 12 1 11 13
M  V30 13 1 13 14
M  V30 14 1 14 15
M  V30 15 1 15 16
M  V30 16 1 16 17
M  V30 17 1 17 18
M  V30 18 1 18 19
M  V30 19 1 19 20
M  V30 20 1 20 21
M  V30 21 2 21 22
M  V30 22 1 21 23
M  V30 23 1 23 24
M  V30 24 1 24 25
M  V30 25 1 25 26
M  V30 26 1 26 27
M  V30 27 2 27 28
M  V30 28 1 27 29
M  V30 29 2 29 30
M  V30 30 1 30 31
M  V30 31 1 31 32
M  V30 32 1 32 33
M  V30 33 1 33 34
M  V30 34 1 34 35
M  V30 35 1 35 36
M  V30 36 1 35 37
M  V30 37 2 31 38
M  V30 38 1 38 39
M  V30 39 1 39 40
M  V30 40 2 40 41
M  V30 41 1 41 42
M  V30 42 2 42 43
M  V30 43 1 43 44
M  V30 44 2 44 45
M  V30 45 1 44 46
M  V30 46 1 43 47
M  V30 47 2 47 48
M  V30 48 2 39 49
M  V30 49 1 25 50
M  V30 50 2 50 51
M  V30 51 1 50 52
M  V30 52 1 52 53
M  V30 53 1 53 54
M  V30 54 1 54 55
M  V30 55 1 53 56
M  V30 56 2 56 57
M  V30 57 1 56 58
M  V30 58 1 58 59
M  V30 59 1 59 60
M  V30 60 1 60 61
M  V30 61 1 60 62
M  V30 62 1 62 63
M  V30 63 2 63 64
M  V30 64 1 63 65
M  V30 65 1 63 66
M  V30 66 1 59 67
M  V30 67 2 67 68
M  V30 68 1 67 69
M  V30 69 1 69 13
M  V30 70 1 69 16
M  V30 71 1 49 29
M  V30 72 1 48 40
M  V30 73 1 1 70
M  V30 74 1 1 71
M  V30 75 1 1 72
M  V30 76 1 5 73 CFG=1
M  V30 77 1 6 74
M  V30 78 1 6 75
M  V30 79 1 7 76
M  V30 80 1 8 77
M  V30 81 1 8 78
M  V30 82 1 8 79
M  V30 83 1 9 80
M  V30 84 1 9 81
M  V30 85 1 9 82
M  V30 86 1 10 83
M  V30 87 1 13 84 CFG=3
M  V30 88 1 14 85
M  V30 89 1 14 86
M  V30 90 1 15 87
M  V30 91 1 15 88
M  V30 92 1 16 89 CFG=1
M  V30 93 1 18 90
M  V30 94 1 18 91
M  V30 95 1 19 92
M  V30 96 1 19 93
M  V30 97 1 20 94
M  V30 98 1 23 95
M  V30 99 1 23 96
M  V30 100 1 24 97
M  V30 101 1 24 98
M  V30 102 1 25 99 CFG=3
M  V30 103 1 26 100
M  V30 104 1 30 101
M  V30 105 1 33 102
M  V30 106 1 33 103
M  V30 107 1 34 104
M  V30 108 1 34 105
M  V30 109 1 36 106
M  V30 110 1 36 107
M  V30 111 1 36 108
M  V30 112 1 37 109
M  V30 113 1 37 110
M  V30 114 1 37 111
M  V30 115 1 38 112
M  V30 116 1 41 113
M  V30 117 1 42 114
M  V30 118 1 46 115
M  V30 119 1 47 116
M  V30 120 1 48 117
M  V30 121 1 49 118
M  V30 122 1 52 119
M  V30 123 1 53 120 CFG=1
M  V30 124 1 54 121
M  V30 125 1 54 122
M  V30 126 1 55 123
M  V30 127 1 58 124
M  V30 128 1 59 125 CFG=1
M  V30 129 1 60 126 CFG=3
M  V30 130 1 61 127
M  V30 131 1 61 128
M  V30 132 1 61 129
M  V30 133 1 65 130
M  V30 134 1 66 131
M  V30 END BOND
M  V30 END CTAB
M  END
>  <Dataset>  (862) 
ChEMBL_Kinases

>  <Ligand_Instance>  (862) 
nan

>  <PDB_ID>  (862) 
nan

>  <Standardized_SMILES>  (862) 
COC(=O)[C@H](CC(C)C)NC(=O)[C@@H]1CC[C@H]2OCCNC(=O)CC[C@H](NC(=O)c3cc(OCCN(C)C)cc(-c4ccc(C(=O)O)cc4)c3)C(=O)N[C@@H](CO)C(=O)N[C@@H]([C@@H](C)OP(=O)(O)O)C(=O)N21

>  <Name>  (862) 
nan

>  <Pocket>  (862) 
nan

>  <ATP_Site>  (862) 
nan

>  <Peripheral>  (862) 
nan

>  <Num_H_Atoms_ProtBoundConf>  (862) 
nan

>  <Num_Resolved_Atoms>  (862) 
nan

>  <Num_Not_Resolved_Atoms>  (862) 
nan

$$$$
CHEMBL578427
     RDKit          3D

  0  0  0  0  0  0  0  0  0  0999 V3000
M  V30 BEGIN CTAB
M  V30 COUNTS 40 43 0 0 0
M  V30 BEGIN ATOM
M  V30 1 C 1.104056 -6.760702 0.699410 0
M  V30 2 C 0.894926 -5.278924 0.616282 0
M  V30 3 C 0.591599 -4.500608 1.732112 0
M  V30 4 C 0.489160 -3.230783 1.200727 0
M  V30 5 C 0.720337 -3.259391 -0.158902 0
M  V30 6 C 0.703104 -2.127483 -1.076531 0
M  V30 7 C 0.958504 -2.340213 -2.415427 0
M  V30 8 C 0.926701 -1.221891 -3.233632 0
M  V30 9 C 0.657338 0.047421 -2.764166 0
M  V30 10 N 0.570420 1.262628 -3.339474 0
M  V30 11 C 0.275853 2.196198 -2.416090 0
M  V30 12 N 0.169380 1.566351 -1.209699 0
M  V30 13 C -0.124402 2.047762 0.116912 0
M  V30 14 C 0.980801 2.571925 0.758870 0
M  V30 15 C 0.814220 3.070622 2.055554 0
M  V30 16 C -0.431521 3.026643 2.650958 0
M  V30 17 S -0.615263 3.656244 4.273015 0 CHG=1 VAL=3
M  V30 18 C -0.322905 2.349313 5.468108 0
M  V30 19 O -2.216151 4.128731 4.476757 0 CHG=-1 VAL=1
M  V30 20 C -1.499565 2.490711 1.959691 0
M  V30 21 C -1.384953 1.986357 0.678628 0
M  V30 22 C 0.401826 0.245292 -1.411182 0
M  V30 23 C 0.432407 -0.864934 -0.592956 0
M  V30 24 O 0.956472 -4.513347 -0.443067 0
M  V30 25 H 1.681915 -7.006952 1.629174 0
M  V30 26 H 0.149290 -7.321079 0.751072 0
M  V30 27 H 1.623956 -7.105463 -0.226294 0
M  V30 28 H 0.462956 -4.799341 2.772486 0
M  V30 29 H 0.253566 -2.360276 1.827503 0
M  V30 30 H 1.167045 -3.343404 -2.760430 0
M  V30 31 H 1.121064 -1.346708 -4.286020 0
M  V30 32 H 0.127687 3.262191 -2.489671 0
M  V30 33 H 1.963645 2.622500 0.327417 0
M  V30 34 H 1.679949 3.479659 2.554672 0
M  V30 35 H 0.780024 2.389399 5.695694 0
M  V30 36 H -0.495912 1.376905 4.936535 0
M  V30 37 H -0.941017 2.490265 6.352346 0
M  V30 38 H -2.468901 2.463490 2.439846 0
M  V30 39 H -2.195727 1.558493 0.103154 0
M  V30 40 H 0.241597 -0.756047 0.452445 0
M  V30 END ATOM
M  V30 BEGIN BOND
M  V30 1 1 1 2
M  V30 2 2 2 3
M  V30 3 1 3 4
M  V30 4 2 4 5
M  V30 5 1 5 6
M  V30 6 2 6 7
M  V30 7 1 7 8
M  V30 8 2 8 9
M  V30 9 1 9 10
M  V30 10 2 10 11
M  V30 11 1 11 12
M  V30 12 1 12 13
M  V30 13 2 13 14
M  V30 14 1 14 15
M  V30 15 2 15 16
M  V30 16 1 16 17
M  V30 17 1 17 18
M  V30 18 1 17 19
M  V30 19 1 16 20
M  V30 20 2 20 21
M  V30 21 1 12 22
M  V30 22 2 22 23
M  V30 23 1 5 24
M  V30 24 1 24 2
M  V30 25 1 23 6
M  V30 26 1 22 9
M  V30 27 1 21 13
M  V30 28 1 1 25
M  V30 29 1 1 26
M  V30 30 1 1 27
M  V30 31 1 3 28
M  V30 32 1 4 29
M  V30 33 1 7 30
M  V30 34 1 8 31
M  V30 35 1 11 32
M  V30 36 1 14 33
M  V30 37 1 15 34
M  V30 38 1 18 35
M  V30 39 1 18 36
M  V30 40 1 18 37
M  V30 41 1 20 38
M  V30 42 1 21 39
M  V30 43 1 23 40
M  V30 END BOND
M  V30 END CTAB
M  END
>  <Dataset>  (863) 
ChEMBL_Kinases

>  <Ligand_Instance>  (863) 
nan

>  <PDB_ID>  (863) 
nan

>  <Standardized_SMILES>  (863) 
Cc1ccc(-c2ccc3ncn(-c4ccc([S+](C)[O-])cc4)c3c2)o1

>  <Name>  (863) 
nan

>  <Pocket>  (863) 
nan

>  <ATP_Site>  (863) 
nan

>  <Peripheral>  (863) 
nan

>  <Num_H_Atoms_ProtBoundConf>  (863) 
nan

>  <Num_Resolved_Atoms>  (863) 
nan

>  <Num_Not_Resolved_Atoms>  (863) 
nan

$$$$
CHEMBL5094015
     RDKit          3D

  0  0  0  0  0  0  0  0  0  0999 V3000
M  V30 BEGIN CTAB
M  V30 COUNTS 62 66 0 0 0
M  V30 BEGIN ATOM
M  V30 1 C 2.354973 -4.065617 3.254222 0
M  V30 2 C 2.922523 -2.854219 2.602728 0
M  V30 3 C 4.295633 -2.739007 2.543453 0
M  V30 4 C 4.805206 -1.611674 1.936455 0
M  V30 5 C 4.038426 -0.582941 1.380004 0
M  V30 6 N 4.636847 0.550334 0.776820 0
M  V30 7 S 4.316448 2.215407 0.927554 0
M  V30 8 O 4.545769 2.594304 2.376091 0
M  V30 9 O 5.347341 2.978544 0.135350 0
M  V30 10 C 2.707629 2.678636 0.423706 0
M  V30 11 C 2.603840 2.980041 -0.939492 0
M  V30 12 C 1.393821 3.365474 -1.476374 0
M  V30 13 N 0.285038 3.464713 -0.721737 0
M  V30 14 C 0.376967 3.176750 0.588755 0
M  V30 15 C -0.817367 3.264802 1.493642 0
M  V30 16 F -0.825605 4.497561 2.133861 0
M  V30 17 F -0.706195 2.226475 2.415264 0
M  V30 18 F -1.954436 3.113286 0.708031 0
M  V30 19 C 1.559322 2.786451 1.180438 0
M  V30 20 C 2.687446 -0.798085 1.493123 0
M  V30 21 C 2.085787 -1.890652 2.081231 0
M  V30 22 C 0.628915 -2.001682 2.139086 0
M  V30 23 C -0.179441 -2.367168 3.196250 0
M  V30 24 C -1.546740 -2.401985 3.014857 0
M  V30 25 C -2.129143 -2.079957 1.800446 0
M  V30 26 C -1.320429 -1.714761 0.744426 0
M  V30 27 C 0.049389 -1.676815 0.915755 0
M  V30 28 O -1.795753 -1.376135 -0.502575 0
M  V30 29 C -2.999052 -1.562024 -1.185445 0
M  V30 30 C -3.107469 -2.997780 -1.638685 0
M  V30 31 C -4.126861 -3.144698 -2.743838 0
M  V30 32 O -3.918651 -2.273788 -3.802413 0
M  V30 33 C -3.972271 -0.938387 -3.429713 0
M  V30 34 C -2.927320 -0.646471 -2.391501 0
M  V30 35 C -4.228643 -1.174580 -0.431773 0
M  V30 36 C -4.465070 -1.967374 0.803941 0
M  V30 37 O -5.582997 -2.542566 1.003362 0
M  V30 38 N -3.559727 -2.194642 1.874943 0
M  V30 39 H 1.376928 -4.375401 2.832234 0
M  V30 40 H 2.302497 -3.996841 4.349631 0
M  V30 41 H 3.060509 -4.916276 3.020452 0
M  V30 42 H 4.976248 -3.482350 2.945811 0
M  V30 43 H 5.895569 -1.522772 1.890772 0
M  V30 44 H 5.409411 0.202384 0.132911 0
M  V30 45 H 3.399326 2.945666 -1.661641 0
M  V30 46 H 1.220764 3.617481 -2.519684 0
M  V30 47 H 1.722511 2.537751 2.218473 0
M  V30 48 H 2.011739 -0.057915 1.090081 0
M  V30 49 H 0.373419 -2.595141 4.087922 0
M  V30 50 H -2.128196 -2.695290 3.877940 0
M  V30 51 H 0.582770 -1.373641 0.008956 0
M  V30 52 H -2.140611 -3.406522 -1.952579 0
M  V30 53 H -3.472785 -3.648939 -0.807985 0
M  V30 54 H -5.171385 -3.098661 -2.372272 0
M  V30 55 H -3.988987 -4.169066 -3.168199 0
M  V30 56 H -3.638355 -0.368674 -4.345859 0
M  V30 57 H -4.977606 -0.573197 -3.195852 0
M  V30 58 H -1.933792 -0.737736 -2.865139 0
M  V30 59 H -3.027634 0.405263 -2.037010 0
M  V30 60 H -4.145447 -0.075343 -0.204117 0
M  V30 61 H -5.075600 -1.259313 -1.127141 0
M  V30 62 H -3.910625 -2.467471 2.805754 0
M  V30 END ATOM
M  V30 BEGIN BOND
M  V30 1 1 1 2
M  V30 2 2 2 3
M  V30 3 1 3 4
M  V30 4 2 4 5
M  V30 5 1 5 6
M  V30 6 1 6 7
M  V30 7 2 7 8
M  V30 8 2 7 9
M  V30 9 1 7 10
M  V30 10 2 10 11
M  V30 11 1 11 12
M  V30 12 2 12 13
M  V30 13 1 13 14
M  V30 14 1 14 15
M  V30 15 1 15 16
M  V30 16 1 15 17
M  V30 17 1 15 18
M  V30 18 2 14 19
M  V30 19 1 5 20
M  V30 20 2 20 21
M  V30 21 1 21 22
M  V30 22 2 22 23
M  V30 23 1 23 24
M  V30 24 2 24 25
M  V30 25 1 25 26
M  V30 26 2 26 27
M  V30 27 1 26 28
M  V30 28 1 28 29
M  V30 29 1 29 30
M  V30 30 1 30 31
M  V30 31 1 31 32
M  V30 32 1 32 33
M  V30 33 1 33 34
M  V30 34 1 29 35
M  V30 35 1 35 36
M  V30 36 2 36 37
M  V30 37 1 36 38
M  V30 38 1 21 2
M  V30 39 1 27 22
M  V30 40 1 34 29
M  V30 41 1 19 10
M  V30 42 1 38 25
M  V30 43 1 1 39
M  V30 44 1 1 40
M  V30 45 1 1 41
M  V30 46 1 3 42
M  V30 47 1 4 43
M  V30 48 1 6 44
M  V30 49 1 11 45
M  V30 50 1 12 46
M  V30 51 1 19 47
M  V30 52 1 20 48
M  V30 53 1 23 49
M  V30 54 1 24 50
M  V30 55 1 27 51
M  V30 56 1 30 52
M  V30 57 1 30 53
M  V30 58 1 31 54
M  V30 59 1 31 55
M  V30 60 1 33 56
M  V30 61 1 33 57
M  V30 62 1 34 58
M  V30 63 1 34 59
M  V30 64 1 35 60
M  V30 65 1 35 61
M  V30 66 1 38 62
M  V30 END BOND
M  V30 END CTAB
M  END
>  <Dataset>  (864) 
ChEMBL_Kinases

>  <Ligand_Instance>  (864) 
nan

>  <PDB_ID>  (864) 
nan

>  <Standardized_SMILES>  (864) 
Cc1ccc(NS(=O)(=O)c2ccnc(C(F)(F)F)c2)cc1-c1ccc2c(c1)OC1(CCOCC1)CC(=O)N2

>  <Name>  (864) 
nan

>  <Pocket>  (864) 
nan

>  <ATP_Site>  (864) 
nan

>  <Peripheral>  (864) 
nan

>  <Num_H_Atoms_ProtBoundConf>  (864) 
nan

>  <Num_Resolved_Atoms>  (864) 
nan

>  <Num_Not_Resolved_Atoms>  (864) 
nan

$$$$
CHEMBL578426
     RDKit          3D

  0  0  0  0  0  0  0  0  0  0999 V3000
M  V30 BEGIN CTAB
M  V30 COUNTS 49 52 0 0 0
M  V30 BEGIN ATOM
M  V30 1 C 3.432947 -5.427370 -3.230336 0
M  V30 2 O 2.411270 -4.581828 -3.689778 0
M  V30 3 C 1.878616 -3.575273 -2.902238 0
M  V30 4 C 2.253924 -3.267301 -1.612915 0
M  V30 5 C 1.616407 -2.229161 -0.970710 0
M  V30 6 C 0.615538 -1.471329 -1.544467 0
M  V30 7 C 0.242328 -1.786091 -2.842661 0
M  V30 8 C 0.880844 -2.836543 -3.505480 0
M  V30 9 O 0.456430 -3.098453 -4.809732 0
M  V30 10 C -0.571532 -2.297443 -5.362969 0
M  V30 11 C 0.123476 -0.443011 -0.634936 0
M  V30 12 N -0.726211 0.577919 -0.434751 0
M  V30 13 N -0.516194 1.021089 0.780117 0
M  V30 14 C 0.442976 0.349429 1.427811 0
M  V30 15 N 0.813797 0.673733 2.738853 0
M  V30 16 C 0.371563 1.661986 3.672848 0
M  V30 17 C -1.035860 1.603376 4.058108 0
M  V30 18 C -1.385602 0.563421 4.913730 0
M  V30 19 C -0.399703 -0.426118 5.394348 0
M  V30 20 C -2.719077 0.457058 5.328540 0
M  V30 21 C -3.690121 1.342512 4.920148 0
M  V30 22 C -3.330074 2.355799 4.081823 0
M  V30 23 C -2.005417 2.490234 3.648654 0
M  V30 24 C -1.681436 3.625720 2.750115 0
M  V30 25 C 0.859521 -0.598427 0.516527 0
M  V30 26 C 1.848029 -1.714608 0.413678 0
M  V30 27 H 4.434011 -4.984664 -3.470027 0
M  V30 28 H 3.370424 -5.599290 -2.138248 0
M  V30 29 H 3.354435 -6.451649 -3.690780 0
M  V30 30 H 3.031413 -3.853144 -1.163983 0
M  V30 31 H -0.547828 -1.184962 -3.291354 0
M  V30 32 H -0.824322 -2.595291 -6.383239 0
M  V30 33 H -0.207141 -1.243821 -5.298545 0
M  V30 34 H -1.500579 -2.334177 -4.758902 0
M  V30 35 H -1.403316 0.903744 -1.162439 0
M  V30 36 H 1.590865 0.017411 3.061597 0
M  V30 37 H 0.568492 2.668116 3.191350 0
M  V30 38 H 1.025327 1.661822 4.568027 0
M  V30 39 H 0.590196 -0.015367 5.636265 0
M  V30 40 H -0.232437 -1.151489 4.557518 0
M  V30 41 H -0.843205 -1.005729 6.226325 0
M  V30 42 H -2.955007 -0.368809 5.997135 0
M  V30 43 H -4.722372 1.231088 5.262842 0
M  V30 44 H -4.060512 3.078211 3.733174 0
M  V30 45 H -0.766139 4.170569 3.126303 0
M  V30 46 H -2.478732 4.429895 2.831728 0
M  V30 47 H -1.628384 3.381564 1.691589 0
M  V30 48 H 1.706966 -2.493163 1.185409 0
M  V30 49 H 2.904304 -1.337636 0.429528 0
M  V30 END ATOM
M  V30 BEGIN BOND
M  V30 1 1 1 2
M  V30 2 1 2 3
M  V30 3 2 3 4
M  V30 4 1 4 5
M  V30 5 2 5 6
M  V30 6 1 6 7
M  V30 7 2 7 8
M  V30 8 1 8 9
M  V30 9 1 9 10
M  V30 10 1 6 11
M  V30 11 1 11 12
M  V30 12 1 12 13
M  V30 13 2 13 14
M  V30 14 1 14 15
M  V30 15 1 15 16
M  V30 16 1 16 17
M  V30 17 2 17 18
M  V30 18 1 18 19
M  V30 19 1 18 20
M  V30 20 2 20 21
M  V30 21 1 21 22
M  V30 22 2 22 23
M  V30 23 1 23 24
M  V30 24 1 14 25
M  V30 25 1 25 26
M  V30 26 1 8 3
M  V30 27 2 25 11
M  V30 28 1 26 5
M  V30 29 1 23 17
M  V30 30 1 1 27
M  V30 31 1 1 28
M  V30 32 1 1 29
M  V30 33 1 4 30
M  V30 34 1 7 31
M  V30 35 1 10 32
M  V30 36 1 10 33
M  V30 37 1 10 34
M  V30 38 1 12 35
M  V30 39 1 15 36
M  V30 40 1 16 37
M  V30 41 1 16 38
M  V30 42 1 19 39
M  V30 43 1 19 40
M  V30 44 1 19 41
M  V30 45 1 20 42
M  V30 46 1 21 43
M  V30 47 1 22 44
M  V30 48 1 24 45
M  V30 49 1 24 46
M  V30 50 1 24 47
M  V30 51 1 26 48
M  V30 52 1 26 49
M  V30 END BOND
M  V30 END CTAB
M  END
>  <Dataset>  (865) 
ChEMBL_Kinases

>  <Ligand_Instance>  (865) 
nan

>  <PDB_ID>  (865) 
nan

>  <Standardized_SMILES>  (865) 
COc1cc2c(cc1OC)-c1[nH]nc(NCc3c(C)cccc3C)c1C2

>  <Name>  (865) 
nan

>  <Pocket>  (865) 
nan

>  <ATP_Site>  (865) 
nan

>  <Peripheral>  (865) 
nan

>  <Num_H_Atoms_ProtBoundConf>  (865) 
nan

>  <Num_Resolved_Atoms>  (865) 
nan

>  <Num_Not_Resolved_Atoms>  (865) 
nan

$$$$
CHEMBL5094016
     RDKit          3D

  0  0  0  0  0  0  0  0  0  0999 V3000
M  V30 BEGIN CTAB
M  V30 COUNTS 33 35 0 0 0
M  V30 BEGIN ATOM
M  V30 1 N -3.986777 -1.651605 3.150955 0
M  V30 2 C -3.210507 -0.614164 2.557648 0
M  V30 3 C -2.066768 -0.883161 1.815991 0
M  V30 4 C -1.284001 0.085670 1.223417 0
M  V30 5 C -0.088207 -0.220359 0.449042 0
M  V30 6 C 0.326545 -1.439614 0.259110 0
M  V30 7 C 1.508506 -1.855182 -0.513469 0
M  V30 8 O 2.268012 -2.869608 -0.006979 0
M  V30 9 C 3.379683 -3.000366 -0.861850 0
M  V30 10 C 3.221164 -2.338485 -2.196835 0
M  V30 11 O 2.952362 -0.951450 -2.094000 0
M  V30 12 C 2.418589 -0.709682 -0.823789 0
M  V30 13 C 1.851453 0.589305 -0.591729 0
M  V30 14 C 0.710384 0.907524 -0.010181 0
M  V30 15 C -1.740644 1.368376 1.432862 0
M  V30 16 C -2.867537 1.686145 2.159718 0
M  V30 17 N -3.311346 3.020313 2.356853 0
M  V30 18 N -3.585681 0.669230 2.712825 0
M  V30 19 H -3.337457 -1.936972 3.916526 0
M  V30 20 H -4.932762 -2.049866 2.926356 0
M  V30 21 H -1.833692 -1.915713 1.736911 0
M  V30 22 H -0.171191 -2.302700 0.662974 0
M  V30 23 H 1.132548 -2.294843 -1.525706 0
M  V30 24 H 4.289089 -2.588601 -0.373125 0
M  V30 25 H 3.586157 -4.071783 -1.021401 0
M  V30 26 H 2.528670 -2.849887 -2.891972 0
M  V30 27 H 4.214709 -2.376711 -2.689548 0
M  V30 28 H 3.278117 -0.805854 -0.061813 0
M  V30 29 H 2.531315 1.343029 -0.985336 0
M  V30 30 H 0.498247 1.950382 0.060033 0
M  V30 31 H -1.239220 2.214522 1.036145 0
M  V30 32 H -3.068016 3.769188 3.038510 0
M  V30 33 H -4.030763 3.140853 1.586967 0
M  V30 END ATOM
M  V30 BEGIN BOND
M  V30 1 1 1 2
M  V30 2 2 2 3
M  V30 3 1 3 4
M  V30 4 1 4 5
M  V30 5 2 5 6
M  V30 6 1 6 7
M  V30 7 1 7 8
M  V30 8 1 8 9
M  V30 9 1 9 10
M  V30 10 1 10 11
M  V30 11 1 11 12
M  V30 12 1 12 13
M  V30 13 2 13 14
M  V30 14 2 4 15
M  V30 15 1 15 16
M  V30 16 1 16 17
M  V30 17 2 16 18
M  V30 18 1 18 2
M  V30 19 1 14 5
M  V30 20 1 12 7
M  V30 21 1 1 19
M  V30 22 1 1 20
M  V30 23 1 3 21
M  V30 24 1 6 22
M  V30 25 1 7 23
M  V30 26 1 9 24
M  V30 27 1 9 25
M  V30 28 1 10 26
M  V30 29 1 10 27
M  V30 30 1 12 28
M  V30 31 1 13 29
M  V30 32 1 14 30
M  V30 33 1 15 31
M  V30 34 1 17 32
M  V30 35 1 17 33
M  V30 END BOND
M  V30 END CTAB
M  END
>  <Dataset>  (866) 
ChEMBL_Kinases

>  <Ligand_Instance>  (866) 
nan

>  <PDB_ID>  (866) 
nan

>  <Standardized_SMILES>  (866) 
Nc1cc(C2=CC3OCCOC3C=C2)cc(N)n1

>  <Name>  (866) 
nan

>  <Pocket>  (866) 
nan

>  <ATP_Site>  (866) 
nan

>  <Peripheral>  (866) 
nan

>  <Num_H_Atoms_ProtBoundConf>  (866) 
nan

>  <Num_Resolved_Atoms>  (866) 
nan

>  <Num_Not_Resolved_Atoms>  (866) 
nan

$$$$
CHEMBL5094043
     RDKit          3D

  0  0  0  0  0  0  0  0  0  0999 V3000
M  V30 BEGIN CTAB
M  V30 COUNTS 30 32 0 0 0
M  V30 BEGIN ATOM
M  V30 1 N -0.387332 -4.440833 3.033788 0
M  V30 2 C 0.045328 -3.083343 3.031661 0
M  V30 3 C -0.053242 -2.306870 1.888767 0
M  V30 4 C 0.374698 -0.979832 1.904222 0
M  V30 5 C 0.261454 -0.175056 0.679854 0
M  V30 6 C 0.046037 1.178624 0.845400 0
M  V30 7 C -0.067650 1.980285 -0.298381 0
M  V30 8 C 0.043750 1.361535 -1.529875 0
M  V30 9 C 0.261388 -0.005420 -1.708297 0
M  V30 10 C 0.370298 -0.777575 -0.560233 0
M  V30 11 C 0.321951 -0.278616 -3.189782 0
M  V30 12 C -0.585533 0.869606 -3.651741 0
M  V30 13 O -0.027984 1.907793 -2.827255 0
M  V30 14 C 0.894192 -0.460136 3.071959 0
M  V30 15 C 0.969781 -1.272940 4.177162 0
M  V30 16 N 1.488584 -0.834875 5.427679 0
M  V30 17 N 0.557374 -2.562975 4.173781 0
M  V30 18 H 0.375840 -4.984497 2.559199 0
M  V30 19 H -1.225675 -4.956692 3.376480 0
M  V30 20 H -0.457931 -2.697087 0.963272 0
M  V30 21 H -0.042883 1.674341 1.782666 0
M  V30 22 H -0.236040 3.041892 -0.207621 0
M  V30 23 H 0.536276 -1.824449 -0.662377 0
M  V30 24 H 1.324755 -0.009415 -3.544535 0
M  V30 25 H -0.039657 -1.261625 -3.468438 0
M  V30 26 H -0.523592 1.075986 -4.714127 0
M  V30 27 H -1.600048 0.590393 -3.272852 0
M  V30 28 H 1.235517 0.561394 3.122201 0
M  V30 29 H 1.093666 -1.107634 6.368392 0
M  V30 30 H 2.249557 -0.239122 5.811934 0
M  V30 END ATOM
M  V30 BEGIN BOND
M  V30 1 1 1 2
M  V30 2 2 2 3
M  V30 3 1 3 4
M  V30 4 1 4 5
M  V30 5 2 5 6
M  V30 6 1 6 7
M  V30 7 2 7 8
M  V30 8 1 8 9
M  V30 9 2 9 10
M  V30 10 1 9 11
M  V30 11 1 11 12
M  V30 12 1 12 13
M  V30 13 2 4 14
M  V30 14 1 14 15
M  V30 15 1 15 16
M  V30 16 2 15 17
M  V30 17 1 17 2
M  V30 18 1 10 5
M  V30 19 1 13 8
M  V30 20 1 1 18
M  V30 21 1 1 19
M  V30 22 1 3 20
M  V30 23 1 6 21
M  V30 24 1 7 22
M  V30 25 1 10 23
M  V30 26 1 11 24
M  V30 27 1 11 25
M  V30 28 1 12 26
M  V30 29 1 12 27
M  V30 30 1 14 28
M  V30 31 1 16 29
M  V30 32 1 16 30
M  V30 END BOND
M  V30 END CTAB
M  END
>  <Dataset>  (867) 
ChEMBL_Kinases

>  <Ligand_Instance>  (867) 
nan

>  <PDB_ID>  (867) 
nan

>  <Standardized_SMILES>  (867) 
Nc1cc(-c2ccc3c(c2)CCO3)cc(N)n1

>  <Name>  (867) 
nan

>  <Pocket>  (867) 
nan

>  <ATP_Site>  (867) 
nan

>  <Peripheral>  (867) 
nan

>  <Num_H_Atoms_ProtBoundConf>  (867) 
nan

>  <Num_Resolved_Atoms>  (867) 
nan

>  <Num_Not_Resolved_Atoms>  (867) 
nan

$$$$
CHEMBL5094138
     RDKit          3D

  0  0  0  0  0  0  0  0  0  0999 V3000
M  V30 BEGIN CTAB
M  V30 COUNTS 50 54 0 0 0
M  V30 BEGIN ATOM
M  V30 1 C -2.397479 -2.524533 2.823029 0
M  V30 2 C -1.822759 -2.340551 1.474727 0
M  V30 3 C -0.587960 -1.765540 1.220928 0
M  V30 4 N 0.386280 -1.240862 2.095429 0
M  V30 5 C 1.618692 -0.676928 1.660411 0
M  V30 6 N 2.767034 -1.381093 1.479242 0
M  V30 7 C 3.903607 -0.796887 1.067057 0
M  V30 8 C 3.893068 0.570530 0.821347 0
M  V30 9 C 5.016492 1.266196 0.392647 0
M  V30 10 C 4.944413 2.624596 0.165405 0
M  V30 11 C 3.778435 3.341434 0.349094 0
M  V30 12 C 3.682559 4.806492 0.109027 0
M  V30 13 C 4.160883 5.302881 -1.176583 0
M  V30 14 N 4.563134 5.694154 -2.204167 0
M  V30 15 C 3.988264 5.731884 1.289637 0
M  V30 16 C 2.581174 5.569963 0.734539 0
M  V30 17 C 2.643487 2.680160 0.774593 0
M  V30 18 C 2.731064 1.314783 0.998885 0
M  V30 19 N 1.631178 0.645365 1.416684 0
M  V30 20 C -0.453945 -1.793404 -0.149380 0
M  V30 21 N -1.558633 -2.356558 -0.646015 0
M  V30 22 N -2.416563 -2.702947 0.320501 0
M  V30 23 C -3.725218 -3.342686 0.146671 0
M  V30 24 C -3.868952 -4.590744 0.969541 0
M  V30 25 C -4.733505 -5.653862 0.405172 0
M  V30 26 O -5.090980 -5.530534 -0.912421 0
M  V30 27 C -3.974009 -5.092487 -1.622743 0
M  V30 28 C -3.912022 -3.595879 -1.331890 0
M  V30 29 H -1.804965 -1.938221 3.582678 0
M  V30 30 H -2.332594 -3.567117 3.199977 0
M  V30 31 H -3.476640 -2.244084 2.873333 0
M  V30 32 H 0.175121 -1.275402 3.124677 0
M  V30 33 H 4.811882 -1.355257 0.924067 0
M  V30 34 H 5.917983 0.703669 0.252280 0
M  V30 35 H 5.793264 3.175680 -0.163078 0
M  V30 36 H 4.468782 6.713216 1.067895 0
M  V30 37 H 4.229039 5.259660 2.261992 0
M  V30 38 H 2.146498 6.434206 0.172865 0
M  V30 39 H 1.854225 5.134846 1.439406 0
M  V30 40 H 1.672306 3.149131 0.950903 0
M  V30 41 H 0.390821 -1.426366 -0.714283 0
M  V30 42 H -4.531840 -2.645303 0.454659 0
M  V30 43 H -2.866936 -5.024231 1.177927 0
M  V30 44 H -4.260603 -4.335260 1.998885 0
M  V30 45 H -5.703839 -5.721080 0.982304 0
M  V30 46 H -4.261462 -6.663509 0.560482 0
M  V30 47 H -4.100893 -5.198168 -2.699482 0
M  V30 48 H -3.046553 -5.605975 -1.291188 0
M  V30 49 H -3.070707 -3.192653 -1.922189 0
M  V30 50 H -4.849108 -3.182165 -1.736210 0
M  V30 END ATOM
M  V30 BEGIN BOND
M  V30 1 1 1 2
M  V30 2 2 2 3
M  V30 3 1 3 4
M  V30 4 1 4 5
M  V30 5 2 5 6
M  V30 6 1 6 7
M  V30 7 2 7 8
M  V30 8 1 8 9
M  V30 9 2 9 10
M  V30 10 1 10 11
M  V30 11 1 11 12
M  V30 12 1 12 13
M  V30 13 3 13 14
M  V30 14 1 12 15
M  V30 15 1 15 16
M  V30 16 2 11 17
M  V30 17 1 17 18
M  V30 18 2 18 19
M  V30 19 1 3 20
M  V30 20 2 20 21
M  V30 21 1 21 22
M  V30 22 1 22 23
M  V30 23 1 23 24
M  V30 24 1 24 25
M  V30 25 1 25 26
M  V30 26 1 26 27
M  V30 27 1 27 28
M  V30 28 1 22 2
M  V30 29 1 28 23
M  V30 30 1 19 5
M  V30 31 1 18 8
M  V30 32 1 16 12
M  V30 33 1 1 29
M  V30 34 1 1 30
M  V30 35 1 1 31
M  V30 36 1 4 32
M  V30 37 1 7 33
M  V30 38 1 9 34
M  V30 39 1 10 35
M  V30 40 1 15 36
M  V30 41 1 15 37
M  V30 42 1 16 38
M  V30 43 1 16 39
M  V30 44 1 17 40
M  V30 45 1 20 41
M  V30 46 1 23 42
M  V30 47 1 24 43
M  V30 48 1 24 44
M  V30 49 1 25 45
M  V30 50 1 25 46
M  V30 51 1 27 47
M  V30 52 1 27 48
M  V30 53 1 28 49
M  V30 54 1 28 50
M  V30 END BOND
M  V30 END CTAB
M  END
>  <Dataset>  (868) 
ChEMBL_Kinases

>  <Ligand_Instance>  (868) 
nan

>  <PDB_ID>  (868) 
nan

>  <Standardized_SMILES>  (868) 
Cc1c(Nc2ncc3ccc(C4(C#N)CC4)cc3n2)cnn1C1CCOCC1

>  <Name>  (868) 
nan

>  <Pocket>  (868) 
nan

>  <ATP_Site>  (868) 
nan

>  <Peripheral>  (868) 
nan

>  <Num_H_Atoms_ProtBoundConf>  (868) 
nan

>  <Num_Resolved_Atoms>  (868) 
nan

>  <Num_Not_Resolved_Atoms>  (868) 
nan

$$$$
CHEMBL5094173
     RDKit          3D

  0  0  0  0  0  0  0  0  0  0999 V3000
M  V30 BEGIN CTAB
M  V30 COUNTS 57 61 0 0 0
M  V30 BEGIN ATOM
M  V30 1 O 2.585763 -5.256999 0.388364 0
M  V30 2 S 2.998067 -4.171312 -0.550269 0
M  V30 3 O 4.025318 -4.732076 -1.475748 0
M  V30 4 N 3.737930 -2.892921 0.332985 0
M  V30 5 C 2.876472 -2.281657 1.302953 0
M  V30 6 C 3.566126 -1.140650 2.068337 0
M  V30 7 C 4.001220 -0.067427 1.094914 0
M  V30 8 N 2.876362 0.478860 0.361431 0
M  V30 9 C 1.691126 1.188243 0.694834 0
M  V30 10 N 1.608573 2.534227 0.512949 0
M  V30 11 C 0.468654 3.192863 0.848446 0
M  V30 12 C -0.598759 2.534863 1.365106 0
M  V30 13 C -0.534102 1.167217 1.557780 0
M  V30 14 C -1.469438 0.182463 2.093885 0
M  V30 15 C -2.671094 -0.022634 1.462577 0
M  V30 16 C -3.423835 0.472065 0.322986 0
M  V30 17 C -3.654863 -0.399839 -0.741755 0
M  V30 18 C -4.357086 -0.031322 -1.844873 0
M  V30 19 C -4.869589 1.231312 -1.945756 0
M  V30 20 C -4.671021 2.147003 -0.912691 0
M  V30 21 O -5.192173 3.433586 -1.012200 0
M  V30 22 C -3.953711 1.717542 0.174744 0
M  V30 23 N -3.320161 -0.992194 2.167717 0
M  V30 24 C -2.497793 -1.331692 3.186425 0
M  V30 25 S -2.327211 -2.417837 4.631750 0
M  V30 26 C -0.691122 -1.800548 5.079688 0
M  V30 27 C -0.445172 -0.861286 4.117576 0
M  V30 28 N -1.351537 -0.622279 3.162809 0
M  V30 29 N 0.624527 0.550980 1.208239 0
M  V30 30 C 1.619033 -3.634449 -1.482730 0
M  V30 31 C 0.331072 -3.580269 -1.000073 0
M  V30 32 C -0.677553 -3.136103 -1.844340 0
M  V30 33 C -0.470181 -2.740170 -3.153694 0
M  V30 34 C 0.819217 -2.793673 -3.639042 0
M  V30 35 C 1.822979 -3.234582 -2.801507 0
M  V30 36 H 4.631525 -3.237538 0.742590 0
M  V30 37 H 1.941906 -1.979432 0.832978 0
M  V30 38 H 2.594513 -3.093400 2.029013 0
M  V30 39 H 4.486431 -1.588122 2.495948 0
M  V30 40 H 2.930221 -0.801886 2.878513 0
M  V30 41 H 4.577083 0.731898 1.579786 0
M  V30 42 H 4.650568 -0.551045 0.343709 0
M  V30 43 H 2.768320 0.414278 -0.673412 0
M  V30 44 H 0.327378 4.265635 0.731673 0
M  V30 45 H -1.570116 2.902708 1.682618 0
M  V30 46 H -3.275417 -1.410278 -0.723670 0
M  V30 47 H -4.556882 -0.686011 -2.696460 0
M  V30 48 H -5.438697 1.577092 -2.802574 0
M  V30 49 H -6.032192 3.532339 -1.581921 0
M  V30 50 H -3.801628 2.426617 0.971074 0
M  V30 51 H -0.160127 -2.168059 5.916448 0
M  V30 52 H 0.518350 -0.374692 4.232895 0
M  V30 53 H 0.146696 -3.878975 0.006523 0
M  V30 54 H -1.663588 -3.123656 -1.383736 0
M  V30 55 H -1.328229 -2.404631 -3.748234 0
M  V30 56 H 1.002679 -2.490676 -4.660198 0
M  V30 57 H 2.837184 -3.265217 -3.214290 0
M  V30 END ATOM
M  V30 BEGIN BOND
M  V30 1 2 1 2
M  V30 2 2 2 3
M  V30 3 1 2 4
M  V30 4 1 4 5
M  V30 5 1 5 6
M  V30 6 1 6 7
M  V30 7 1 7 8
M  V30 8 1 8 9
M  V30 9 2 9 10
M  V30 10 1 10 11
M  V30 11 2 11 12
M  V30 12 1 12 13
M  V30 13 1 13 14
M  V30 14 2 14 15
M  V30 15 1 15 16
M  V30 16 2 16 17
M  V30 17 1 17 18
M  V30 18 2 18 19
M  V30 19 1 19 20
M  V30 20 1 20 21
M  V30 21 2 20 22
M  V30 22 1 15 23
M  V30 23 2 23 24
M  V30 24 1 24 25
M  V30 25 1 25 26
M  V30 26 2 26 27
M  V30 27 1 27 28
M  V30 28 2 13 29
M  V30 29 1 2 30
M  V30 30 2 30 31
M  V30 31 1 31 32
M  V30 32 2 32 33
M  V30 33 1 33 34
M  V30 34 2 34 35
M  V30 35 1 29 9
M  V30 36 1 35 30
M  V30 37 1 28 14
M  V30 38 1 22 16
M  V30 39 1 28 24
M  V30 40 1 4 36
M  V30 41 1 5 37
M  V30 42 1 5 38
M  V30 43 1 6 39
M  V30 44 1 6 40
M  V30 45 1 7 41
M  V30 46 1 7 42
M  V30 47 1 8 43
M  V30 48 1 11 44
M  V30 49 1 12 45
M  V30 50 1 17 46
M  V30 51 1 18 47
M  V30 52 1 19 48
M  V30 53 1 21 49
M  V30 54 1 22 50
M  V30 55 1 26 51
M  V30 56 1 27 52
M  V30 57 1 31 53
M  V30 58 1 32 54
M  V30 59 1 33 55
M  V30 60 1 34 56
M  V30 61 1 35 57
M  V30 END BOND
M  V30 END CTAB
M  END
>  <Dataset>  (869) 
ChEMBL_Kinases

>  <Ligand_Instance>  (869) 
nan

>  <PDB_ID>  (869) 
nan

>  <Standardized_SMILES>  (869) 
O=S(=O)(NCCCNc1nccc(-c2c(-c3cccc(O)c3)nc3sccn23)n1)c1ccccc1

>  <Name>  (869) 
nan

>  <Pocket>  (869) 
nan

>  <ATP_Site>  (869) 
nan

>  <Peripheral>  (869) 
nan

>  <Num_H_Atoms_ProtBoundConf>  (869) 
nan

>  <Num_Resolved_Atoms>  (869) 
nan

>  <Num_Not_Resolved_Atoms>  (869) 
nan

$$$$
CHEMBL578169
     RDKit          3D

  0  0  0  0  0  0  0  0  0  0999 V3000
M  V30 BEGIN CTAB
M  V30 COUNTS 42 45 0 0 0
M  V30 BEGIN ATOM
M  V30 1 N -0.821117 -5.251766 1.141015 0
M  V30 2 C 0.054434 -4.602435 0.736585 0
M  V30 3 C 1.129716 -3.781156 0.229329 0
M  V30 4 C 2.075894 -4.483241 -0.516148 0
M  V30 5 N 3.105230 -3.782167 -1.019189 0
M  V30 6 C 3.231226 -2.459697 -0.820289 0
M  V30 7 C 2.301590 -1.760391 -0.085297 0
M  V30 8 C 2.397827 -0.338007 0.174746 0
M  V30 9 C 3.348319 0.473744 -0.246933 0
M  V30 10 C 3.485314 1.905949 -0.010678 0
M  V30 11 C 4.539326 2.640507 -0.514649 0
M  V30 12 C 4.645409 3.992859 -0.276967 0
M  V30 13 C 3.718722 4.689003 0.468858 0
M  V30 14 C 2.642817 3.978164 0.992088 0
M  V30 15 C 2.572651 2.622791 0.730899 0
M  V30 16 C 1.228979 -2.438887 0.448752 0
M  V30 17 N 0.176246 -1.903590 1.233214 0
M  V30 18 C -1.188593 -1.521918 1.159884 0
M  V30 19 C -1.880435 -2.286680 2.109611 0
M  V30 20 C -3.264882 -2.143011 2.275417 0
M  V30 21 C -4.254620 -2.688604 3.065466 0
M  V30 22 C -5.471184 -2.099469 2.731405 0
M  V30 23 N -5.203813 -1.206504 1.745515 0
M  V30 24 C -3.888952 -1.221575 1.462461 0
M  V30 25 C -3.244440 -0.454362 0.520900 0
M  V30 26 C -1.890016 -0.625285 0.389931 0
M  V30 27 Cl -0.894847 0.238208 -0.747110 0
M  V30 28 H 2.034100 -5.551163 -0.714181 0
M  V30 29 H 4.086105 -1.964469 -1.256388 0
M  V30 30 H 1.662172 0.180035 0.766534 0
M  V30 31 H 4.143698 0.017074 -0.856187 0
M  V30 32 H 5.275943 2.092870 -1.106296 0
M  V30 33 H 5.506438 4.499179 -0.709730 0
M  V30 34 H 3.824505 5.748140 0.640582 0
M  V30 35 H 1.925770 4.519341 1.569694 0
M  V30 36 H 1.712933 2.158955 1.172430 0
M  V30 37 H 0.719193 -1.802891 2.142396 0
M  V30 38 H -1.507816 -3.038659 2.804211 0
M  V30 39 H -4.064009 -3.449357 3.810410 0
M  V30 40 H -6.432308 -2.326357 3.184746 0
M  V30 41 H -5.978818 -0.644102 1.338864 0
M  V30 42 H -3.693813 0.276379 -0.134186 0
M  V30 END ATOM
M  V30 BEGIN BOND
M  V30 1 3 1 2
M  V30 2 1 2 3
M  V30 3 2 3 4
M  V30 4 1 4 5
M  V30 5 2 5 6
M  V30 6 1 6 7
M  V30 7 1 7 8
M  V30 8 2 8 9
M  V30 9 1 9 10
M  V30 10 2 10 11
M  V30 11 1 11 12
M  V30 12 2 12 13
M  V30 13 1 13 14
M  V30 14 2 14 15
M  V30 15 2 7 16
M  V30 16 1 16 17
M  V30 17 1 17 18
M  V30 18 2 18 19
M  V30 19 1 19 20
M  V30 20 1 20 21
M  V30 21 2 21 22
M  V30 22 1 22 23
M  V30 23 1 23 24
M  V30 24 1 24 25
M  V30 25 2 25 26
M  V30 26 1 26 27
M  V30 27 1 16 3
M  V30 28 1 26 18
M  V30 29 1 15 10
M  V30 30 2 24 20
M  V30 31 1 4 28
M  V30 32 1 6 29
M  V30 33 1 8 30
M  V30 34 1 9 31
M  V30 35 1 11 32
M  V30 36 1 12 33
M  V30 37 1 13 34
M  V30 38 1 14 35
M  V30 39 1 15 36
M  V30 40 1 17 37
M  V30 41 1 19 38
M  V30 42 1 21 39
M  V30 43 1 22 40
M  V30 44 1 23 41
M  V30 45 1 25 42
M  V30 END BOND
M  V30 END CTAB
M  END
>  <Dataset>  (870) 
ChEMBL_Kinases

>  <Ligand_Instance>  (870) 
nan

>  <PDB_ID>  (870) 
nan

>  <Standardized_SMILES>  (870) 
N#Cc1cncc(/C=C/c2ccccc2)c1Nc1cc2cc[nH]c2cc1Cl

>  <Name>  (870) 
nan

>  <Pocket>  (870) 
nan

>  <ATP_Site>  (870) 
nan

>  <Peripheral>  (870) 
nan

>  <Num_H_Atoms_ProtBoundConf>  (870) 
nan

>  <Num_Resolved_Atoms>  (870) 
nan

>  <Num_Not_Resolved_Atoms>  (870) 
nan

$$$$
CHEMBL5094193
     RDKit          3D

  0  0  0  0  0  0  0  0  0  0999 V3000
M  V30 BEGIN CTAB
M  V30 COUNTS 55 59 0 0 0
M  V30 BEGIN ATOM
M  V30 1 C 0.915984 -1.652322 4.042667 0
M  V30 2 C 1.570652 -0.424954 3.579146 0
M  V30 3 C 3.022083 -0.501855 3.814733 0
M  V30 4 N 3.811888 0.539732 3.348525 0
M  V30 5 C 3.183275 1.551746 2.706972 0
M  V30 6 N 3.573524 2.551832 1.726436 0
M  V30 7 C 3.725434 1.618686 0.575513 0
M  V30 8 C 3.877827 0.315898 0.411159 0
M  V30 9 C 3.897430 -0.473087 -0.674852 0
M  V30 10 N 3.703273 0.630937 -1.546226 0
M  V30 11 N 3.614826 1.767196 -0.810220 0
M  V30 12 C 3.297991 3.020847 -1.500344 0
M  V30 13 N 1.802064 1.696395 2.463799 0
M  V30 14 C 1.002447 0.649040 2.921536 0
M  V30 15 C -0.368493 0.303492 3.028028 0
M  V30 16 C -0.498974 0.463734 1.585925 0
M  V30 17 N -1.804132 0.181518 1.170733 0
M  V30 18 C -2.571046 -0.131952 2.289220 0
M  V30 19 C -1.652735 -0.018873 3.238824 0
M  V30 20 F -1.679067 -0.225664 4.558491 0
M  V30 21 C -3.905659 -0.358939 1.518674 0
M  V30 22 N -3.530954 -1.083128 0.346516 0
M  V30 23 C -3.706111 -2.243190 -0.498688 0 CFG=2
M  V30 24 C -3.042287 -3.334995 0.579235 0
M  V30 25 O -3.844492 -3.274745 1.633301 0
M  V30 26 C -2.888711 -2.344601 -1.694297 0
M  V30 27 C -1.681090 -3.005921 -1.585710 0
M  V30 28 C -0.591704 -3.166471 -2.507309 0
M  V30 29 C -0.815361 -2.550378 -3.704233 0
M  V30 30 C -1.988588 -1.864491 -3.934256 0
M  V30 31 Cl -2.270231 -1.055383 -5.470309 0
M  V30 32 C -2.981114 -1.757823 -2.991096 0
M  V30 33 C -2.363373 -0.332091 -0.078405 0
M  V30 34 O -1.943536 -0.149745 -1.247844 0
M  V30 35 H 1.582685 -2.583534 3.852420 0
M  V30 36 H 0.036911 -1.890590 3.377794 0
M  V30 37 H 0.606216 -1.711086 5.063510 0
M  V30 38 H 3.637289 -1.222391 4.258261 0
M  V30 39 H 3.752564 3.481129 1.453724 0
M  V30 40 H 4.032622 -0.421689 1.236742 0
M  V30 41 H 3.996289 -1.478833 -0.932069 0
M  V30 42 H 3.734453 3.849014 -0.915682 0
M  V30 43 H 2.150128 3.058646 -1.489076 0
M  V30 44 H 3.629484 2.966907 -2.520122 0
M  V30 45 H 0.174775 0.725855 0.648360 0
M  V30 46 H -4.520844 -0.971504 2.230407 0
M  V30 47 H -4.341054 0.573762 1.293081 0
M  V30 48 H -4.673137 -2.685534 -0.484322 0
M  V30 49 H -2.963618 -4.284235 0.126369 0
M  V30 50 H -2.083774 -2.846651 0.755220 0
M  V30 51 H -4.734904 -3.717782 1.458823 0
M  V30 52 H -1.287727 -3.573909 -0.700660 0
M  V30 53 H 0.315731 -3.696498 -2.366863 0
M  V30 54 H -0.048915 -2.633768 -4.484075 0
M  V30 55 H -3.921132 -1.218689 -3.050238 0
M  V30 END ATOM
M  V30 BEGIN BOND
M  V30 1 1 1 2
M  V30 2 2 2 3
M  V30 3 1 3 4
M  V30 4 2 4 5
M  V30 5 1 5 6
M  V30 6 1 6 7
M  V30 7 2 7 8
M  V30 8 1 8 9
M  V30 9 2 9 10
M  V30 10 1 10 11
M  V30 11 1 11 12
M  V30 12 1 5 13
M  V30 13 2 13 14
M  V30 14 1 14 15
M  V30 15 2 15 16
M  V30 16 1 16 17
M  V30 17 1 17 18
M  V30 18 2 18 19
M  V30 19 1 19 20
M  V30 20 1 18 21
M  V30 21 1 21 22
M  V30 22 1 22 23
M  V30 23 1 23 24
M  V30 24 1 24 25
M  V30 25 1 23 26
M  V30 26 2 26 27
M  V30 27 1 27 28
M  V30 28 2 28 29
M  V30 29 1 29 30
M  V30 30 1 30 31
M  V30 31 2 30 32
M  V30 32 1 22 33
M  V30 33 2 33 34
M  V30 34 1 14 2
M  V30 35 1 19 15
M  V30 36 1 32 26
M  V30 37 1 11 7
M  V30 38 1 33 17
M  V30 39 1 1 35
M  V30 40 1 1 36
M  V30 41 1 1 37
M  V30 42 1 3 38
M  V30 43 1 6 39
M  V30 44 1 8 40
M  V30 45 1 9 41
M  V30 46 1 12 42
M  V30 47 1 12 43
M  V30 48 1 12 44
M  V30 49 1 16 45
M  V30 50 1 21 46
M  V30 51 1 21 47
M  V30 52 1 23 48 CFG=3
M  V30 53 1 24 49
M  V30 54 1 24 50
M  V30 55 1 25 51
M  V30 56 1 27 52
M  V30 57 1 28 53
M  V30 58 1 29 54
M  V30 59 1 32 55
M  V30 END BOND
M  V30 END CTAB
M  END
>  <Dataset>  (871) 
ChEMBL_Kinases

>  <Ligand_Instance>  (871) 
nan

>  <PDB_ID>  (871) 
nan

>  <Standardized_SMILES>  (871) 
Cc1cnc(Nc2ccnn2C)nc1-c1cn2c(c1F)CN([C@H](CO)c1cccc(Cl)c1)C2=O

>  <Name>  (871) 
nan

>  <Pocket>  (871) 
nan

>  <ATP_Site>  (871) 
nan

>  <Peripheral>  (871) 
nan

>  <Num_H_Atoms_ProtBoundConf>  (871) 
nan

>  <Num_Resolved_Atoms>  (871) 
nan

>  <Num_Not_Resolved_Atoms>  (871) 
nan

$$$$
CHEMBL5094203
     RDKit          3D

  0  0  0  0  0  0  0  0  0  0999 V3000
M  V30 BEGIN CTAB
M  V30 COUNTS 57 61 0 0 0
M  V30 BEGIN ATOM
M  V30 1 C -0.186465 -3.129488 5.524371 0
M  V30 2 N -0.440006 -3.497802 4.130004 0
M  V30 3 C 0.213292 -2.786047 3.173049 0
M  V30 4 N 1.109622 -1.728423 3.489386 0
M  V30 5 C 1.829553 -0.929068 2.517527 0
M  V30 6 C 0.838339 -0.208799 1.647821 0
M  V30 7 N 1.486138 0.618921 0.644769 0
M  V30 8 C 0.743487 1.389597 -0.285525 0
M  V30 9 C 0.309069 1.002668 -1.517664 0
M  V30 10 C -0.405075 1.895553 -2.287638 0
M  V30 11 N -0.686517 3.137816 -1.859968 0
M  V30 12 C -0.274400 3.574044 -0.634307 0
M  V30 13 C -0.590985 4.849869 -0.253206 0
M  V30 14 C -0.168419 5.279087 0.988490 0
M  V30 15 C 0.552953 4.436925 1.815252 0
M  V30 16 C 0.838471 3.161805 1.369380 0
M  V30 17 C 0.449462 2.665672 0.143440 0
M  V30 18 C -0.904926 1.534868 -3.635535 0
M  V30 19 C -0.705826 0.085810 -3.957728 0
M  V30 20 C 0.653856 -0.363879 -3.472169 0
M  V30 21 C 0.647897 -0.377643 -1.938052 0
M  V30 22 N -0.044820 -3.151381 1.929866 0
M  V30 23 C -0.872842 -4.136738 1.539300 0
M  V30 24 C -1.050096 -4.416516 0.119762 0
M  V30 25 C -1.871284 -5.400093 -0.386962 0
M  V30 26 C -1.969435 -5.584814 -1.761013 0
M  V30 27 N -1.288751 -4.836498 -2.651135 0
M  V30 28 C -0.483981 -3.871018 -2.124284 0
M  V30 29 N -0.385105 -3.687726 -0.794457 0
M  V30 30 C -1.530417 -4.852479 2.515391 0
M  V30 31 C -1.279845 -4.492615 3.821972 0
M  V30 32 O -1.847058 -5.103734 4.785746 0
M  V30 33 H 0.848173 -3.377231 5.811197 0
M  V30 34 H -0.357429 -2.043887 5.687389 0
M  V30 35 H -0.887612 -3.669878 6.194299 0
M  V30 36 H 1.241065 -1.532609 4.527448 0
M  V30 37 H 2.470833 -0.215378 3.045494 0
M  V30 38 H 2.478371 -1.618817 1.917106 0
M  V30 39 H 0.169067 0.412353 2.238681 0
M  V30 40 H 0.283038 -0.970913 1.070708 0
M  V30 41 H 2.464350 0.879688 0.326704 0
M  V30 42 H -1.165590 5.492178 -0.935182 0
M  V30 43 H -0.396530 6.280172 1.330326 0
M  V30 44 H 0.909700 4.718991 2.797471 0
M  V30 45 H 1.406398 2.501302 2.022342 0
M  V30 46 H -0.381688 2.212443 -4.366455 0
M  V30 47 H -1.982926 1.832531 -3.665982 0
M  V30 48 H -1.518055 -0.494265 -3.471991 0
M  V30 49 H -0.769656 -0.040060 -5.050611 0
M  V30 50 H 0.945138 -1.317622 -3.910287 0
M  V30 51 H 1.395756 0.415705 -3.755402 0
M  V30 52 H -0.211646 -1.023720 -1.638806 0
M  V30 53 H 1.627407 -0.729354 -1.621150 0
M  V30 54 H -2.425746 -6.012378 0.286491 0
M  V30 55 H -2.611618 -6.354296 -2.161214 0
M  V30 56 H 0.051604 -3.283736 -2.856058 0
M  V30 57 H -2.206275 -5.652842 2.272692 0
M  V30 END ATOM
M  V30 BEGIN BOND
M  V30 1 1 1 2
M  V30 2 1 2 3
M  V30 3 1 3 4
M  V30 4 1 4 5
M  V30 5 1 5 6
M  V30 6 1 6 7
M  V30 7 1 7 8
M  V30 8 2 8 9
M  V30 9 1 9 10
M  V30 10 2 10 11
M  V30 11 1 11 12
M  V30 12 2 12 13
M  V30 13 1 13 14
M  V30 14 2 14 15
M  V30 15 1 15 16
M  V30 16 2 16 17
M  V30 17 1 10 18
M  V30 18 1 18 19
M  V30 19 1 19 20
M  V30 20 1 20 21
M  V30 21 2 3 22
M  V30 22 1 22 23
M  V30 23 1 23 24
M  V30 24 2 24 25
M  V30 25 1 25 26
M  V30 26 2 26 27
M  V30 27 1 27 28
M  V30 28 2 28 29
M  V30 29 2 23 30
M  V30 30 1 30 31
M  V30 31 2 31 32
M  V30 32 1 31 2
M  V30 33 1 17 8
M  V30 34 1 29 24
M  V30 35 1 21 9
M  V30 36 1 17 12
M  V30 37 1 1 33
M  V30 38 1 1 34
M  V30 39 1 1 35
M  V30 40 1 4 36
M  V30 41 1 5 37
M  V30 42 1 5 38
M  V30 43 1 6 39
M  V30 44 1 6 40
M  V30 45 1 7 41
M  V30 46 1 13 42
M  V30 47 1 14 43
M  V30 48 1 15 44
M  V30 49 1 16 45
M  V30 50 1 18 46
M  V30 51 1 18 47
M  V30 52 1 19 48
M  V30 53 1 19 49
M  V30 54 1 20 50
M  V30 55 1 20 51
M  V30 56 1 21 52
M  V30 57 1 21 53
M  V30 58 1 25 54
M  V30 59 1 26 55
M  V30 60 1 28 56
M  V30 61 1 30 57
M  V30 END BOND
M  V30 END CTAB
M  END
>  <Dataset>  (872) 
ChEMBL_Kinases

>  <Ligand_Instance>  (872) 
nan

>  <PDB_ID>  (872) 
nan

>  <Standardized_SMILES>  (872) 
Cn1c(NCCNc2c3c(nc4ccccc24)CCCC3)nc(-c2ccncn2)cc1=O

>  <Name>  (872) 
nan

>  <Pocket>  (872) 
nan

>  <ATP_Site>  (872) 
nan

>  <Peripheral>  (872) 
nan

>  <Num_H_Atoms_ProtBoundConf>  (872) 
nan

>  <Num_Resolved_Atoms>  (872) 
nan

>  <Num_Not_Resolved_Atoms>  (872) 
nan

$$$$
CHEMBL5094228
     RDKit          3D

  0  0  0  0  0  0  0  0  0  0999 V3000
M  V30 BEGIN CTAB
M  V30 COUNTS 59 63 0 0 0
M  V30 BEGIN ATOM
M  V30 1 C 2.484481 4.152747 3.797047 0
M  V30 2 C 2.594298 2.856002 3.080643 0
M  V30 3 N 3.735537 2.149952 3.041395 0
M  V30 4 N 3.593870 1.040725 2.345687 0
M  V30 5 C 4.548267 -0.013267 2.042765 0
M  V30 6 C 4.495841 -1.082502 3.102347 0
M  V30 7 O 4.785647 -0.682769 4.382678 0
M  V30 8 C 3.352085 -2.059710 2.930399 0
M  V30 9 O 4.214408 -3.126404 3.170063 0
M  V30 10 C 5.249111 -2.340478 2.676797 0
M  V30 11 C 2.304291 1.045061 1.926541 0
M  V30 12 C 1.630121 2.165128 2.361282 0
M  V30 13 N 0.286796 2.578546 2.161555 0
M  V30 14 C -0.694966 1.853183 1.423426 0
M  V30 15 N -1.946000 2.312333 1.258145 0
M  V30 16 C -2.864139 1.619807 0.562502 0
M  V30 17 N -4.193495 2.076467 0.372893 0
M  V30 18 C -2.515408 0.411670 0.005446 0
M  V30 19 C -3.141398 -0.542041 -0.737874 0
M  V30 20 C -4.497268 -0.530961 -1.187019 0
M  V30 21 N -5.578206 -0.511588 -1.562886 0
M  V30 22 C -2.253753 -1.560016 -1.006342 0
M  V30 23 N -2.384735 -2.774824 -1.735252 0
M  V30 24 C -2.922392 -3.985544 -1.105520 0
M  V30 25 C -4.097144 -4.277327 -2.047192 0
M  V30 26 C -3.430658 -4.030527 -3.405439 0
M  V30 27 C -2.130652 -3.321196 -3.071016 0 CFG=1
M  V30 28 C -1.789430 -2.288377 -4.088500 0
M  V30 29 N -1.065204 -1.259569 -0.438050 0
M  V30 30 C 0.169302 -2.006963 -0.439630 0
M  V30 31 C -1.231846 -0.056619 0.176624 0
M  V30 32 N -0.367924 0.676113 0.876960 0
M  V30 33 H 1.442469 4.375220 4.083751 0
M  V30 34 H 3.199498 4.177423 4.660575 0
M  V30 35 H 2.836673 4.971501 3.111281 0
M  V30 36 H 4.441718 -0.423117 1.029851 0
M  V30 37 H 5.550065 0.458467 2.084830 0
M  V30 38 H 4.973504 -1.512820 4.914052 0
M  V30 39 H 2.523469 -1.976306 3.658678 0
M  V30 40 H 3.032899 -2.048974 1.850009 0
M  V30 41 H 6.215423 -2.456660 3.182560 0
M  V30 42 H 5.341855 -2.441370 1.567499 0
M  V30 43 H 1.887881 0.250744 1.325340 0
M  V30 44 H -0.021794 3.479247 2.580326 0
M  V30 45 H -5.105760 2.274813 0.837293 0
M  V30 46 H -5.092976 2.273392 0.823789 0
M  V30 47 H -3.281749 -3.807805 -0.073939 0
M  V30 48 H -2.196955 -4.792122 -1.212049 0
M  V30 49 H -4.874099 -3.493997 -1.967973 0
M  V30 50 H -4.453418 -5.306631 -1.947202 0
M  V30 51 H -3.216891 -5.053679 -3.832931 0
M  V30 52 H -4.049366 -3.437773 -4.085852 0
M  V30 53 H -1.334842 -4.114023 -2.953666 0
M  V30 54 H -0.713823 -2.435441 -4.354562 0
M  V30 55 H -2.070895 -1.262197 -3.857439 0
M  V30 56 H -2.329509 -2.551274 -5.046018 0
M  V30 57 H 0.788848 -1.724882 0.439380 0
M  V30 58 H 0.812115 -1.815663 -1.318465 0
M  V30 59 H 0.025092 -3.108063 -0.360044 0
M  V30 END ATOM
M  V30 BEGIN BOND
M  V30 1 1 1 2
M  V30 2 2 2 3
M  V30 3 1 3 4
M  V30 4 1 4 5
M  V30 5 1 5 6
M  V30 6 1 6 7
M  V30 7 1 6 8
M  V30 8 1 8 9
M  V30 9 1 9 10
M  V30 10 1 4 11
M  V30 11 2 11 12
M  V30 12 1 12 13
M  V30 13 1 13 14
M  V30 14 2 14 15
M  V30 15 1 15 16
M  V30 16 1 16 17
M  V30 17 2 16 18
M  V30 18 1 18 19
M  V30 19 1 19 20
M  V30 20 3 20 21
M  V30 21 2 19 22
M  V30 22 1 22 23
M  V30 23 1 23 24
M  V30 24 1 24 25
M  V30 25 1 25 26
M  V30 26 1 26 27
M  V30 27 1 27 28
M  V30 28 1 22 29
M  V30 29 1 29 30
M  V30 30 1 29 31
M  V30 31 2 31 32
M  V30 32 1 12 2
M  V30 33 1 32 14
M  V30 34 1 10 6
M  V30 35 1 31 18
M  V30 36 1 27 23
M  V30 37 1 1 33
M  V30 38 1 1 34
M  V30 39 1 1 35
M  V30 40 1 5 36
M  V30 41 1 5 37
M  V30 42 1 7 38
M  V30 43 1 8 39
M  V30 44 1 8 40
M  V30 45 1 10 41
M  V30 46 1 10 42
M  V30 47 1 11 43
M  V30 48 1 13 44
M  V30 49 1 17 45
M  V30 50 1 17 46
M  V30 51 1 24 47
M  V30 52 1 24 48
M  V30 53 1 25 49
M  V30 54 1 25 50
M  V30 55 1 26 51
M  V30 56 1 26 52
M  V30 57 1 27 53 CFG=1
M  V30 58 1 28 54
M  V30 59 1 28 55
M  V30 60 1 28 56
M  V30 61 1 30 57
M  V30 62 1 30 58
M  V30 63 1 30 59
M  V30 END BOND
M  V30 END CTAB
M  END
>  <Dataset>  (873) 
ChEMBL_Kinases

>  <Ligand_Instance>  (873) 
nan

>  <PDB_ID>  (873) 
nan

>  <Standardized_SMILES>  (873) 
Cc1nn(CC2(O)COC2)cc1Nc1nc(N)c2c(C#N)c(N3CCC[C@H]3C)n(C)c2n1

>  <Name>  (873) 
nan

>  <Pocket>  (873) 
nan

>  <ATP_Site>  (873) 
nan

>  <Peripheral>  (873) 
nan

>  <Num_H_Atoms_ProtBoundConf>  (873) 
nan

>  <Num_Resolved_Atoms>  (873) 
nan

>  <Num_Not_Resolved_Atoms>  (873) 
nan

$$$$
CHEMBL5094236
     RDKit          3D

  0  0  0  0  0  0  0  0  0  0999 V3000
M  V30 BEGIN CTAB
M  V30 COUNTS 85 88 0 0 0
M  V30 BEGIN ATOM
M  V30 1 C 8.985721 -0.085381 4.470621 0
M  V30 2 N 7.923807 0.882554 4.337515 0
M  V30 3 N 7.422929 1.544410 5.359619 0
M  V30 4 C 6.457345 2.368417 5.003754 0
M  V30 5 C 6.286689 2.258909 3.623593 0
M  V30 6 C 5.344407 2.953546 2.754097 0
M  V30 7 O 5.384203 2.709782 1.523709 0
M  V30 8 N 4.443189 3.857243 3.357968 0
M  V30 9 C 3.409019 4.646641 2.668845 0
M  V30 10 C 2.282164 3.764517 2.285914 0
M  V30 11 C 2.149468 3.211397 1.034039 0
M  V30 12 C 1.119471 2.359076 0.711518 0
M  V30 13 C 0.128266 1.986395 1.628110 0
M  V30 14 C -0.901913 1.075199 1.174561 0
M  V30 15 O -1.690899 0.769039 2.149404 0
M  V30 16 N -1.165032 0.508958 -0.057447 0
M  V30 17 C -2.284727 -0.410873 -0.288576 0 CFG=1
M  V30 18 C -3.364483 0.447181 -0.970997 0
M  V30 19 C -4.586086 -0.223993 -1.335205 0
M  V30 20 C -5.439856 -0.869033 -0.261296 0
M  V30 21 C -5.896503 0.122770 0.758200 0
M  V30 22 C -7.085478 -0.339419 1.505512 0
M  V30 23 C -7.473290 -1.779192 1.323632 0
M  V30 24 C -7.556677 -2.164395 -0.122760 0
M  V30 25 C -6.678928 -1.379751 -1.011369 0
M  V30 26 C -1.888418 -1.574193 -1.096222 0
M  V30 27 O -2.587906 -2.641932 -0.995638 0
M  V30 28 N -0.824667 -1.694773 -1.993285 0
M  V30 29 C -0.209979 -2.676335 -2.858484 0
M  V30 30 C 0.716333 -2.119821 -3.841423 0
M  V30 31 C 1.236813 -3.140918 -4.776133 0
M  V30 32 C 0.342058 -4.247936 -5.178121 0
M  V30 33 N -0.665985 -4.583747 -4.217033 0
M  V30 34 S -0.355461 -5.957456 -3.300351 0
M  V30 35 C 1.111011 -5.876730 -2.301419 0
M  V30 36 O -0.232698 -7.168587 -4.219122 0
M  V30 37 O -1.561905 -6.273410 -2.429596 0
M  V30 38 C -1.296233 -3.472595 -3.610276 0
M  V30 39 C 0.275429 2.548020 2.871139 0
M  V30 40 C 1.303086 3.398004 3.189528 0
M  V30 41 C 7.235768 1.316723 3.286956 0
M  V30 42 N 7.531045 0.799309 2.007566 0
M  V30 43 H 9.889012 0.419957 4.848462 0
M  V30 44 H 9.259266 -0.526913 3.489405 0
M  V30 45 H 8.725945 -0.901261 5.187838 0
M  V30 46 H 5.857722 3.042664 5.624309 0
M  V30 47 H 4.494222 4.005263 4.410416 0
M  V30 48 H 3.914988 5.017685 1.752113 0
M  V30 49 H 3.103482 5.490541 3.269647 0
M  V30 50 H 2.927142 3.495116 0.305531 0
M  V30 51 H 1.168712 2.019528 -0.332188 0
M  V30 52 H -0.498729 0.796552 -0.805463 0
M  V30 53 H -2.751444 -0.748443 0.636905 0
M  V30 54 H -3.486852 1.306932 -0.254824 0
M  V30 55 H -2.871600 0.846059 -1.897053 0
M  V30 56 H -5.285810 0.503359 -1.844711 0
M  V30 57 H -4.356677 -1.007866 -2.114286 0
M  V30 58 H -4.996425 -1.728389 0.231298 0
M  V30 59 H -5.053414 0.439346 1.424493 0
M  V30 60 H -6.207516 1.061133 0.205895 0
M  V30 61 H -7.989253 0.320142 1.341951 0
M  V30 62 H -6.890654 -0.210258 2.607264 0
M  V30 63 H -6.896812 -2.487487 1.934506 0
M  V30 64 H -8.530394 -1.851774 1.731629 0
M  V30 65 H -7.317854 -3.240412 -0.200694 0
M  V30 66 H -8.642164 -2.115254 -0.473880 0
M  V30 67 H -7.239990 -0.455480 -1.342112 0
M  V30 68 H -6.351740 -1.919709 -1.924942 0
M  V30 69 H -0.303175 -0.764538 -2.052034 0
M  V30 70 H 0.227361 -3.460288 -2.218178 0
M  V30 71 H 1.582177 -1.589819 -3.368809 0
M  V30 72 H 0.158053 -1.292530 -4.397232 0
M  V30 73 H 1.485676 -2.581531 -5.741028 0
M  V30 74 H 2.251447 -3.453378 -4.419202 0
M  V30 75 H 0.967305 -5.138739 -5.366713 0
M  V30 76 H -0.173555 -4.041133 -6.142010 0
M  V30 77 H 0.844455 -5.581296 -1.280861 0
M  V30 78 H 1.649219 -6.868936 -2.313076 0
M  V30 79 H 1.789544 -5.147529 -2.807729 0
M  V30 80 H -2.012275 -3.845877 -2.860133 0
M  V30 81 H -1.731511 -2.827130 -4.394292 0
M  V30 82 H -0.494995 2.254785 3.580217 0
M  V30 83 H 1.299771 3.770798 4.221333 0
M  V30 84 H 7.302287 -0.185796 1.809380 0
M  V30 85 H 7.900354 0.880932 1.040559 0
M  V30 END ATOM
M  V30 BEGIN BOND
M  V30 1 1 1 2
M  V30 2 1 2 3
M  V30 3 2 3 4
M  V30 4 1 4 5
M  V30 5 1 5 6
M  V30 6 2 6 7
M  V30 7 1 6 8
M  V30 8 1 8 9
M  V30 9 1 9 10
M  V30 10 2 10 11
M  V30 11 1 11 12
M  V30 12 2 12 13
M  V30 13 1 13 14
M  V30 14 2 14 15
M  V30 15 1 14 16
M  V30 16 1 16 17
M  V30 17 1 17 18
M  V30 18 1 18 19
M  V30 19 1 19 20
M  V30 20 1 20 21
M  V30 21 1 21 22
M  V30 22 1 22 23
M  V30 23 1 23 24
M  V30 24 1 24 25
M  V30 25 1 17 26
M  V30 26 2 26 27
M  V30 27 1 26 28
M  V30 28 1 28 29
M  V30 29 1 29 30
M  V30 30 1 30 31
M  V30 31 1 31 32
M  V30 32 1 32 33
M  V30 33 1 33 34
M  V30 34 1 34 35
M  V30 35 2 34 36
M  V30 36 2 34 37
M  V30 37 1 33 38
M  V30 38 1 13 39
M  V30 39 2 39 40
M  V30 40 2 5 41
M  V30 41 1 41 42
M  V30 42 1 41 2
M  V30 43 1 40 10
M  V30 44 1 25 20
M  V30 45 1 38 29
M  V30 46 1 1 43
M  V30 47 1 1 44
M  V30 48 1 1 45
M  V30 49 1 4 46
M  V30 50 1 8 47
M  V30 51 1 9 48
M  V30 52 1 9 49
M  V30 53 1 11 50
M  V30 54 1 12 51
M  V30 55 1 16 52
M  V30 56 1 17 53 CFG=1
M  V30 57 1 18 54
M  V30 58 1 18 55
M  V30 59 1 19 56
M  V30 60 1 19 57
M  V30 61 1 20 58
M  V30 62 1 21 59
M  V30 63 1 21 60
M  V30 64 1 22 61
M  V30 65 1 22 62
M  V30 66 1 23 63
M  V30 67 1 23 64
M  V30 68 1 24 65
M  V30 69 1 24 66
M  V30 70 1 25 67
M  V30 71 1 25 68
M  V30 72 1 28 69
M  V30 73 1 29 70
M  V30 74 1 30 71
M  V30 75 1 30 72
M  V30 76 1 31 73
M  V30 77 1 31 74
M  V30 78 1 32 75
M  V30 79 1 32 76
M  V30 80 1 35 77
M  V30 81 1 35 78
M  V30 82 1 35 79
M  V30 83 1 38 80
M  V30 84 1 38 81
M  V30 85 1 39 82
M  V30 86 1 40 83
M  V30 87 1 42 84
M  V30 88 1 42 85
M  V30 END BOND
M  V30 END CTAB
M  END
>  <Dataset>  (874) 
ChEMBL_Kinases

>  <Ligand_Instance>  (874) 
nan

>  <PDB_ID>  (874) 
nan

>  <Standardized_SMILES>  (874) 
Cn1ncc(C(=O)NCc2ccc(C(=O)N[C@@H](CCC3CCCCC3)C(=O)NC3CCCN(S(C)(=O)=O)C3)cc2)c1N

>  <Name>  (874) 
nan

>  <Pocket>  (874) 
nan

>  <ATP_Site>  (874) 
nan

>  <Peripheral>  (874) 
nan

>  <Num_H_Atoms_ProtBoundConf>  (874) 
nan

>  <Num_Resolved_Atoms>  (874) 
nan

>  <Num_Not_Resolved_Atoms>  (874) 
nan

$$$$
CHEMBL5094293
     RDKit          3D

  0  0  0  0  0  0  0  0  0  0999 V3000
M  V30 BEGIN CTAB
M  V30 COUNTS 62 66 0 0 0
M  V30 BEGIN ATOM
M  V30 1 C -0.925933 -2.128070 5.295641 0
M  V30 2 C 0.263151 -2.064439 4.415168 0
M  V30 3 C 1.531006 -1.970164 4.955634 0
M  V30 4 C 2.649760 -1.909922 4.148174 0
M  V30 5 C 2.465036 -1.946786 2.774958 0
M  V30 6 N 3.542495 -1.892066 1.812265 0
M  V30 7 C 3.768406 -0.518791 1.505303 0
M  V30 8 O 2.980217 0.250266 2.147088 0
M  V30 9 C 4.796388 -0.048923 0.554573 0
M  V30 10 C 5.646890 -0.886455 -0.137463 0
M  V30 11 C 6.557849 -0.272818 -0.995164 0
M  V30 12 N 6.619865 1.061934 -1.153242 0
M  V30 13 C 5.783747 1.866283 -0.471443 0
M  V30 14 C 5.819255 3.359032 -0.618137 0
M  V30 15 F 4.568013 3.900036 -0.332130 0
M  V30 16 F 6.737052 3.942483 0.238043 0
M  V30 17 F 6.143836 3.718501 -1.893949 0
M  V30 18 C 4.854993 1.321055 0.396813 0
M  V30 19 C 1.180929 -2.042267 2.227819 0
M  V30 20 C 0.054745 -2.102721 3.051183 0
M  V30 21 C -1.249368 -2.201311 2.403223 0
M  V30 22 C -2.295212 -3.020399 2.713142 0
M  V30 23 C -3.464289 -2.974916 1.982210 0
M  V30 24 C -3.660916 -2.123978 0.913955 0
M  V30 25 C -2.609051 -1.290108 0.590963 0
M  V30 26 C -1.417652 -1.325941 1.324065 0
M  V30 27 O -2.542759 -0.348074 -0.426522 0
M  V30 28 C -3.384397 -0.175042 -1.562942 0
M  V30 29 C -2.975229 -1.182867 -2.584013 0
M  V30 30 C -2.450119 -0.447231 -3.798730 0
M  V30 31 O -3.456795 0.405395 -4.235568 0
M  V30 32 C -3.550130 1.529113 -3.420743 0
M  V30 33 C -3.258234 1.250921 -1.974948 0
M  V30 34 C -4.839709 -0.473749 -1.195472 0
M  V30 35 N -4.908645 -1.919319 -1.084071 0
M  V30 36 C -5.012767 -2.290010 0.313850 0
M  V30 37 H -1.123346 -3.162771 5.670497 0
M  V30 38 H -1.829190 -1.658907 4.831629 0
M  V30 39 H -0.767549 -1.531862 6.239737 0
M  V30 40 H 1.655626 -1.942607 6.032507 0
M  V30 41 H 3.659456 -1.836043 4.511044 0
M  V30 42 H 4.146546 -2.612995 1.330562 0
M  V30 43 H 5.559950 -1.940780 0.021166 0
M  V30 44 H 7.231325 -0.909620 -1.545199 0
M  V30 45 H 4.188545 2.001024 0.937276 0
M  V30 46 H 1.037146 -2.071265 1.141811 0
M  V30 47 H -2.119949 -3.674170 3.547963 0
M  V30 48 H -4.262006 -3.655662 2.281382 0
M  V30 49 H -0.634923 -0.635789 1.005647 0
M  V30 50 H -2.182266 -1.875138 -2.222271 0
M  V30 51 H -3.816871 -1.852589 -2.905505 0
M  V30 52 H -1.557927 0.137159 -3.436589 0
M  V30 53 H -2.129006 -1.120685 -4.613062 0
M  V30 54 H -2.765700 2.228826 -3.789000 0
M  V30 55 H -4.521879 2.042538 -3.564839 0
M  V30 56 H -4.027692 1.819165 -1.374804 0
M  V30 57 H -2.281632 1.674400 -1.648643 0
M  V30 58 H -5.465218 -0.080790 -2.003672 0
M  V30 59 H -5.011418 0.021874 -0.214874 0
M  V30 60 H -5.633506 -2.347301 -1.674529 0
M  V30 61 H -5.397775 -3.313554 0.451036 0
M  V30 62 H -5.714349 -1.573346 0.794905 0
M  V30 END ATOM
M  V30 BEGIN BOND
M  V30 1 1 1 2
M  V30 2 2 2 3
M  V30 3 1 3 4
M  V30 4 2 4 5
M  V30 5 1 5 6
M  V30 6 1 6 7
M  V30 7 2 7 8
M  V30 8 1 7 9
M  V30 9 2 9 10
M  V30 10 1 10 11
M  V30 11 2 11 12
M  V30 12 1 12 13
M  V30 13 1 13 14
M  V30 14 1 14 15
M  V30 15 1 14 16
M  V30 16 1 14 17
M  V30 17 2 13 18
M  V30 18 1 5 19
M  V30 19 2 19 20
M  V30 20 1 20 21
M  V30 21 2 21 22
M  V30 22 1 22 23
M  V30 23 2 23 24
M  V30 24 1 24 25
M  V30 25 2 25 26
M  V30 26 1 25 27
M  V30 27 1 27 28
M  V30 28 1 28 29
M  V30 29 1 29 30
M  V30 30 1 30 31
M  V30 31 1 31 32
M  V30 32 1 32 33
M  V30 33 1 28 34
M  V30 34 1 34 35
M  V30 35 1 35 36
M  V30 36 1 20 2
M  V30 37 1 26 21
M  V30 38 1 33 28
M  V30 39 1 18 9
M  V30 40 1 36 24
M  V30 41 1 1 37
M  V30 42 1 1 38
M  V30 43 1 1 39
M  V30 44 1 3 40
M  V30 45 1 4 41
M  V30 46 1 6 42
M  V30 47 1 10 43
M  V30 48 1 11 44
M  V30 49 1 18 45
M  V30 50 1 19 46
M  V30 51 1 22 47
M  V30 52 1 23 48
M  V30 53 1 26 49
M  V30 54 1 29 50
M  V30 55 1 29 51
M  V30 56 1 30 52
M  V30 57 1 30 53
M  V30 58 1 32 54
M  V30 59 1 32 55
M  V30 60 1 33 56
M  V30 61 1 33 57
M  V30 62 1 34 58
M  V30 63 1 34 59
M  V30 64 1 35 60
M  V30 65 1 36 61
M  V30 66 1 36 62
M  V30 END BOND
M  V30 END CTAB
M  END
>  <Dataset>  (875) 
ChEMBL_Kinases

>  <Ligand_Instance>  (875) 
nan

>  <PDB_ID>  (875) 
nan

>  <Standardized_SMILES>  (875) 
Cc1ccc(NC(=O)c2ccnc(C(F)(F)F)c2)cc1-c1ccc2c(c1)OC1(CCOCC1)CNC2

>  <Name>  (875) 
nan

>  <Pocket>  (875) 
nan

>  <ATP_Site>  (875) 
nan

>  <Peripheral>  (875) 
nan

>  <Num_H_Atoms_ProtBoundConf>  (875) 
nan

>  <Num_Resolved_Atoms>  (875) 
nan

>  <Num_Not_Resolved_Atoms>  (875) 
nan

$$$$
CHEMBL578235
     RDKit          3D

  0  0  0  0  0  0  0  0  0  0999 V3000
M  V30 BEGIN CTAB
M  V30 COUNTS 53 56 0 0 0
M  V30 BEGIN ATOM
M  V30 1 C -3.311668 -4.023946 2.945694 0
M  V30 2 C -2.200072 -3.859452 1.972749 0
M  V30 3 C -0.929273 -3.370514 2.228845 0
M  V30 4 C 0.006048 -3.274809 1.221623 0
M  V30 5 O 1.199072 -2.779636 1.627438 0
M  V30 6 C 1.796441 -1.608058 1.250020 0
M  V30 7 C 3.094902 -1.542853 1.687501 0
M  V30 8 C 3.927968 -0.450681 1.438047 0
M  V30 9 N 3.395662 0.568612 0.730910 0
M  V30 10 C 2.145736 0.573719 0.276396 0
M  V30 11 N 1.430809 1.540102 -0.482468 0
M  V30 12 C 0.818644 2.654762 0.157266 0
M  V30 13 C 1.067204 2.951738 1.489419 0
M  V30 14 C 0.444707 4.047848 2.076813 0
M  V30 15 C -0.426618 4.873443 1.388828 0
M  V30 16 S -1.167701 6.233486 2.199451 0
M  V30 17 N -2.655203 5.790464 2.988614 0
M  V30 18 O -1.577151 7.302383 1.194199 0
M  V30 19 O -0.253962 6.879570 3.174625 0
M  V30 20 C -0.676947 4.576466 0.052036 0
M  V30 21 C -0.053149 3.475386 -0.542993 0
M  V30 22 C 1.308768 -0.520835 0.525704 0
M  V30 23 C -0.351153 -3.676878 -0.041573 0
M  V30 24 C 0.585715 -3.651013 -1.151395 0
M  V30 25 C 0.562622 -4.861383 -1.854850 0
M  V30 26 C 1.320252 -5.205077 -2.972824 0
M  V30 27 C 2.200253 -4.250597 -3.452623 0
M  V30 28 C 2.229441 -3.060553 -2.768651 0
M  V30 29 N 1.467692 -2.813248 -1.704665 0
M  V30 30 N -1.602714 -4.156886 -0.289600 0
M  V30 31 C -2.519417 -4.251444 0.690008 0
M  V30 32 C -3.870782 -4.793303 0.307374 0
M  V30 33 H -4.235753 -3.623019 2.459189 0
M  V30 34 H -3.490269 -5.097308 3.170463 0
M  V30 35 H -3.152696 -3.449116 3.875227 0
M  V30 36 H -0.790206 -3.095624 3.259218 0
M  V30 37 H 3.636368 -2.304590 2.267305 0
M  V30 38 H 4.955152 -0.348911 1.758898 0
M  V30 39 H 1.343505 1.447193 -1.515815 0
M  V30 40 H 1.752097 2.333274 2.088518 0
M  V30 41 H 0.664104 4.256612 3.133525 0
M  V30 42 H -2.874643 4.782885 2.827863 0
M  V30 43 H -2.617678 6.061507 4.000272 0
M  V30 44 H -1.364824 5.234814 -0.475852 0
M  V30 45 H -0.270016 3.276578 -1.576690 0
M  V30 46 H 0.273671 -0.666906 0.225383 0
M  V30 47 H -0.080957 -5.713689 -1.597742 0
M  V30 48 H 1.281851 -6.145338 -3.495713 0
M  V30 49 H 2.857138 -4.352291 -4.302145 0
M  V30 50 H 2.863259 -2.203101 -3.011628 0
M  V30 51 H -4.310431 -5.292563 1.192494 0
M  V30 52 H -3.737010 -5.475323 -0.542135 0
M  V30 53 H -4.522725 -3.955879 -0.034951 0
M  V30 END ATOM
M  V30 BEGIN BOND
M  V30 1 1 1 2
M  V30 2 2 2 3
M  V30 3 1 3 4
M  V30 4 1 4 5
M  V30 5 1 5 6
M  V30 6 2 6 7
M  V30 7 1 7 8
M  V30 8 2 8 9
M  V30 9 1 9 10
M  V30 10 1 10 11
M  V30 11 1 11 12
M  V30 12 2 12 13
M  V30 13 1 13 14
M  V30 14 2 14 15
M  V30 15 1 15 16
M  V30 16 1 16 17
M  V30 17 2 16 18
M  V30 18 2 16 19
M  V30 19 1 15 20
M  V30 20 2 20 21
M  V30 21 2 10 22
M  V30 22 2 4 23
M  V30 23 1 23 24
M  V30 24 2 24 25
M  V30 25 1 25 26
M  V30 26 2 26 27
M  V30 27 1 27 28
M  V30 28 2 28 29
M  V30 29 1 23 30
M  V30 30 2 30 31
M  V30 31 1 31 32
M  V30 32 1 31 2
M  V30 33 1 22 6
M  V30 34 1 29 24
M  V30 35 1 21 12
M  V30 36 1 1 33
M  V30 37 1 1 34
M  V30 38 1 1 35
M  V30 39 1 3 36
M  V30 40 1 7 37
M  V30 41 1 8 38
M  V30 42 1 11 39
M  V30 43 1 13 40
M  V30 44 1 14 41
M  V30 45 1 17 42
M  V30 46 1 17 43
M  V30 47 1 20 44
M  V30 48 1 21 45
M  V30 49 1 22 46
M  V30 50 1 25 47
M  V30 51 1 26 48
M  V30 52 1 27 49
M  V30 53 1 28 50
M  V30 54 1 32 51
M  V30 55 1 32 52
M  V30 56 1 32 53
M  V30 END BOND
M  V30 END CTAB
M  END
>  <Dataset>  (876) 
ChEMBL_Kinases

>  <Ligand_Instance>  (876) 
nan

>  <PDB_ID>  (876) 
nan

>  <Standardized_SMILES>  (876) 
Cc1cc(Oc2ccnc(Nc3ccc(S(N)(=O)=O)cc3)c2)c(-c2ccccn2)nc1C

>  <Name>  (876) 
nan

>  <Pocket>  (876) 
nan

>  <ATP_Site>  (876) 
nan

>  <Peripheral>  (876) 
nan

>  <Num_H_Atoms_ProtBoundConf>  (876) 
nan

>  <Num_Resolved_Atoms>  (876) 
nan

>  <Num_Not_Resolved_Atoms>  (876) 
nan

$$$$
CHEMBL5094319
     RDKit          3D

  0  0  0  0  0  0  0  0  0  0999 V3000
M  V30 BEGIN CTAB
M  V30 COUNTS 61 65 0 0 0
M  V30 BEGIN ATOM
M  V30 1 C 0.508893 -4.593766 6.245833 0
M  V30 2 O 0.335225 -3.835240 5.088699 0
M  V30 3 C 1.087540 -2.736959 4.706377 0
M  V30 4 C 2.149455 -2.150543 5.353882 0
M  V30 5 N 2.798759 -1.075834 4.871652 0
M  V30 6 C 2.392319 -0.542778 3.696669 0
M  V30 7 N 2.981552 0.627940 3.084101 0
M  V30 8 C 2.369480 1.205600 1.931426 0
M  V30 9 C 2.900302 2.359727 1.354990 0
M  V30 10 C 2.200683 2.875045 0.255757 0
M  V30 11 C 1.066639 2.223925 -0.169748 0
M  V30 12 N 0.271039 2.698561 -1.235130 0
M  V30 13 C 0.148683 4.137410 -1.529509 0
M  V30 14 C -1.276606 4.575016 -1.215528 0
M  V30 15 N -2.123825 3.398429 -1.025438 0
M  V30 16 C -1.940713 2.566280 -2.214753 0
M  V30 17 C -0.530778 1.992010 -2.209469 0
M  V30 18 C 0.563363 1.069794 0.426399 0
M  V30 19 N 1.253538 0.600375 1.476448 0
M  V30 20 N 1.377708 -1.114243 3.088119 0
M  V30 21 C 0.666785 -2.184430 3.481033 0
M  V30 22 C -0.408917 -2.641691 2.600019 0
M  V30 23 C -1.672886 -2.962161 2.980600 0
M  V30 24 C -2.552970 -3.407650 2.006375 0
M  V30 25 C -2.194231 -3.535248 0.680413 0
M  V30 26 N -3.033423 -3.969046 -0.246747 0
M  V30 27 C -2.639274 -4.088932 -1.533957 0
M  V30 28 C -1.351938 -3.766045 -1.937906 0
M  V30 29 N -0.820824 -3.867095 -3.251903 0
M  V30 30 C -1.247620 -2.826064 -4.169840 0
M  V30 31 C 0.082338 -4.990633 -3.491931 0
M  V30 32 N -0.491347 -3.317468 -0.976463 0
M  V30 33 C -0.914586 -3.206997 0.308742 0
M  V30 34 C -0.006541 -2.756903 1.260492 0
M  V30 35 H 1.547777 -4.428520 6.617939 0
M  V30 36 H 0.413396 -5.683712 6.063506 0
M  V30 37 H -0.158946 -4.259829 7.077466 0
M  V30 38 H 2.421382 -2.620821 6.280605 0
M  V30 39 H 3.836099 1.013592 3.499456 0
M  V30 40 H 3.784105 2.827913 1.721294 0
M  V30 41 H 2.523296 3.753199 -0.254429 0
M  V30 42 H 0.377040 4.363884 -2.587155 0
M  V30 43 H 0.836351 4.712556 -0.867104 0
M  V30 44 H -1.730426 5.154619 -2.044930 0
M  V30 45 H -1.336414 5.198698 -0.294418 0
M  V30 46 H -3.108908 3.744090 -1.047682 0
M  V30 47 H -2.125843 3.232310 -3.079923 0
M  V30 48 H -2.711787 1.782997 -2.197734 0
M  V30 49 H -0.094022 2.251912 -3.220754 0
M  V30 50 H -0.485275 0.912010 -2.087362 0
M  V30 51 H -0.322940 0.540972 0.112481 0
M  V30 52 H -1.896067 -2.841549 4.023875 0
M  V30 53 H -3.550282 -3.655945 2.325516 0
M  V30 54 H -3.266187 -4.439112 -2.363629 0
M  V30 55 H -0.709607 -1.887846 -3.911275 0
M  V30 56 H -2.352291 -2.719232 -4.173125 0
M  V30 57 H -0.898162 -3.094015 -5.209762 0
M  V30 58 H 0.815058 -4.981357 -2.630571 0
M  V30 59 H -0.480858 -5.941030 -3.527588 0
M  V30 60 H 0.714103 -4.844199 -4.398881 0
M  V30 61 H 0.983774 -2.512585 0.919907 0
M  V30 END ATOM
M  V30 BEGIN BOND
M  V30 1 1 1 2
M  V30 2 1 2 3
M  V30 3 2 3 4
M  V30 4 1 4 5
M  V30 5 2 5 6
M  V30 6 1 6 7
M  V30 7 1 7 8
M  V30 8 2 8 9
M  V30 9 1 9 10
M  V30 10 2 10 11
M  V30 11 1 11 12
M  V30 12 1 12 13
M  V30 13 1 13 14
M  V30 14 1 14 15
M  V30 15 1 15 16
M  V30 16 1 16 17
M  V30 17 1 11 18
M  V30 18 2 18 19
M  V30 19 1 6 20
M  V30 20 2 20 21
M  V30 21 1 21 22
M  V30 22 2 22 23
M  V30 23 1 23 24
M  V30 24 2 24 25
M  V30 25 1 25 26
M  V30 26 2 26 27
M  V30 27 1 27 28
M  V30 28 1 28 29
M  V30 29 1 29 30
M  V30 30 1 29 31
M  V30 31 2 28 32
M  V30 32 1 32 33
M  V30 33 2 33 34
M  V30 34 1 21 3
M  V30 35 1 34 22
M  V30 36 1 19 8
M  V30 37 1 33 25
M  V30 38 1 17 12
M  V30 39 1 1 35
M  V30 40 1 1 36
M  V30 41 1 1 37
M  V30 42 1 4 38
M  V30 43 1 7 39
M  V30 44 1 9 40
M  V30 45 1 10 41
M  V30 46 1 13 42
M  V30 47 1 13 43
M  V30 48 1 14 44
M  V30 49 1 14 45
M  V30 50 1 15 46
M  V30 51 1 16 47
M  V30 52 1 16 48
M  V30 53 1 17 49
M  V30 54 1 17 50
M  V30 55 1 18 51
M  V30 56 1 23 52
M  V30 57 1 24 53
M  V30 58 1 27 54
M  V30 59 1 30 55
M  V30 60 1 30 56
M  V30 61 1 30 57
M  V30 62 1 31 58
M  V30 63 1 31 59
M  V30 64 1 31 60
M  V30 65 1 34 61
M  V30 END BOND
M  V30 END CTAB
M  END
>  <Dataset>  (877) 
ChEMBL_Kinases

>  <Ligand_Instance>  (877) 
nan

>  <PDB_ID>  (877) 
nan

>  <Standardized_SMILES>  (877) 
COc1cnc(Nc2ccc(N3CCNCC3)cn2)nc1-c1ccc2ncc(N(C)C)nc2c1

>  <Name>  (877) 
nan

>  <Pocket>  (877) 
nan

>  <ATP_Site>  (877) 
nan

>  <Peripheral>  (877) 
nan

>  <Num_H_Atoms_ProtBoundConf>  (877) 
nan

>  <Num_Resolved_Atoms>  (877) 
nan

>  <Num_Not_Resolved_Atoms>  (877) 
nan

$$$$
CHEMBL5094428
     RDKit          3D

  0  0  0  0  0  0  0  0  0  0999 V3000
M  V30 BEGIN CTAB
M  V30 COUNTS 51 55 0 0 0
M  V30 BEGIN ATOM
M  V30 1 O 5.266954 -0.374551 0.753179 0
M  V30 2 C 4.031720 -0.191791 0.900955 0
M  V30 3 N 3.550370 -0.186123 2.237123 0
M  V30 4 C 4.307138 -0.364256 3.446249 0
M  V30 5 C 5.081575 0.854488 3.840604 0
M  V30 6 N 4.617907 1.847703 4.642603 0
M  V30 7 N 5.604483 2.738821 4.744048 0
M  V30 8 N 6.656142 2.339112 4.039972 0
M  V30 9 N 6.345778 1.194823 3.488593 0
M  V30 10 C 3.185540 -0.001370 -0.271382 0
M  V30 11 C 1.816328 -0.122339 -0.246704 0
M  V30 12 C 0.953495 0.046039 -1.314710 0
M  V30 13 C -0.488855 -0.124484 -1.192069 0
M  V30 14 C -1.062174 -0.450219 0.017389 0
M  V30 15 C -2.421891 -0.608504 -0.026015 0
M  V30 16 C -3.239987 -0.469662 -1.161369 0
M  V30 17 N -4.594118 -0.661488 -0.856728 0
M  V30 18 S -5.798965 -1.764913 -0.322088 0
M  V30 19 O -5.860903 -2.897451 -1.316162 0
M  V30 20 O -7.162462 -1.077477 -0.365158 0
M  V30 21 C -5.501877 -2.414774 1.259545 0
M  V30 22 C -6.133207 -2.189490 2.443634 0
M  V30 23 C -5.687637 -2.795801 3.610864 0
M  V30 24 C -4.592638 -3.651832 3.638568 0
M  V30 25 C -3.943014 -3.887028 2.427273 0
M  V30 26 Cl -2.577153 -4.978393 2.591122 0
M  V30 27 C -4.399407 -3.274713 1.265219 0
M  V30 28 Cl -3.393681 -3.829287 -0.090548 0
M  V30 29 C -2.612679 -0.138779 -2.348727 0
M  V30 30 C -1.247247 0.020327 -2.309656 0
M  V30 31 N 1.553591 0.360319 -2.482104 0
M  V30 32 C 2.916452 0.491002 -2.553629 0
M  V30 33 N 3.670915 0.791606 -3.624040 0
M  V30 34 N 4.970205 0.819460 -3.280227 0
M  V30 35 C 5.049072 0.528141 -1.950293 0
M  V30 36 C 3.770882 0.319207 -1.475223 0
M  V30 37 H 2.513724 -0.030059 2.370417 0
M  V30 38 H 3.649207 -0.591864 4.300774 0
M  V30 39 H 5.018283 -1.213366 3.298807 0
M  V30 40 H 7.575848 2.821779 3.927184 0
M  V30 41 H 1.442432 -0.376313 0.725029 0
M  V30 42 H -0.508029 -0.572550 0.925374 0
M  V30 43 H -2.838716 -0.866480 0.965959 0
M  V30 44 H -4.921247 0.330206 -1.062426 0
M  V30 45 H -6.966712 -1.524584 2.352717 0
M  V30 46 H -6.223192 -2.585161 4.520410 0
M  V30 47 H -4.303910 -4.086238 4.585366 0
M  V30 48 H -3.294520 -0.047350 -3.167155 0
M  V30 49 H -0.785102 0.280538 -3.260734 0
M  V30 50 H 3.314403 0.977856 -4.593869 0
M  V30 51 H 5.944583 0.460556 -1.323299 0
M  V30 END ATOM
M  V30 BEGIN BOND
M  V30 1 2 1 2
M  V30 2 1 2 3
M  V30 3 1 3 4
M  V30 4 1 4 5
M  V30 5 1 5 6
M  V30 6 2 6 7
M  V30 7 1 7 8
M  V30 8 1 8 9
M  V30 9 1 2 10
M  V30 10 2 10 11
M  V30 11 1 11 12
M  V30 12 1 12 13
M  V30 13 2 13 14
M  V30 14 1 14 15
M  V30 15 2 15 16
M  V30 16 1 16 17
M  V30 17 1 17 18
M  V30 18 2 18 19
M  V30 19 2 18 20
M  V30 20 1 18 21
M  V30 21 2 21 22
M  V30 22 1 22 23
M  V30 23 2 23 24
M  V30 24 1 24 25
M  V30 25 1 25 26
M  V30 26 2 25 27
M  V30 27 1 27 28
M  V30 28 1 16 29
M  V30 29 2 29 30
M  V30 30 2 12 31
M  V30 31 1 31 32
M  V30 32 1 32 33
M  V30 33 1 33 34
M  V30 34 2 34 35
M  V30 35 1 35 36
M  V30 36 2 9 5
M  V30 37 1 36 10
M  V30 38 1 30 13
M  V30 39 2 36 32
M  V30 40 1 27 21
M  V30 41 1 3 37
M  V30 42 1 4 38
M  V30 43 1 4 39
M  V30 44 1 8 40
M  V30 45 1 11 41
M  V30 46 1 14 42
M  V30 47 1 15 43
M  V30 48 1 17 44
M  V30 49 1 22 45
M  V30 50 1 23 46
M  V30 51 1 24 47
M  V30 52 1 29 48
M  V30 53 1 30 49
M  V30 54 1 33 50
M  V30 55 1 35 51
M  V30 END BOND
M  V30 END CTAB
M  END
>  <Dataset>  (878) 
ChEMBL_Kinases

>  <Ligand_Instance>  (878) 
nan

>  <PDB_ID>  (878) 
nan

>  <Standardized_SMILES>  (878) 
O=C(NCc1nn[nH]n1)c1cc(-c2ccc(NS(=O)(=O)c3cccc(Cl)c3Cl)cc2)nc2[nH]ncc12

>  <Name>  (878) 
nan

>  <Pocket>  (878) 
nan

>  <ATP_Site>  (878) 
nan

>  <Peripheral>  (878) 
nan

>  <Num_H_Atoms_ProtBoundConf>  (878) 
nan

>  <Num_Resolved_Atoms>  (878) 
nan

>  <Num_Not_Resolved_Atoms>  (878) 
nan

$$$$
CHEMBL5094430
     RDKit          3D

  0  0  0  0  0  0  0  0  0  0999 V3000
M  V30 BEGIN CTAB
M  V30 COUNTS 59 62 0 0 0
M  V30 BEGIN ATOM
M  V30 1 O 2.235002 2.333883 3.644917 0
M  V30 2 C 2.036857 1.241753 3.074077 0
M  V30 3 N 2.663934 0.149303 3.671199 0
M  V30 4 C 3.509402 -0.238025 4.745101 0
M  V30 5 C 4.911990 0.248123 4.791341 0
M  V30 6 N 5.004712 1.668877 4.826513 0
M  V30 7 C 6.403463 2.092380 5.084028 0
M  V30 8 C 6.359199 3.611879 5.103870 0
M  V30 9 O 5.896691 4.035739 3.864708 0
M  V30 10 C 1.204736 1.254618 1.899196 0
M  V30 11 C 0.726456 2.476196 1.479696 0
M  V30 12 C -0.096189 2.527729 0.344235 0
M  V30 13 C -0.469774 1.405831 -0.404444 0
M  V30 14 C 0.060698 0.230314 0.096296 0
M  V30 15 C 0.872456 0.111286 1.204301 0
M  V30 16 C -0.193881 -1.094266 -0.518773 0
M  V30 17 O 0.754582 -1.936946 -0.350509 0
M  V30 18 C -1.413454 -1.474275 -1.272835 0
M  V30 19 C -1.408098 -2.847126 -1.418663 0
M  V30 20 C -2.497815 -3.374428 -2.106669 0
M  V30 21 C -3.491144 -2.553661 -2.592234 0
M  V30 22 N -4.594346 -3.124291 -3.284764 0
M  V30 23 C -4.762954 -4.530115 -3.419656 0
M  V30 24 C -4.815535 -5.236165 -4.603005 0
M  V30 25 C -4.985589 -6.600450 -4.588611 0
M  V30 26 C -5.104222 -7.269086 -3.391444 0
M  V30 27 F -5.267960 -8.606659 -3.417968 0
M  V30 28 C -5.056804 -6.595354 -2.166616 0
M  V30 29 C -4.883438 -5.211791 -2.211260 0
M  V30 30 F -4.854512 -4.649573 -0.957538 0
M  V30 31 C -3.441951 -1.192572 -2.416627 0
M  V30 32 C -2.389873 -0.592695 -1.742684 0
M  V30 33 C -2.554523 0.854112 -1.677045 0
M  V30 34 C -1.334413 1.683763 -1.554000 0
M  V30 35 H 2.395916 -0.707732 3.081712 0
M  V30 36 H 3.475769 -1.361409 4.900566 0
M  V30 37 H 2.960369 0.157795 5.686372 0
M  V30 38 H 5.497989 -0.210884 5.624938 0
M  V30 39 H 5.454971 -0.132132 3.869723 0
M  V30 40 H 4.766973 2.069506 3.865906 0
M  V30 41 H 6.690349 1.644262 6.044133 0
M  V30 42 H 7.078043 1.758168 4.285336 0
M  V30 43 H 5.626347 3.888690 5.879586 0
M  V30 44 H 7.361772 4.047087 5.280137 0
M  V30 45 H 4.939367 4.289459 3.888130 0
M  V30 46 H 0.947229 3.411832 1.972614 0
M  V30 47 H -0.460784 3.499028 0.032046 0
M  V30 48 H 1.208211 -0.852823 1.476859 0
M  V30 49 H -0.595863 -3.431434 -1.012924 0
M  V30 50 H -2.483207 -4.454355 -2.217811 0
M  V30 51 H -5.326507 -2.524253 -3.722463 0
M  V30 52 H -4.715291 -4.641377 -5.505098 0
M  V30 53 H -5.018422 -7.092011 -5.554983 0
M  V30 54 H -5.154058 -7.160307 -1.245805 0
M  V30 55 H -4.237282 -0.539662 -2.805690 0
M  V30 56 H -3.041008 1.161421 -2.648881 0
M  V30 57 H -3.332581 1.096513 -0.909781 0
M  V30 58 H -1.651046 2.741444 -1.486519 0
M  V30 59 H -0.742090 1.529930 -2.502688 0
M  V30 END ATOM
M  V30 BEGIN BOND
M  V30 1 2 1 2
M  V30 2 1 2 3
M  V30 3 1 3 4
M  V30 4 1 4 5
M  V30 5 1 5 6
M  V30 6 1 6 7
M  V30 7 1 7 8
M  V30 8 1 8 9
M  V30 9 1 2 10
M  V30 10 2 10 11
M  V30 11 1 11 12
M  V30 12 2 12 13
M  V30 13 1 13 14
M  V30 14 2 14 15
M  V30 15 1 14 16
M  V30 16 2 16 17
M  V30 17 1 16 18
M  V30 18 2 18 19
M  V30 19 1 19 20
M  V30 20 2 20 21
M  V30 21 1 21 22
M  V30 22 1 22 23
M  V30 23 2 23 24
M  V30 24 1 24 25
M  V30 25 2 25 26
M  V30 26 1 26 27
M  V30 27 1 26 28
M  V30 28 2 28 29
M  V30 29 1 29 30
M  V30 30 1 21 31
M  V30 31 2 31 32
M  V30 32 1 32 33
M  V30 33 1 33 34
M  V30 34 1 15 10
M  V30 35 1 32 18
M  V30 36 1 34 13
M  V30 37 1 29 23
M  V30 38 1 3 35
M  V30 39 1 4 36
M  V30 40 1 4 37
M  V30 41 1 5 38
M  V30 42 1 5 39
M  V30 43 1 6 40
M  V30 44 1 7 41
M  V30 45 1 7 42
M  V30 46 1 8 43
M  V30 47 1 8 44
M  V30 48 1 9 45
M  V30 49 1 11 46
M  V30 50 1 12 47
M  V30 51 1 15 48
M  V30 52 1 19 49
M  V30 53 1 20 50
M  V30 54 1 22 51
M  V30 55 1 24 52
M  V30 56 1 25 53
M  V30 57 1 28 54
M  V30 58 1 31 55
M  V30 59 1 33 56
M  V30 60 1 33 57
M  V30 61 1 34 58
M  V30 62 1 34 59
M  V30 END BOND
M  V30 END CTAB
M  END
>  <Dataset>  (879) 
ChEMBL_Kinases

>  <Ligand_Instance>  (879) 
nan

>  <PDB_ID>  (879) 
nan

>  <Standardized_SMILES>  (879) 
O=C(NCCNCCO)c1ccc2c(c1)C(=O)c1ccc(Nc3ccc(F)cc3F)cc1CC2

>  <Name>  (879) 
nan

>  <Pocket>  (879) 
nan

>  <ATP_Site>  (879) 
nan

>  <Peripheral>  (879) 
nan

>  <Num_H_Atoms_ProtBoundConf>  (879) 
nan

>  <Num_Resolved_Atoms>  (879) 
nan

>  <Num_Not_Resolved_Atoms>  (879) 
nan

$$$$
CHEMBL578174
     RDKit          3D

  0  0  0  0  0  0  0  0  0  0999 V3000
M  V30 BEGIN CTAB
M  V30 COUNTS 44 48 0 0 0
M  V30 BEGIN ATOM
M  V30 1 C -0.901485 -1.344866 0.066742 0
M  V30 2 C 0.237980 -2.262035 -0.002172 0
M  V30 3 C 1.467510 -1.656855 -0.028721 0
M  V30 4 N 1.908433 -0.327546 -0.005473 0
M  V30 5 C 1.741266 0.871275 -0.742726 0
M  V30 6 C 2.440563 0.847458 -1.936815 0
M  V30 7 C 3.242475 -0.242570 -2.400819 0
M  V30 8 N 3.906085 -1.110682 -2.777402 0
M  V30 9 C 2.377297 1.948788 -2.763248 0
M  V30 10 N 1.645669 2.985303 -2.373963 0
M  V30 11 C 0.970008 3.000131 -1.212229 0
M  V30 12 C 0.980383 1.941710 -0.329224 0
M  V30 13 C 0.291477 1.940974 0.926505 0
M  V30 14 C 0.111826 1.176807 2.000320 0
M  V30 15 C -0.667198 1.595677 3.038819 0
M  V30 16 C -0.951239 0.917056 4.223684 0
M  V30 17 C -1.764436 1.518770 5.148195 0
M  V30 18 C -2.352830 2.757049 5.038496 0
M  V30 19 C -2.081220 3.438160 3.874298 0
M  V30 20 C -1.256991 2.839429 2.926427 0
M  V30 21 S -0.680117 3.378914 1.333515 0
M  V30 22 C 2.583656 -2.502961 -0.109390 0
M  V30 23 C 2.453230 -3.892454 -0.159889 0
M  V30 24 C 1.174041 -4.406921 -0.127182 0
M  V30 25 N 0.691991 -5.672086 -0.157801 0
M  V30 26 C -0.672248 -5.671682 -0.100889 0
M  V30 27 C -1.111232 -4.344714 -0.029386 0
M  V30 28 C 0.056518 -3.624340 -0.049203 0
M  V30 29 H -1.185107 -1.260083 1.136226 0
M  V30 30 H -1.774399 -1.856691 -0.408972 0
M  V30 31 H -0.702287 -0.409085 -0.449100 0
M  V30 32 H 2.592695 0.000492 0.742252 0
M  V30 33 H 2.882906 2.028326 -3.708748 0
M  V30 34 H 0.405873 3.896102 -0.994413 0
M  V30 35 H 0.620358 0.221396 1.975476 0
M  V30 36 H -0.558766 -0.083816 4.466518 0
M  V30 37 H -1.980426 0.972076 6.078926 0
M  V30 38 H -2.987149 3.196203 5.788930 0
M  V30 39 H -2.464739 4.411523 3.641570 0
M  V30 40 H 3.646032 -2.223573 -0.142500 0
M  V30 41 H 3.274684 -4.587627 -0.222194 0
M  V30 42 H 1.232212 -6.567776 -0.216245 0
M  V30 43 H -1.318097 -6.542890 -0.108888 0
M  V30 44 H -2.127316 -3.963188 0.028282 0
M  V30 END ATOM
M  V30 BEGIN BOND
M  V30 1 1 1 2
M  V30 2 2 2 3
M  V30 3 1 3 4
M  V30 4 1 4 5
M  V30 5 2 5 6
M  V30 6 1 6 7
M  V30 7 3 7 8
M  V30 8 1 6 9
M  V30 9 2 9 10
M  V30 10 1 10 11
M  V30 11 2 11 12
M  V30 12 1 12 13
M  V30 13 2 13 14
M  V30 14 1 14 15
M  V30 15 2 15 16
M  V30 16 1 16 17
M  V30 17 2 17 18
M  V30 18 1 18 19
M  V30 19 2 19 20
M  V30 20 1 20 21
M  V30 21 1 3 22
M  V30 22 2 22 23
M  V30 23 1 23 24
M  V30 24 1 24 25
M  V30 25 1 25 26
M  V30 26 2 26 27
M  V30 27 1 27 28
M  V30 28 1 28 2
M  V30 29 1 12 5
M  V30 30 1 21 13
M  V30 31 2 28 24
M  V30 32 1 20 15
M  V30 33 1 1 29
M  V30 34 1 1 30
M  V30 35 1 1 31
M  V30 36 1 4 32
M  V30 37 1 9 33
M  V30 38 1 11 34
M  V30 39 1 14 35
M  V30 40 1 16 36
M  V30 41 1 17 37
M  V30 42 1 18 38
M  V30 43 1 19 39
M  V30 44 1 22 40
M  V30 45 1 23 41
M  V30 46 1 25 42
M  V30 47 1 26 43
M  V30 48 1 27 44
M  V30 END BOND
M  V30 END CTAB
M  END
>  <Dataset>  (880) 
ChEMBL_Kinases

>  <Ligand_Instance>  (880) 
nan

>  <PDB_ID>  (880) 
nan

>  <Standardized_SMILES>  (880) 
Cc1c(Nc2c(C#N)cncc2-c2cc3ccccc3s2)ccc2[nH]ccc12

>  <Name>  (880) 
nan

>  <Pocket>  (880) 
nan

>  <ATP_Site>  (880) 
nan

>  <Peripheral>  (880) 
nan

>  <Num_H_Atoms_ProtBoundConf>  (880) 
nan

>  <Num_Resolved_Atoms>  (880) 
nan

>  <Num_Not_Resolved_Atoms>  (880) 
nan

$$$$
CHEMBL5094431
     RDKit          3D

  0  0  0  0  0  0  0  0  0  0999 V3000
M  V30 BEGIN CTAB
M  V30 COUNTS 79 83 0 0 0
M  V30 BEGIN ATOM
M  V30 1 C 0.499336 -1.640272 -4.349373 0
M  V30 2 C 1.638246 -1.641842 -3.307860 0
M  V30 3 C 1.043209 -2.094009 -2.004649 0
M  V30 4 C 2.615800 -2.673008 -3.852051 0
M  V30 5 O 2.157469 -0.355845 -3.313860 0
M  V30 6 C 3.134998 0.223642 -2.645373 0
M  V30 7 O 2.236051 -0.529191 -3.181465 0
M  V30 8 N 4.218985 0.220527 -1.663542 0
M  V30 9 C 4.834691 1.505643 -1.581860 0
M  V30 10 C 4.892668 2.048287 -0.164826 0
M  V30 11 N 4.908456 1.010027 0.815997 0
M  V30 12 C 5.503022 1.476059 2.038171 0
M  V30 13 C 4.507905 2.468972 2.648566 0
M  V30 14 N 3.281427 1.738379 2.885110 0
M  V30 15 C 1.968936 2.054743 3.361113 0
M  V30 16 O 1.841438 3.288224 3.640437 0
M  V30 17 C 0.975623 0.959881 3.449603 0
M  V30 18 C 1.476791 -0.282241 3.879234 0
M  V30 19 C 0.578166 -1.339035 3.918724 0
M  V30 20 C -0.785454 -1.236636 3.556558 0
M  V30 21 C -1.049795 0.045751 3.174199 0
M  V30 22 C -0.323100 1.194937 3.070067 0
M  V30 23 C -2.431357 0.365088 2.667242 0
M  V30 24 O -2.888570 1.565180 2.757749 0
M  V30 25 C -3.407076 -0.567866 2.020241 0
M  V30 26 C -4.161025 0.027346 1.064141 0
M  V30 27 C -5.030724 -0.752480 0.325321 0
M  V30 28 C -5.132197 -2.103118 0.552000 0
M  V30 29 N -5.991072 -2.888917 -0.304802 0
M  V30 30 C -6.470409 -2.125011 -1.446564 0
M  V30 31 C -7.861146 -1.998151 -1.622055 0
M  V30 32 C -8.228783 -1.207321 -2.694419 0
M  V30 33 C -7.416993 -0.549737 -3.593272 0
M  V30 34 F -7.839415 0.213391 -4.619593 0
M  V30 35 C -6.122088 -0.810031 -3.240851 0
M  V30 36 C -5.494763 -1.515824 -2.282541 0
M  V30 37 F -4.187843 -1.687178 -2.069393 0
M  V30 38 C -4.316288 -2.633815 1.572065 0
M  V30 39 C -3.402063 -1.928190 2.374809 0
M  V30 40 C -2.752564 -2.825644 3.329442 0
M  V30 41 C -1.365993 -2.550902 3.734183 0
M  V30 42 C 5.539488 -0.182965 0.348096 0
M  V30 43 C 4.775665 -0.785135 -0.779793 0
M  V30 44 H 0.990202 -1.286565 -5.288701 0
M  V30 45 H -0.159477 -0.805162 -4.019948 0
M  V30 46 H 0.035144 -2.618832 -4.445246 0
M  V30 47 H 0.036438 -2.587010 -2.150174 0
M  V30 48 H 0.978537 -1.328379 -1.229414 0
M  V30 49 H 1.693900 -2.924182 -1.561553 0
M  V30 50 H 3.031030 -2.205810 -4.770519 0
M  V30 51 H 2.042738 -3.568508 -4.186425 0
M  V30 52 H 3.391773 -2.945459 -3.110730 0
M  V30 53 H 4.353709 2.299769 -2.189088 0
M  V30 54 H 5.908117 1.346808 -1.919042 0
M  V30 55 H 5.816440 2.667762 -0.032985 0
M  V30 56 H 4.022627 2.712364 0.031641 0
M  V30 57 H 5.802227 0.693559 2.763708 0
M  V30 58 H 6.423007 2.093519 1.844251 0
M  V30 59 H 4.926584 2.861148 3.615391 0
M  V30 60 H 4.347992 3.265107 1.914626 0
M  V30 61 H 3.351779 0.702923 2.639881 0
M  V30 62 H 2.511949 -0.370728 4.150454 0
M  V30 63 H 1.080208 -2.258027 4.265780 0
M  V30 64 H -0.739980 2.112044 2.742788 0
M  V30 65 H -4.013262 1.088547 0.955430 0
M  V30 66 H -5.566406 -0.157138 -0.380840 0
M  V30 67 H -6.179899 -3.879473 -0.036353 0
M  V30 68 H -8.562252 -2.468834 -0.968339 0
M  V30 69 H -9.310162 -1.145877 -2.808672 0
M  V30 70 H -5.392257 -0.313340 -3.911611 0
M  V30 71 H -4.406894 -3.698486 1.754505 0
M  V30 72 H -3.416145 -2.901025 4.252962 0
M  V30 73 H -2.798152 -3.850365 2.891435 0
M  V30 74 H -1.297488 -2.763640 4.851644 0
M  V30 75 H -0.701470 -3.371597 3.316882 0
M  V30 76 H 5.495105 -0.918752 1.205311 0
M  V30 77 H 6.615392 -0.061919 0.101795 0
M  V30 78 H 5.449477 -1.395799 -1.440941 0
M  V30 79 H 3.990273 -1.496639 -0.409024 0
M  V30 END ATOM
M  V30 BEGIN BOND
M  V30 1 1 1 2
M  V30 2 1 2 3
M  V30 3 1 2 4
M  V30 4 1 2 5
M  V30 5 1 5 6
M  V30 6 2 6 7
M  V30 7 1 6 8
M  V30 8 1 8 9
M  V30 9 1 9 10
M  V30 10 1 10 11
M  V30 11 1 11 12
M  V30 12 1 12 13
M  V30 13 1 13 14
M  V30 14 1 14 15
M  V30 15 2 15 16
M  V30 16 1 15 17
M  V30 17 2 17 18
M  V30 18 1 18 19
M  V30 19 2 19 20
M  V30 20 1 20 21
M  V30 21 2 21 22
M  V30 22 1 21 23
M  V30 23 2 23 24
M  V30 24 1 23 25
M  V30 25 2 25 26
M  V30 26 1 26 27
M  V30 27 2 27 28
M  V30 28 1 28 29
M  V30 29 1 29 30
M  V30 30 2 30 31
M  V30 31 1 31 32
M  V30 32 2 32 33
M  V30 33 1 33 34
M  V30 34 1 33 35
M  V30 35 2 35 36
M  V30 36 1 36 37
M  V30 37 1 28 38
M  V30 38 2 38 39
M  V30 39 1 39 40
M  V30 40 1 40 41
M  V30 41 1 11 42
M  V30 42 1 42 43
M  V30 43 1 43 8
M  V30 44 1 22 17
M  V30 45 1 39 25
M  V30 46 1 41 20
M  V30 47 1 36 30
M  V30 48 1 1 44
M  V30 49 1 1 45
M  V30 50 1 1 46
M  V30 51 1 3 47
M  V30 52 1 3 48
M  V30 53 1 3 49
M  V30 54 1 4 50
M  V30 55 1 4 51
M  V30 56 1 4 52
M  V30 57 1 9 53
M  V30 58 1 9 54
M  V30 59 1 10 55
M  V30 60 1 10 56
M  V30 61 1 12 57
M  V30 62 1 12 58
M  V30 63 1 13 59
M  V30 64 1 13 60
M  V30 65 1 14 61
M  V30 66 1 18 62
M  V30 67 1 19 63
M  V30 68 1 22 64
M  V30 69 1 26 65
M  V30 70 1 27 66
M  V30 71 1 29 67
M  V30 72 1 31 68
M  V30 73 1 32 69
M  V30 74 1 35 70
M  V30 75 1 38 71
M  V30 76 1 40 72
M  V30 77 1 40 73
M  V30 78 1 41 74
M  V30 79 1 41 75
M  V30 80 1 42 76
M  V30 81 1 42 77
M  V30 82 1 43 78
M  V30 83 1 43 79
M  V30 END BOND
M  V30 END CTAB
M  END
>  <Dataset>  (881) 
ChEMBL_Kinases

>  <Ligand_Instance>  (881) 
nan

>  <PDB_ID>  (881) 
nan

>  <Standardized_SMILES>  (881) 
CC(C)(C)OC(=O)N1CCN(CCNC(=O)c2ccc3c(c2)C(=O)c2ccc(Nc4ccc(F)cc4F)cc2CC3)CC1

>  <Name>  (881) 
nan

>  <Pocket>  (881) 
nan

>  <ATP_Site>  (881) 
nan

>  <Peripheral>  (881) 
nan

>  <Num_H_Atoms_ProtBoundConf>  (881) 
nan

>  <Num_Resolved_Atoms>  (881) 
nan

>  <Num_Not_Resolved_Atoms>  (881) 
nan

$$$$
CHEMBL578348
     RDKit          3D

  0  0  0  0  0  0  0  0  0  0999 V3000
M  V30 BEGIN CTAB
M  V30 COUNTS 42 45 0 0 0
M  V30 BEGIN ATOM
M  V30 1 N 3.092692 -5.002449 2.078888 0
M  V30 2 C 3.291525 -3.875524 1.901404 0
M  V30 3 C 3.545957 -2.479880 1.684211 0
M  V30 4 C 4.717733 -1.889066 2.109010 0
M  V30 5 N 4.957325 -0.575930 1.904789 0
M  V30 6 C 4.027302 0.139831 1.278425 0
M  V30 7 C 2.825831 -0.347764 0.814006 0
M  V30 8 C 1.821503 0.457354 0.129706 0
M  V30 9 C 1.920227 1.745333 -0.136812 0
M  V30 10 C 0.919606 2.543764 -0.817681 0
M  V30 11 C -0.282877 2.061364 -1.283866 0
M  V30 12 C -1.237859 2.813475 -1.931273 0
M  V30 13 C -0.996555 4.153186 -2.141194 0
M  V30 14 C 0.195354 4.681848 -1.691441 0
M  V30 15 C 1.119623 3.885780 -1.048216 0
M  V30 16 C 2.621304 -1.684462 1.041004 0
M  V30 17 N 1.432498 -2.312139 0.616865 0
M  V30 18 C 0.216518 -2.462760 1.336766 0
M  V30 19 C 0.150105 -1.944991 2.612338 0
M  V30 20 C -1.056595 -2.121979 3.262163 0
M  V30 21 C -2.106176 -2.783382 2.634690 0
M  V30 22 C -3.405946 -3.115575 3.001948 0
M  V30 23 C -4.032413 -3.788350 1.974042 0
M  V30 24 N -3.145632 -3.880152 0.975038 0
M  V30 25 C -2.000723 -3.295700 1.337447 0
M  V30 26 C -0.790828 -3.125041 0.669925 0
M  V30 27 H 5.480459 -2.480586 2.623809 0
M  V30 28 H 4.268135 1.175870 1.142444 0
M  V30 29 H 0.912754 -0.031570 -0.192244 0
M  V30 30 H 2.826578 2.228461 0.185380 0
M  V30 31 H -0.527336 1.024113 -1.149322 0
M  V30 32 H -2.157972 2.390633 -2.274877 0
M  V30 33 H -1.712764 4.786264 -2.643581 0
M  V30 34 H 0.427165 5.727380 -1.834148 0
M  V30 35 H 2.044651 4.350822 -0.712528 0
M  V30 36 H 1.613805 -2.650073 -0.336598 0
M  V30 37 H 0.964301 -1.438759 3.083008 0
M  V30 38 H -1.234573 -1.758964 4.272560 0
M  V30 39 H -3.876097 -2.889314 3.948990 0
M  V30 40 H -5.031522 -4.194507 1.901903 0
M  V30 41 H -3.267643 -4.328334 0.029444 0
M  V30 42 H -0.664547 -3.500774 -0.324709 0
M  V30 END ATOM
M  V30 BEGIN BOND
M  V30 1 3 1 2
M  V30 2 1 2 3
M  V30 3 2 3 4
M  V30 4 1 4 5
M  V30 5 2 5 6
M  V30 6 1 6 7
M  V30 7 1 7 8
M  V30 8 2 8 9
M  V30 9 1 9 10
M  V30 10 2 10 11
M  V30 11 1 11 12
M  V30 12 2 12 13
M  V30 13 1 13 14
M  V30 14 2 14 15
M  V30 15 2 7 16
M  V30 16 1 16 17
M  V30 17 1 17 18
M  V30 18 2 18 19
M  V30 19 1 19 20
M  V30 20 2 20 21
M  V30 21 1 21 22
M  V30 22 2 22 23
M  V30 23 1 23 24
M  V30 24 1 24 25
M  V30 25 2 25 26
M  V30 26 1 16 3
M  V30 27 1 26 18
M  V30 28 1 15 10
M  V30 29 1 25 21
M  V30 30 1 4 27
M  V30 31 1 6 28
M  V30 32 1 8 29
M  V30 33 1 9 30
M  V30 34 1 11 31
M  V30 35 1 12 32
M  V30 36 1 13 33
M  V30 37 1 14 34
M  V30 38 1 15 35
M  V30 39 1 17 36
M  V30 40 1 19 37
M  V30 41 1 20 38
M  V30 42 1 22 39
M  V30 43 1 23 40
M  V30 44 1 24 41
M  V30 45 1 26 42
M  V30 END BOND
M  V30 END CTAB
M  END
>  <Dataset>  (882) 
ChEMBL_Kinases

>  <Ligand_Instance>  (882) 
nan

>  <PDB_ID>  (882) 
nan

>  <Standardized_SMILES>  (882) 
N#Cc1cncc(/C=C/c2ccccc2)c1Nc1ccc2cc[nH]c2c1

>  <Name>  (882) 
nan

>  <Pocket>  (882) 
nan

>  <ATP_Site>  (882) 
nan

>  <Peripheral>  (882) 
nan

>  <Num_H_Atoms_ProtBoundConf>  (882) 
nan

>  <Num_Resolved_Atoms>  (882) 
nan

>  <Num_Not_Resolved_Atoms>  (882) 
nan

$$$$
CHEMBL576349
     RDKit          3D

  0  0  0  0  0  0  0  0  0  0999 V3000
M  V30 BEGIN CTAB
M  V30 COUNTS 40 42 0 0 0
M  V30 BEGIN ATOM
M  V30 1 C -1.791155 -5.668555 1.651274 0
M  V30 2 O -0.668247 -5.243996 0.923781 0
M  V30 3 C -0.272155 -3.921805 0.848719 0
M  V30 4 C 0.832774 -3.569960 0.123180 0
M  V30 5 C 1.126949 -2.242472 0.120099 0
M  V30 6 O 2.247493 -1.828206 -0.606386 0
M  V30 7 C 3.059805 -2.723838 -1.317650 0
M  V30 8 C 0.447774 -1.205440 0.759114 0
M  V30 9 C 0.900766 0.169569 0.685092 0
M  V30 10 C 0.358074 1.305516 0.357537 0
M  V30 11 C -0.963051 1.702144 -0.089914 0
M  V30 12 O -1.933343 0.938091 -0.283744 0
M  V30 13 N -1.045954 3.091112 -0.294604 0
M  V30 14 C 0.245530 3.561529 0.030827 0
M  V30 15 C 0.756807 4.860612 0.015341 0
M  V30 16 C 2.065459 5.205083 0.362046 0
M  V30 17 C 2.902580 4.180670 0.745284 0
M  V30 18 C 2.409734 2.894484 0.764629 0
M  V30 19 C 1.103210 2.558379 0.417573 0
M  V30 20 C -0.667912 -1.653800 1.478854 0
M  V30 21 O -1.419651 -0.712681 2.160653 0
M  V30 22 C -2.545230 -1.141966 2.890595 0
M  V30 23 C -1.020791 -2.983607 1.522384 0
M  V30 24 H -1.773668 -5.254423 2.684570 0
M  V30 25 H -1.793342 -6.775871 1.734651 0
M  V30 26 H -2.742158 -5.360649 1.183532 0
M  V30 27 H 1.448181 -4.268580 -0.418897 0
M  V30 28 H 4.021856 -2.205896 -1.581005 0
M  V30 29 H 2.524767 -2.997144 -2.246960 0
M  V30 30 H 3.355627 -3.628617 -0.747143 0
M  V30 31 H 1.941632 0.124957 1.001610 0
M  V30 32 H -1.864540 3.651773 -0.612314 0
M  V30 33 H 0.100614 5.659917 -0.284727 0
M  V30 34 H 2.352554 6.245932 0.312670 0
M  V30 35 H 3.923246 4.416474 1.020030 0
M  V30 36 H 3.106088 2.107270 1.074803 0
M  V30 37 H -3.215715 -1.772189 2.251065 0
M  V30 38 H -3.173205 -0.278675 3.225978 0
M  V30 39 H -2.248993 -1.774853 3.757738 0
M  V30 40 H -1.888927 -3.308736 2.085541 0
M  V30 END ATOM
M  V30 BEGIN BOND
M  V30 1 1 1 2
M  V30 2 1 2 3
M  V30 3 2 3 4
M  V30 4 1 4 5
M  V30 5 1 5 6
M  V30 6 1 6 7
M  V30 7 2 5 8
M  V30 8 1 8 9
M  V30 9 2 9 10 CFG=2
M  V30 10 1 10 11
M  V30 11 2 11 12
M  V30 12 1 11 13
M  V30 13 1 13 14
M  V30 14 2 14 15
M  V30 15 1 15 16
M  V30 16 2 16 17
M  V30 17 1 17 18
M  V30 18 2 18 19
M  V30 19 1 8 20
M  V30 20 1 20 21
M  V30 21 1 21 22
M  V30 22 2 20 23
M  V30 23 1 23 3
M  V30 24 1 19 10
M  V30 25 1 19 14
M  V30 26 1 1 24
M  V30 27 1 1 25
M  V30 28 1 1 26
M  V30 29 1 4 27
M  V30 30 1 7 28
M  V30 31 1 7 29
M  V30 32 1 7 30
M  V30 33 1 9 31
M  V30 34 1 13 32
M  V30 35 1 15 33
M  V30 36 1 16 34
M  V30 37 1 17 35
M  V30 38 1 18 36
M  V30 39 1 22 37
M  V30 40 1 22 38
M  V30 41 1 22 39
M  V30 42 1 23 40
M  V30 END BOND
M  V30 END CTAB
M  END
>  <Dataset>  (883) 
ChEMBL_Kinases

>  <Ligand_Instance>  (883) 
nan

>  <PDB_ID>  (883) 
nan

>  <Standardized_SMILES>  (883) 
COc1cc(OC)c(C=C2C(=O)Nc3ccccc32)c(OC)c1

>  <Name>  (883) 
IC261

>  <Pocket>  (883) 
nan

>  <ATP_Site>  (883) 
nan

>  <Peripheral>  (883) 
nan

>  <Num_H_Atoms_ProtBoundConf>  (883) 
nan

>  <Num_Resolved_Atoms>  (883) 
nan

>  <Num_Not_Resolved_Atoms>  (883) 
nan

$$$$
CHEMBL510516
     RDKit          3D

  0  0  0  0  0  0  0  0  0  0999 V3000
M  V30 BEGIN CTAB
M  V30 COUNTS 76 80 0 0 0
M  V30 BEGIN ATOM
M  V30 1 C 1.174936 -1.827935 5.156859 0
M  V30 2 C 2.182253 -2.443018 4.195891 0
M  V30 3 C 2.761926 -1.429132 3.302384 0
M  V30 4 O 2.316277 -0.284113 3.537624 0
M  V30 5 N 3.707143 -1.625457 2.278572 0
M  V30 6 C 4.284709 -0.685804 1.405386 0
M  V30 7 C 5.179549 -1.134794 0.462475 0
M  V30 8 C 5.788614 -0.298404 -0.427529 0
M  V30 9 C 5.528201 1.036676 -0.415432 0
M  V30 10 N 6.133266 1.867727 -1.306342 0
M  V30 11 C 5.827028 3.191889 -1.244497 0
M  V30 12 N 4.973608 3.737366 -0.370952 0
M  V30 13 C 4.356169 2.926724 0.530022 0
M  V30 14 N 3.407447 3.292745 1.543104 0
M  V30 15 C 2.060528 3.118807 1.115764 0
M  V30 16 C 1.746335 2.861136 -0.200873 0
M  V30 17 C 0.419367 2.665567 -0.596944 0
M  V30 18 C -0.503486 2.753128 0.423049 0
M  V30 19 N -1.891771 2.542600 0.059182 0
M  V30 20 C -2.190997 1.142778 0.149531 0
M  V30 21 O -1.215026 0.398427 0.512565 0
M  V30 22 N -3.419914 0.445397 -0.105633 0
M  V30 23 C -3.486655 -0.979622 0.036689 0
M  V30 24 C -3.747353 -1.956739 0.974798 0
M  V30 25 C -3.603289 -3.159077 0.309465 0
M  V30 26 C -3.821416 -4.424141 1.057689 0
M  V30 27 C -3.608662 -5.602667 0.137029 0
M  V30 28 C -5.231080 -4.504296 1.591753 0
M  V30 29 C -2.865486 -4.531518 2.219400 0
M  V30 30 N -3.272390 -2.907015 -0.964808 0
M  V30 31 N -3.194987 -1.581115 -1.155773 0
M  V30 32 C -2.854293 -1.204133 -2.468684 0
M  V30 33 C -3.956849 -0.813184 -3.228803 0
M  V30 34 C -3.803061 -0.406232 -4.553122 0
M  V30 35 C -2.560021 -0.381002 -5.140718 0
M  V30 36 C -1.461281 -0.770113 -4.385051 0
M  V30 37 C -0.108910 -0.750712 -4.998575 0
M  V30 38 C -1.618677 -1.171588 -3.076437 0
M  V30 39 C -0.245834 3.009434 1.759060 0
M  V30 40 C 1.076754 3.194114 2.092321 0
M  V30 41 C 4.634601 1.554592 0.511331 0
M  V30 42 C 4.055435 0.666151 1.378365 0
M  V30 43 H 1.593958 -1.710673 6.184219 0
M  V30 44 H 0.930444 -0.807790 4.755392 0
M  V30 45 H 0.252390 -2.430793 5.251219 0
M  V30 46 H 1.691335 -3.243919 3.613766 0
M  V30 47 H 2.994679 -2.863851 4.842106 0
M  V30 48 H 3.966827 -2.629924 2.220769 0
M  V30 49 H 5.410944 -2.209213 0.427142 0
M  V30 50 H 6.476548 -0.741159 -1.131446 0
M  V30 51 H 6.303963 3.874889 -1.953975 0
M  V30 52 H 3.648653 3.647577 2.490912 0
M  V30 53 H 2.525864 2.803154 -0.969798 0
M  V30 54 H 0.110239 2.462008 -1.605927 0
M  V30 55 H -2.745240 3.080061 -0.249351 0
M  V30 56 H -4.176763 1.102846 -0.394094 0
M  V30 57 H -3.985557 -1.583391 1.938791 0
M  V30 58 H -3.176219 -6.422114 0.746853 0
M  V30 59 H -4.575887 -6.020897 -0.245330 0
M  V30 60 H -2.890699 -5.385702 -0.679906 0
M  V30 61 H -5.950354 -4.869911 0.813159 0
M  V30 62 H -5.264611 -5.263743 2.426227 0
M  V30 63 H -5.583026 -3.548230 2.033650 0
M  V30 64 H -2.687278 -3.512925 2.628849 0
M  V30 65 H -3.287153 -5.178523 3.001284 0
M  V30 66 H -1.901066 -4.961315 1.818437 0
M  V30 67 H -4.974718 -0.790573 -2.881448 0
M  V30 68 H -4.630096 -0.094149 -5.183071 0
M  V30 69 H -2.366430 -0.073935 -6.172154 0
M  V30 70 H 0.629424 -0.738911 -4.183396 0
M  V30 71 H 0.071953 -1.645038 -5.633302 0
M  V30 72 H 0.016515 0.192131 -5.573527 0
M  V30 73 H -0.811189 -1.483298 -2.442269 0
M  V30 74 H -1.052390 3.056335 2.478454 0
M  V30 75 H 1.340750 3.400274 3.133320 0
M  V30 76 H 3.374087 1.077429 2.081760 0
M  V30 END ATOM
M  V30 BEGIN BOND
M  V30 1 1 1 2
M  V30 2 1 2 3
M  V30 3 2 3 4
M  V30 4 1 3 5
M  V30 5 1 5 6
M  V30 6 2 6 7
M  V30 7 1 7 8
M  V30 8 2 8 9
M  V30 9 1 9 10
M  V30 10 2 10 11
M  V30 11 1 11 12
M  V30 12 2 12 13
M  V30 13 1 13 14
M  V30 14 1 14 15
M  V30 15 2 15 16
M  V30 16 1 16 17
M  V30 17 2 17 18
M  V30 18 1 18 19
M  V30 19 1 19 20
M  V30 20 2 20 21
M  V30 21 1 20 22
M  V30 22 1 22 23
M  V30 23 2 23 24
M  V30 24 1 24 25
M  V30 25 1 25 26
M  V30 26 1 26 27
M  V30 27 1 26 28
M  V30 28 1 26 29
M  V30 29 2 25 30
M  V30 30 1 30 31
M  V30 31 1 31 32
M  V30 32 2 32 33
M  V30 33 1 33 34
M  V30 34 2 34 35
M  V30 35 1 35 36
M  V30 36 1 36 37
M  V30 37 2 36 38
M  V30 38 1 18 39
M  V30 39 2 39 40
M  V30 40 1 13 41
M  V30 41 2 41 42
M  V30 42 1 42 6
M  V30 43 1 41 9
M  V30 44 1 40 15
M  V30 45 1 31 23
M  V30 46 1 38 32
M  V30 47 1 1 43
M  V30 48 1 1 44
M  V30 49 1 1 45
M  V30 50 1 2 46
M  V30 51 1 2 47
M  V30 52 1 5 48
M  V30 53 1 7 49
M  V30 54 1 8 50
M  V30 55 1 11 51
M  V30 56 1 14 52
M  V30 57 1 16 53
M  V30 58 1 17 54
M  V30 59 1 19 55
M  V30 60 1 22 56
M  V30 61 1 24 57
M  V30 62 1 27 58
M  V30 63 1 27 59
M  V30 64 1 27 60
M  V30 65 1 28 61
M  V30 66 1 28 62
M  V30 67 1 28 63
M  V30 68 1 29 64
M  V30 69 1 29 65
M  V30 70 1 29 66
M  V30 71 1 33 67
M  V30 72 1 34 68
M  V30 73 1 35 69
M  V30 74 1 37 70
M  V30 75 1 37 71
M  V30 76 1 37 72
M  V30 77 1 38 73
M  V30 78 1 39 74
M  V30 79 1 40 75
M  V30 80 1 42 76
M  V30 END BOND
M  V30 END CTAB
M  END
>  <Dataset>  (884) 
ChEMBL_Kinases

>  <Ligand_Instance>  (884) 
nan

>  <PDB_ID>  (884) 
nan

>  <Standardized_SMILES>  (884) 
CCC(=O)Nc1ccc2ncnc(Nc3ccc(NC(=O)Nc4cc(C(C)(C)C)nn4-c4cccc(C)c4)cc3)c2c1

>  <Name>  (884) 
nan

>  <Pocket>  (884) 
nan

>  <ATP_Site>  (884) 
nan

>  <Peripheral>  (884) 
nan

>  <Num_H_Atoms_ProtBoundConf>  (884) 
nan

>  <Num_Resolved_Atoms>  (884) 
nan

>  <Num_Not_Resolved_Atoms>  (884) 
nan

$$$$
CHEMBL374440
     RDKit          3D

  0  0  0  0  0  0  0  0  0  0999 V3000
M  V30 BEGIN CTAB
M  V30 COUNTS 48 51 0 0 0
M  V30 BEGIN ATOM
M  V30 1 C -1.062068 -3.945518 6.606935 0
M  V30 2 O -1.643042 -3.455927 5.412585 0
M  V30 3 C -0.843250 -3.232412 4.302898 0
M  V30 4 C 0.517439 -3.445319 4.233305 0
M  V30 5 C 1.269299 -3.206765 3.102898 0
M  V30 6 N 2.590616 -3.348688 2.834626 0
M  V30 7 C 2.785854 -2.961596 1.543594 0
M  V30 8 N 1.601384 -2.593186 1.044243 0
M  V30 9 C 1.441709 -2.115533 -0.341555 0
M  V30 10 C 1.600396 -0.781740 -0.772674 0
M  V30 11 C 1.418825 -0.511813 -2.078389 0
M  V30 12 O 1.516634 0.689874 -2.729649 0
M  V30 13 C 1.811406 1.950045 -2.289133 0
M  V30 14 C 0.926918 2.558239 -1.293534 0
M  V30 15 C 1.228122 2.725314 0.047404 0
M  V30 16 C 0.420915 3.301679 1.003600 0
M  V30 17 C -0.814440 3.763797 0.601103 0
M  V30 18 C -1.143459 3.611597 -0.728544 0
M  V30 19 C -0.310383 3.022730 -1.688731 0
M  V30 20 C -0.829324 2.949085 -3.062507 0
M  V30 21 F -0.071250 3.621375 -3.987758 0
M  V30 22 F -2.107747 3.462061 -3.156581 0
M  V30 23 F -0.920159 1.641165 -3.518783 0
M  V30 24 C 1.086342 -1.567431 -2.916555 0
M  V30 25 C 0.821899 -1.676080 -4.311209 0
M  V30 26 N 0.617063 -1.746622 -5.444859 0
M  V30 27 S 1.018917 -2.971648 -1.894360 0
M  V30 28 C 0.651290 -2.734759 1.984119 0
M  V30 29 C -0.705902 -2.491974 1.960537 0
M  V30 30 C -1.419638 -2.749836 3.129656 0
M  V30 31 O -2.783600 -2.520060 3.148978 0
M  V30 32 C -3.497190 -2.031074 2.030885 0
M  V30 33 H -0.505159 -3.166161 7.166563 0
M  V30 34 H -1.885651 -4.276167 7.275694 0
M  V30 35 H -0.372450 -4.796579 6.366272 0
M  V30 36 H 1.003981 -3.819347 5.121491 0
M  V30 37 H 3.760719 -2.981560 1.085533 0
M  V30 38 H 1.864185 -0.049471 -0.025620 0
M  V30 39 H 2.886141 1.977233 -1.953039 0
M  V30 40 H 1.816296 2.625808 -3.195038 0
M  V30 41 H 2.221519 2.346240 0.339231 0
M  V30 42 H 0.735653 3.392716 2.032819 0
M  V30 43 H -1.507577 4.228393 1.286761 0
M  V30 44 H -2.134157 3.986088 -1.034521 0
M  V30 45 H -1.194995 -2.118913 1.076990 0
M  V30 46 H -2.964068 -1.204766 1.524896 0
M  V30 47 H -3.666141 -2.885335 1.345298 0
M  V30 48 H -4.487847 -1.634371 2.308853 0
M  V30 END ATOM
M  V30 BEGIN BOND
M  V30 1 1 1 2
M  V30 2 1 2 3
M  V30 3 2 3 4
M  V30 4 1 4 5
M  V30 5 1 5 6
M  V30 6 2 6 7
M  V30 7 1 7 8
M  V30 8 1 8 9
M  V30 9 2 9 10
M  V30 10 1 10 11
M  V30 11 1 11 12
M  V30 12 1 12 13
M  V30 13 1 13 14
M  V30 14 2 14 15
M  V30 15 1 15 16
M  V30 16 2 16 17
M  V30 17 1 17 18
M  V30 18 2 18 19
M  V30 19 1 19 20
M  V30 20 1 20 21
M  V30 21 1 20 22
M  V30 22 1 20 23
M  V30 23 2 11 24
M  V30 24 1 24 25
M  V30 25 3 25 26
M  V30 26 1 24 27
M  V30 27 1 8 28
M  V30 28 1 28 29
M  V30 29 2 29 30
M  V30 30 1 30 31
M  V30 31 1 31 32
M  V30 32 1 30 3
M  V30 33 2 28 5
M  V30 34 1 27 9
M  V30 35 1 19 14
M  V30 36 1 1 33
M  V30 37 1 1 34
M  V30 38 1 1 35
M  V30 39 1 4 36
M  V30 40 1 7 37
M  V30 41 1 10 38
M  V30 42 1 13 39
M  V30 43 1 13 40
M  V30 44 1 15 41
M  V30 45 1 16 42
M  V30 46 1 17 43
M  V30 47 1 18 44
M  V30 48 1 29 45
M  V30 49 1 32 46
M  V30 50 1 32 47
M  V30 51 1 32 48
M  V30 END BOND
M  V30 END CTAB
M  END
>  <Dataset>  (885) 
ChEMBL_Kinases

>  <Ligand_Instance>  (885) 
nan

>  <PDB_ID>  (885) 
nan

>  <Standardized_SMILES>  (885) 
COc1cc2ncn(-c3cc(OCc4ccccc4C(F)(F)F)c(C#N)s3)c2cc1OC

>  <Name>  (885) 
nan

>  <Pocket>  (885) 
nan

>  <ATP_Site>  (885) 
nan

>  <Peripheral>  (885) 
nan

>  <Num_H_Atoms_ProtBoundConf>  (885) 
nan

>  <Num_Resolved_Atoms>  (885) 
nan

>  <Num_Not_Resolved_Atoms>  (885) 
nan

$$$$
CHEMBL510545
     RDKit          3D

  0  0  0  0  0  0  0  0  0  0999 V3000
M  V30 BEGIN CTAB
M  V30 COUNTS 41 44 0 0 0
M  V30 BEGIN ATOM
M  V30 1 O 3.760889 -5.381758 -2.502624 0
M  V30 2 C 3.126649 -5.424357 -1.433558 0
M  V30 3 N 2.992265 -6.594877 -0.657384 0
M  V30 4 C 1.832700 -6.717704 0.207307 0
M  V30 5 C 1.660133 -5.468457 1.012673 0
M  V30 6 C 1.787803 -4.224566 0.212841 0
M  V30 7 N 1.279498 -3.031683 0.488897 0
M  V30 8 C 1.621935 -2.167539 -0.486409 0
M  V30 9 C 1.290141 -0.727463 -0.619386 0
M  V30 10 C 1.721621 0.049829 -1.700541 0
M  V30 11 C 1.340644 1.395999 -1.707934 0
M  V30 12 N 0.583550 1.912402 -0.700853 0
M  V30 13 C 0.178148 1.148411 0.330897 0
M  V30 14 C -0.636672 1.737896 1.398691 0
M  V30 15 C -0.977371 3.008476 1.360259 0
M  V30 16 C -1.770780 3.665489 2.360671 0
M  V30 17 C -2.271872 3.050956 3.479908 0
M  V30 18 C -3.038799 3.707626 4.436717 0
M  V30 19 C -3.316062 5.046956 4.260927 0
M  V30 20 C -2.838287 5.720366 3.152358 0
M  V30 21 C -2.085023 5.003064 2.246839 0
M  V30 22 C 0.528803 -0.181520 0.380734 0
M  V30 23 C 2.379342 -2.868252 -1.407365 0
M  V30 24 C 2.506286 -4.197905 -0.987999 0
M  V30 25 H 3.737551 -7.336931 -0.733175 0
M  V30 26 H 2.047317 -7.539539 0.924369 0
M  V30 27 H 0.953154 -6.978116 -0.400699 0
M  V30 28 H 2.494622 -5.472774 1.770111 0
M  V30 29 H 0.706665 -5.508454 1.570342 0
M  V30 30 H 0.700838 -2.734532 1.305247 0
M  V30 31 H 2.311039 -0.433657 -2.446033 0
M  V30 32 H 1.697822 1.954203 -2.562564 0
M  V30 33 H -0.957124 1.116246 2.222761 0
M  V30 34 H -0.619273 3.564989 0.504821 0
M  V30 35 H -2.082501 2.013035 3.658283 0
M  V30 36 H -3.425501 3.199351 5.316557 0
M  V30 37 H -3.913803 5.539096 5.015968 0
M  V30 38 H -3.049690 6.767170 3.006177 0
M  V30 39 H -1.721966 5.558871 1.383543 0
M  V30 40 H 0.170981 -0.737329 1.235293 0
M  V30 41 H 2.847163 -2.529068 -2.341585 0
M  V30 END ATOM
M  V30 BEGIN BOND
M  V30 1 2 1 2
M  V30 2 1 2 3
M  V30 3 1 3 4
M  V30 4 1 4 5
M  V30 5 1 5 6
M  V30 6 1 6 7
M  V30 7 1 7 8
M  V30 8 1 8 9
M  V30 9 2 9 10
M  V30 10 1 10 11
M  V30 11 2 11 12
M  V30 12 1 12 13
M  V30 13 1 13 14
M  V30 14 2 14 15
M  V30 15 1 15 16
M  V30 16 2 16 17
M  V30 17 1 17 18
M  V30 18 2 18 19
M  V30 19 1 19 20
M  V30 20 2 20 21
M  V30 21 2 13 22
M  V30 22 2 8 23
M  V30 23 1 23 24
M  V30 24 1 24 2
M  V30 25 2 24 6
M  V30 26 1 22 9
M  V30 27 1 21 16
M  V30 28 1 3 25
M  V30 29 1 4 26
M  V30 30 1 4 27
M  V30 31 1 5 28
M  V30 32 1 5 29
M  V30 33 1 7 30
M  V30 34 1 10 31
M  V30 35 1 11 32
M  V30 36 1 14 33
M  V30 37 1 15 34
M  V30 38 1 17 35
M  V30 39 1 18 36
M  V30 40 1 19 37
M  V30 41 1 20 38
M  V30 42 1 21 39
M  V30 43 1 22 40
M  V30 44 1 23 41
M  V30 END BOND
M  V30 END CTAB
M  END
>  <Dataset>  (886) 
ChEMBL_Kinases

>  <Ligand_Instance>  (886) 
nan

>  <PDB_ID>  (886) 
nan

>  <Standardized_SMILES>  (886) 
O=C1NCCc2[nH]c(-c3ccnc(/C=C/c4ccccc4)c3)cc21

>  <Name>  (886) 
nan

>  <Pocket>  (886) 
nan

>  <ATP_Site>  (886) 
nan

>  <Peripheral>  (886) 
nan

>  <Num_H_Atoms_ProtBoundConf>  (886) 
nan

>  <Num_Resolved_Atoms>  (886) 
nan

>  <Num_Not_Resolved_Atoms>  (886) 
nan

$$$$
CHEMBL510555
     RDKit          3D

  0  0  0  0  0  0  0  0  0  0999 V3000
M  V30 BEGIN CTAB
M  V30 COUNTS 62 63 0 0 0
M  V30 BEGIN ATOM
M  V30 1 C -0.186985 -1.623613 4.606027 0
M  V30 2 C 0.700456 -0.567109 3.949647 0
M  V30 3 C 2.100931 -1.076163 3.761399 0
M  V30 4 C 3.023236 -0.112013 3.151129 0
M  V30 5 C 2.799035 0.409469 1.796578 0
M  V30 6 C 2.761993 -0.529141 0.657467 0
M  V30 7 C 1.744545 -1.605919 0.637633 0
M  V30 8 C 1.815161 1.551274 1.705476 0
M  V30 9 O 1.275899 2.118104 2.684131 0
M  V30 10 O 1.604796 1.871708 0.390716 0
M  V30 11 C 0.737876 2.893544 -0.012000 0
M  V30 12 C -0.699056 2.736275 0.325706 0
M  V30 13 C -1.427682 3.952640 -0.285012 0
M  V30 14 O -1.028724 5.092938 0.361914 0
M  V30 15 C -1.263198 1.472373 -0.336378 0
M  V30 16 C -1.936589 0.784699 0.810862 0
M  V30 17 C -2.308097 -0.505622 0.851778 0
M  V30 18 C -2.128422 -1.486731 -0.210761 0
M  V30 19 C -2.259163 -1.342584 -1.559225 0
M  V30 20 C -2.044706 -2.393774 -2.426802 0
M  V30 21 C -1.686523 -3.652535 -1.994752 0
M  V30 22 N -1.469820 -4.724419 -2.901285 0
M  V30 23 C -1.623756 -4.519153 -4.328345 0
M  V30 24 C -1.093741 -6.024982 -2.383524 0
M  V30 25 C -1.543769 -3.840295 -0.635717 0
M  V30 26 C -1.762711 -2.775812 0.212790 0
M  V30 27 C -2.104394 1.776537 1.867037 0
M  V30 28 O -3.073763 1.709091 2.672604 0
M  V30 29 O -1.010315 2.638081 1.676724 0
M  V30 30 H -0.388732 -2.440047 3.895371 0
M  V30 31 H -1.168104 -1.121493 4.812884 0
M  V30 32 H 0.220720 -1.978148 5.556660 0
M  V30 33 H 0.171421 -0.274608 3.030624 0
M  V30 34 H 0.696882 0.290215 4.683824 0
M  V30 35 H 2.021218 -2.050493 3.232557 0
M  V30 36 H 2.450996 -1.383082 4.799151 0
M  V30 37 H 4.059675 -0.580923 3.174119 0
M  V30 38 H 3.153469 0.763369 3.845729 0
M  V30 39 H 3.792447 1.011957 1.595765 0
M  V30 40 H 2.611040 0.053005 -0.306876 0
M  V30 41 H 3.811321 -0.940115 0.505881 0
M  V30 42 H 0.818821 -1.452255 1.169755 0
M  V30 43 H 1.419999 -1.860505 -0.426452 0
M  V30 44 H 2.286241 -2.559847 0.928274 0
M  V30 45 H 1.090643 3.900901 0.339695 0
M  V30 46 H 0.810877 2.959300 -1.128174 0
M  V30 47 H -2.530340 3.790695 -0.287091 0
M  V30 48 H -1.106112 3.992352 -1.336954 0
M  V30 49 H -1.077491 5.848671 -0.302738 0
M  V30 50 H -0.440636 0.891918 -0.772657 0
M  V30 51 H -2.062906 1.774625 -1.022888 0
M  V30 52 H -2.800492 -0.866300 1.772225 0
M  V30 53 H -2.537471 -0.373236 -1.895850 0
M  V30 54 H -2.173504 -2.178818 -3.479670 0
M  V30 55 H -1.093211 -5.289209 -4.921936 0
M  V30 56 H -2.704866 -4.560809 -4.596290 0
M  V30 57 H -1.186703 -3.534944 -4.631103 0
M  V30 58 H -1.897669 -6.503416 -1.790750 0
M  V30 59 H -0.814599 -6.727880 -3.182297 0
M  V30 60 H -0.247881 -5.856189 -1.666113 0
M  V30 61 H -1.264021 -4.808053 -0.236497 0
M  V30 62 H -1.634729 -2.985746 1.279716 0
M  V30 END ATOM
M  V30 BEGIN BOND
M  V30 1 1 1 2
M  V30 2 1 2 3
M  V30 3 1 3 4
M  V30 4 1 4 5
M  V30 5 1 5 6
M  V30 6 1 6 7
M  V30 7 1 5 8
M  V30 8 2 8 9
M  V30 9 1 8 10
M  V30 10 1 10 11
M  V30 11 1 11 12
M  V30 12 1 12 13
M  V30 13 1 13 14
M  V30 14 1 12 15
M  V30 15 1 15 16
M  V30 16 2 16 17
M  V30 17 1 17 18
M  V30 18 2 18 19
M  V30 19 1 19 20
M  V30 20 2 20 21
M  V30 21 1 21 22
M  V30 22 1 22 23
M  V30 23 1 22 24
M  V30 24 1 21 25
M  V30 25 2 25 26
M  V30 26 1 16 27
M  V30 27 2 27 28
M  V30 28 1 27 29
M  V30 29 1 29 12
M  V30 30 1 26 18
M  V30 31 1 1 30
M  V30 32 1 1 31
M  V30 33 1 1 32
M  V30 34 1 2 33
M  V30 35 1 2 34
M  V30 36 1 3 35
M  V30 37 1 3 36
M  V30 38 1 4 37
M  V30 39 1 4 38
M  V30 40 1 5 39
M  V30 41 1 6 40
M  V30 42 1 6 41
M  V30 43 1 7 42
M  V30 44 1 7 43
M  V30 45 1 7 44
M  V30 46 1 11 45
M  V30 47 1 11 46
M  V30 48 1 13 47
M  V30 49 1 13 48
M  V30 50 1 14 49
M  V30 51 1 15 50
M  V30 52 1 15 51
M  V30 53 1 17 52
M  V30 54 1 19 53
M  V30 55 1 20 54
M  V30 56 1 23 55
M  V30 57 1 23 56
M  V30 58 1 23 57
M  V30 59 1 24 58
M  V30 60 1 24 59
M  V30 61 1 24 60
M  V30 62 1 25 61
M  V30 63 1 26 62
M  V30 END BOND
M  V30 END CTAB
M  END
>  <Dataset>  (887) 
ChEMBL_Kinases

>  <Ligand_Instance>  (887) 
nan

>  <PDB_ID>  (887) 
nan

>  <Standardized_SMILES>  (887) 
CCCCC(CC)C(=O)OCC1(CO)C/C(=C\c2ccc(N(C)C)cc2)C(=O)O1

>  <Name>  (887) 
nan

>  <Pocket>  (887) 
nan

>  <ATP_Site>  (887) 
nan

>  <Peripheral>  (887) 
nan

>  <Num_H_Atoms_ProtBoundConf>  (887) 
nan

>  <Num_Resolved_Atoms>  (887) 
nan

>  <Num_Not_Resolved_Atoms>  (887) 
nan

$$$$
CHEMBL374417
     RDKit          3D

  0  0  0  0  0  0  0  0  0  0999 V3000
M  V30 BEGIN CTAB
M  V30 COUNTS 45 47 0 0 0
M  V30 BEGIN ATOM
M  V30 1 N 6.412973 -2.078560 0.451617 0
M  V30 2 C 5.398758 -2.375396 0.916950 0
M  V30 3 C 4.155365 -2.763759 1.499979 0
M  V30 4 N 3.761678 -3.847925 2.179306 0
M  V30 5 C 2.453551 -3.853093 2.585344 0
M  V30 6 C 1.525962 -2.862437 2.362021 0
M  V30 7 N 1.949886 -1.794116 1.681126 0
M  V30 8 C 3.229050 -1.779112 1.278516 0
M  V30 9 O 3.061074 -0.546991 0.693377 0
M  V30 10 C 2.808423 -0.409755 -0.665576 0
M  V30 11 C 2.599785 1.021145 -1.041652 0
M  V30 12 C 1.413343 1.618421 -0.376424 0
M  V30 13 C 1.522930 1.837691 1.078909 0
M  V30 14 C 0.274624 2.407219 1.720380 0
M  V30 15 C -0.893997 1.473948 1.751954 0
M  V30 16 O -1.346628 0.987958 0.542378 0
M  V30 17 C -2.377215 0.128885 0.279081 0
M  V30 18 C -3.181904 0.657390 -0.706195 0
M  V30 19 C -4.323552 0.032285 -1.210599 0
M  V30 20 C -4.656161 -1.192947 -0.679660 0
M  V30 21 Cl -6.085138 -2.004135 -1.291450 0
M  V30 22 C -3.842991 -1.715800 0.308734 0
M  V30 23 C -2.732857 -1.099405 0.793656 0
M  V30 24 N -2.103462 -1.867082 1.801892 0
M  V30 25 C -0.764701 -2.264921 2.034148 0
M  V30 26 O -0.612638 -1.618915 0.968801 0
M  V30 27 N 0.185421 -2.946511 2.832673 0
M  V30 28 H 2.103717 -4.714888 3.134290 0
M  V30 29 H 1.884115 -0.988609 -0.970434 0
M  V30 30 H 3.689597 -0.846285 -1.227193 0
M  V30 31 H 2.463325 1.039103 -2.158299 0
M  V30 32 H 3.545398 1.599841 -0.843937 0
M  V30 33 H 1.254354 2.621168 -0.861964 0
M  V30 34 H 0.532637 0.979609 -0.665739 0
M  V30 35 H 2.385012 2.539085 1.258568 0
M  V30 36 H 1.771462 0.950037 1.689928 0
M  V30 37 H 0.557268 2.624802 2.770276 0
M  V30 38 H -0.029158 3.366216 1.250325 0
M  V30 39 H -0.665218 0.644020 2.493308 0
M  V30 40 H -1.715873 2.039406 2.299225 0
M  V30 41 H -3.023582 1.624899 -1.208593 0
M  V30 42 H -4.955895 0.453982 -1.989079 0
M  V30 43 H -4.203333 -2.684610 0.652254 0
M  V30 44 H -2.639886 -2.280902 2.591419 0
M  V30 45 H 0.043312 -3.483961 3.716505 0
M  V30 END ATOM
M  V30 BEGIN BOND
M  V30 1 3 1 2
M  V30 2 1 2 3
M  V30 3 2 3 4
M  V30 4 1 4 5
M  V30 5 2 5 6
M  V30 6 1 6 7
M  V30 7 2 7 8
M  V30 8 1 8 9
M  V30 9 1 9 10
M  V30 10 1 10 11
M  V30 11 1 11 12
M  V30 12 1 12 13
M  V30 13 1 13 14
M  V30 14 1 14 15
M  V30 15 1 15 16
M  V30 16 1 16 17
M  V30 17 2 17 18
M  V30 18 1 18 19
M  V30 19 2 19 20
M  V30 20 1 20 21
M  V30 21 1 20 22
M  V30 22 2 22 23
M  V30 23 1 23 24
M  V30 24 1 24 25
M  V30 25 2 25 26
M  V30 26 1 25 27
M  V30 27 1 8 3
M  V30 28 1 23 17
M  V30 29 1 27 6
M  V30 30 1 5 28
M  V30 31 1 10 29
M  V30 32 1 10 30
M  V30 33 1 11 31
M  V30 34 1 11 32
M  V30 35 1 12 33
M  V30 36 1 12 34
M  V30 37 1 13 35
M  V30 38 1 13 36
M  V30 39 1 14 37
M  V30 40 1 14 38
M  V30 41 1 15 39
M  V30 42 1 15 40
M  V30 43 1 18 41
M  V30 44 1 19 42
M  V30 45 1 22 43
M  V30 46 1 24 44
M  V30 47 1 27 45
M  V30 END BOND
M  V30 END CTAB
M  END
>  <Dataset>  (888) 
ChEMBL_Kinases

>  <Ligand_Instance>  (888) 
nan

>  <PDB_ID>  (888) 
nan

>  <Standardized_SMILES>  (888) 
N#Cc1ncc2nc1OCCCCCCOc1ccc(Cl)cc1NC(=O)N2

>  <Name>  (888) 
nan

>  <Pocket>  (888) 
nan

>  <ATP_Site>  (888) 
nan

>  <Peripheral>  (888) 
nan

>  <Num_H_Atoms_ProtBoundConf>  (888) 
nan

>  <Num_Resolved_Atoms>  (888) 
nan

>  <Num_Not_Resolved_Atoms>  (888) 
nan

$$$$
CHEMBL374416
     RDKit          3D

  0  0  0  0  0  0  0  0  0  0999 V3000
M  V30 BEGIN CTAB
M  V30 COUNTS 53 56 0 0 0
M  V30 BEGIN ATOM
M  V30 1 N 7.397975 -1.986286 1.208854 0
M  V30 2 C 6.348130 -1.924003 1.732665 0
M  V30 3 C 5.039245 -1.828216 2.366366 0
M  V30 4 N 4.816885 -2.793435 3.276407 0
M  V30 5 C 3.642491 -2.817065 3.934957 0
M  V30 6 C 2.770486 -1.814643 3.590502 0
M  V30 7 N 2.984002 -0.844574 2.681407 0
M  V30 8 C 4.145487 -0.808044 2.018705 0
M  V30 9 O 4.518265 0.113596 1.058619 0
M  V30 10 C 3.638789 0.969208 0.407679 0
M  V30 11 C 2.924249 1.933366 1.314396 0
M  V30 12 C 1.930750 2.800046 0.548079 0
M  V30 13 C 0.846769 1.966565 -0.097472 0
M  V30 14 C 0.016835 1.245487 0.961420 0
M  V30 15 O -0.830686 0.357021 0.334523 0
M  V30 16 C -1.743507 -0.525453 0.808835 0
M  V30 17 C -2.755705 -0.704318 -0.143728 0
M  V30 18 C -3.867180 -1.540499 -0.010822 0
M  V30 19 N -4.872640 -1.680636 -0.999856 0
M  V30 20 C -5.006891 -1.084844 -2.295543 0
M  V30 21 C -3.923854 -1.626756 -3.178090 0
M  V30 22 C -4.236605 -2.800885 -3.843303 0
M  V30 23 N -3.186170 -3.168107 -4.590976 0
M  V30 24 C -2.264376 -2.215381 -4.365118 0
M  V30 25 O -2.710298 -1.328135 -3.541832 0
M  V30 26 C -3.959400 -2.254571 1.190138 0
M  V30 27 Cl -5.334671 -3.329566 1.430856 0
M  V30 28 C -2.984432 -2.093765 2.129768 0
M  V30 29 C -1.905244 -1.263955 1.966578 0
M  V30 30 N -1.050065 -1.269419 3.088133 0
M  V30 31 C 0.329954 -1.495283 3.284540 0
M  V30 32 O 0.361665 -1.709799 2.052154 0
M  V30 33 N 1.471231 -1.565858 4.107541 0
M  V30 34 H 3.150656 -3.411036 4.691217 0
M  V30 35 H 4.246673 1.569194 -0.333991 0
M  V30 36 H 2.886626 0.405655 -0.204525 0
M  V30 37 H 2.466659 1.476072 2.190916 0
M  V30 38 H 3.688875 2.673287 1.709749 0
M  V30 39 H 1.436153 3.466281 1.268083 0
M  V30 40 H 2.451864 3.397940 -0.203495 0
M  V30 41 H 1.189483 1.239169 -0.828868 0
M  V30 42 H 0.142092 2.671961 -0.611205 0
M  V30 43 H 0.623099 0.903838 1.789124 0
M  V30 44 H -0.654364 2.066263 1.397295 0
M  V30 45 H -2.790077 -0.194708 -1.103599 0
M  V30 46 H -5.663181 -2.329606 -0.760389 0
M  V30 47 H -5.992620 -1.220766 -2.731937 0
M  V30 48 H -4.849431 0.038589 -2.210242 0
M  V30 49 H -5.122359 -3.446780 -3.873831 0
M  V30 50 H -1.244125 -2.044947 -4.726629 0
M  V30 51 H -3.132234 -2.672953 3.018514 0
M  V30 52 H -1.410984 -1.084217 4.039823 0
M  V30 53 H 1.611775 -1.429011 5.125210 0
M  V30 END ATOM
M  V30 BEGIN BOND
M  V30 1 3 1 2
M  V30 2 1 2 3
M  V30 3 2 3 4
M  V30 4 1 4 5
M  V30 5 2 5 6
M  V30 6 1 6 7
M  V30 7 2 7 8
M  V30 8 1 8 9
M  V30 9 1 9 10
M  V30 10 1 10 11
M  V30 11 1 11 12
M  V30 12 1 12 13
M  V30 13 1 13 14
M  V30 14 1 14 15
M  V30 15 1 15 16
M  V30 16 2 16 17
M  V30 17 1 17 18
M  V30 18 1 18 19
M  V30 19 1 19 20
M  V30 20 1 20 21
M  V30 21 2 21 22
M  V30 22 1 22 23
M  V30 23 2 23 24
M  V30 24 1 24 25
M  V30 25 2 18 26
M  V30 26 1 26 27
M  V30 27 1 26 28
M  V30 28 2 28 29
M  V30 29 1 29 30
M  V30 30 1 30 31
M  V30 31 2 31 32
M  V30 32 1 31 33
M  V30 33 1 8 3
M  V30 34 1 29 16
M  V30 35 1 33 6
M  V30 36 1 25 21
M  V30 37 1 5 34
M  V30 38 1 10 35
M  V30 39 1 10 36
M  V30 40 1 11 37
M  V30 41 1 11 38
M  V30 42 1 12 39
M  V30 43 1 12 40
M  V30 44 1 13 41
M  V30 45 1 13 42
M  V30 46 1 14 43
M  V30 47 1 14 44
M  V30 48 1 17 45
M  V30 49 1 19 46
M  V30 50 1 20 47
M  V30 51 1 20 48
M  V30 52 1 22 49
M  V30 53 1 24 50
M  V30 54 1 28 51
M  V30 55 1 30 52
M  V30 56 1 33 53
M  V30 END BOND
M  V30 END CTAB
M  END
>  <Dataset>  (889) 
ChEMBL_Kinases

>  <Ligand_Instance>  (889) 
nan

>  <PDB_ID>  (889) 
nan

>  <Standardized_SMILES>  (889) 
N#Cc1ncc2nc1OCCCCCOc1cc(NCc3cnco3)c(Cl)cc1NC(=O)N2

>  <Name>  (889) 
nan

>  <Pocket>  (889) 
nan

>  <ATP_Site>  (889) 
nan

>  <Peripheral>  (889) 
nan

>  <Num_H_Atoms_ProtBoundConf>  (889) 
nan

>  <Num_Resolved_Atoms>  (889) 
nan

>  <Num_Not_Resolved_Atoms>  (889) 
nan

$$$$
CHEMBL510557
     RDKit          3D

  0  0  0  0  0  0  0  0  0  0999 V3000
M  V30 BEGIN CTAB
M  V30 COUNTS 47 49 0 0 0
M  V30 BEGIN ATOM
M  V30 1 C 0.769634 -8.056351 2.324601 0
M  V30 2 O 0.037364 -6.891199 2.007233 0
M  V30 3 C 0.644715 -5.740061 1.527391 0
M  V30 4 C 1.979855 -5.499842 1.274419 0
M  V30 5 C 2.336915 -4.238520 0.788280 0
M  V30 6 C 1.390147 -3.263420 0.567478 0
M  V30 7 C 1.841291 -1.958474 0.052065 0
M  V30 8 O 3.030697 -1.761635 -0.185635 0
M  V30 9 O 0.924519 -0.995813 -0.150197 0
M  V30 10 C 0.985483 0.296150 -0.603131 0
M  V30 11 C 1.770027 1.302670 0.150449 0
M  V30 12 C 3.265952 1.270550 -0.065277 0
M  V30 13 O 3.616823 1.022501 -1.389335 0
M  V30 14 C 1.352350 2.682198 -0.449075 0
M  V30 15 C -0.021257 2.769142 0.168260 0
M  V30 16 C -1.262927 3.083328 -0.198552 0
M  V30 17 C -2.411465 3.049715 0.718646 0
M  V30 18 C -2.651286 1.990732 1.576193 0
M  V30 19 C -3.707553 1.956099 2.452646 0
M  V30 20 C -4.587704 3.029892 2.490950 0
M  V30 21 C -4.365194 4.108339 1.634403 0
M  V30 22 C -3.303623 4.122445 0.766952 0
M  V30 23 C 0.334951 2.401033 1.557491 0
M  V30 24 O -0.235283 2.830121 2.606142 0
M  V30 25 O 1.392517 1.514459 1.479993 0
M  V30 26 C 0.038735 -3.506380 0.823654 0
M  V30 27 C -0.307351 -4.772733 1.309735 0
M  V30 28 H 0.906204 -8.733428 1.460986 0
M  V30 29 H 0.314792 -8.609981 3.179118 0
M  V30 30 H 1.786026 -7.769971 2.668602 0
M  V30 31 H 2.623025 -6.336361 1.485541 0
M  V30 32 H 3.404445 -4.116887 0.610077 0
M  V30 33 H 1.306832 0.367779 -1.693969 0
M  V30 34 H -0.093624 0.640330 -0.674209 0
M  V30 35 H 3.697822 2.315122 0.120404 0
M  V30 36 H 3.810806 0.659670 0.676237 0
M  V30 37 H 3.548501 1.845386 -1.935574 0
M  V30 38 H 1.326416 2.592689 -1.534651 0
M  V30 39 H 1.988814 3.456749 -0.024243 0
M  V30 40 H -1.285025 3.363602 -1.262108 0
M  V30 41 H -2.017487 1.121023 1.584738 0
M  V30 42 H -3.903937 1.147676 3.120559 0
M  V30 43 H -5.434393 3.006645 3.192337 0
M  V30 44 H -5.093804 4.926458 1.710355 0
M  V30 45 H -3.140271 4.948351 0.115736 0
M  V30 46 H -0.634360 -2.686065 0.622586 0
M  V30 47 H -1.379025 -4.828007 1.463295 0
M  V30 END ATOM
M  V30 BEGIN BOND
M  V30 1 1 1 2
M  V30 2 1 2 3
M  V30 3 2 3 4
M  V30 4 1 4 5
M  V30 5 2 5 6
M  V30 6 1 6 7
M  V30 7 2 7 8
M  V30 8 1 7 9
M  V30 9 1 9 10
M  V30 10 1 10 11
M  V30 11 1 11 12
M  V30 12 1 12 13
M  V30 13 1 11 14
M  V30 14 1 14 15
M  V30 15 2 15 16
M  V30 16 1 16 17
M  V30 17 2 17 18
M  V30 18 1 18 19
M  V30 19 2 19 20
M  V30 20 1 20 21
M  V30 21 2 21 22
M  V30 22 1 15 23
M  V30 23 2 23 24
M  V30 24 1 23 25
M  V30 25 1 6 26
M  V30 26 2 26 27
M  V30 27 1 27 3
M  V30 28 1 25 11
M  V30 29 1 22 17
M  V30 30 1 1 28
M  V30 31 1 1 29
M  V30 32 1 1 30
M  V30 33 1 4 31
M  V30 34 1 5 32
M  V30 35 1 10 33
M  V30 36 1 10 34
M  V30 37 1 12 35
M  V30 38 1 12 36
M  V30 39 1 13 37
M  V30 40 1 14 38
M  V30 41 1 14 39
M  V30 42 1 16 40
M  V30 43 1 18 41
M  V30 44 1 19 42
M  V30 45 1 20 43
M  V30 46 1 21 44
M  V30 47 1 22 45
M  V30 48 1 26 46
M  V30 49 1 27 47
M  V30 END BOND
M  V30 END CTAB
M  END
>  <Dataset>  (890) 
ChEMBL_Kinases

>  <Ligand_Instance>  (890) 
nan

>  <PDB_ID>  (890) 
nan

>  <Standardized_SMILES>  (890) 
COc1ccc(C(=O)OCC2(CO)C/C(=C/c3ccccc3)C(=O)O2)cc1

>  <Name>  (890) 
nan

>  <Pocket>  (890) 
nan

>  <ATP_Site>  (890) 
nan

>  <Peripheral>  (890) 
nan

>  <Num_H_Atoms_ProtBoundConf>  (890) 
nan

>  <Num_Resolved_Atoms>  (890) 
nan

>  <Num_Not_Resolved_Atoms>  (890) 
nan

$$$$
CHEMBL374412
     RDKit          3D

  0  0  0  0  0  0  0  0  0  0999 V3000
M  V30 BEGIN CTAB
M  V30 COUNTS 51 55 0 0 0
M  V30 BEGIN ATOM
M  V30 1 C 2.435569 -5.997870 1.640886 0
M  V30 2 C 3.605223 -5.485610 0.870325 0
M  V30 3 O 4.775115 -5.745296 1.263492 0
M  V30 4 N 3.281034 -4.709462 -0.300200 0
M  V30 5 C 1.946244 -4.375611 -0.805448 0
M  V30 6 C 1.774165 -2.875162 -0.642913 0
M  V30 7 N 2.990753 -2.152963 -0.788568 0
M  V30 8 C 2.805548 -0.789612 -1.237987 0
M  V30 9 C 1.979365 0.022388 -0.312035 0
M  V30 10 C 2.602833 0.722498 0.706846 0
M  V30 11 C 1.886505 1.495535 1.599756 0
M  V30 12 C 0.510070 1.607922 1.519348 0
M  V30 13 N -0.461705 2.245857 2.193359 0
M  V30 14 C -1.687173 2.015215 1.689194 0
M  V30 15 C -2.858402 2.618438 2.284903 0
M  V30 16 N -2.837050 3.433205 3.354345 0
M  V30 17 N -4.047336 3.841871 3.689152 0
M  V30 18 C -4.953543 3.316073 2.851657 0
M  V30 19 C -6.325859 3.415432 2.755080 0
M  V30 20 C -6.973924 2.728483 1.749416 0
M  V30 21 C -6.232061 1.960328 0.866964 0
M  V30 22 C -4.883115 1.897315 1.007218 0
M  V30 23 C -4.194451 2.557602 1.984718 0
M  V30 24 C -1.429307 1.181554 0.641191 0
M  V30 25 C -0.086428 0.901523 0.496693 0
M  V30 26 C 0.606752 0.122612 -0.407735 0
M  V30 27 C 3.978440 -2.784124 -1.609506 0
M  V30 28 C 4.362528 -4.157706 -1.130381 0
M  V30 29 H 2.779902 -6.279358 2.650805 0
M  V30 30 H 1.697654 -5.156539 1.685224 0
M  V30 31 H 1.933576 -6.808328 1.092462 0
M  V30 32 H 1.959296 -4.592471 -1.882121 0
M  V30 33 H 1.139856 -4.894349 -0.259949 0
M  V30 34 H 1.272553 -2.723168 0.334091 0
M  V30 35 H 1.051234 -2.574197 -1.455802 0
M  V30 36 H 3.787738 -0.322947 -1.448445 0
M  V30 37 H 2.260768 -0.829917 -2.200432 0
M  V30 38 H 3.673041 0.649796 0.788582 0
M  V30 39 H 2.385497 2.034023 2.386647 0
M  V30 40 H -0.150097 2.827462 3.005683 0
M  V30 41 H -4.201161 4.480636 4.499427 0
M  V30 42 H -6.839251 4.037990 3.484786 0
M  V30 43 H -8.055975 2.879559 1.768437 0
M  V30 44 H -6.820400 1.457682 0.112281 0
M  V30 45 H -4.353266 1.294013 0.305399 0
M  V30 46 H -2.172126 0.775267 -0.013018 0
M  V30 47 H 0.087478 -0.395678 -1.171735 0
M  V30 48 H 4.893039 -2.163927 -1.566255 0
M  V30 49 H 3.609272 -2.799313 -2.655010 0
M  V30 50 H 5.339262 -4.205530 -0.632246 0
M  V30 51 H 4.400025 -4.827847 -2.033922 0
M  V30 END ATOM
M  V30 BEGIN BOND
M  V30 1 1 1 2
M  V30 2 2 2 3
M  V30 3 1 2 4
M  V30 4 1 4 5
M  V30 5 1 5 6
M  V30 6 1 6 7
M  V30 7 1 7 8
M  V30 8 1 8 9
M  V30 9 2 9 10
M  V30 10 1 10 11
M  V30 11 2 11 12
M  V30 12 1 12 13
M  V30 13 1 13 14
M  V30 14 1 14 15
M  V30 15 2 15 16
M  V30 16 1 16 17
M  V30 17 1 17 18
M  V30 18 2 18 19
M  V30 19 1 19 20
M  V30 20 2 20 21
M  V30 21 1 21 22
M  V30 22 2 22 23
M  V30 23 2 14 24
M  V30 24 1 24 25
M  V30 25 2 25 26
M  V30 26 1 7 27
M  V30 27 1 27 28
M  V30 28 1 28 4
M  V30 29 1 26 9
M  V30 30 1 25 12
M  V30 31 1 23 15
M  V30 32 1 23 18
M  V30 33 1 1 29
M  V30 34 1 1 30
M  V30 35 1 1 31
M  V30 36 1 5 32
M  V30 37 1 5 33
M  V30 38 1 6 34
M  V30 39 1 6 35
M  V30 40 1 8 36
M  V30 41 1 8 37
M  V30 42 1 10 38
M  V30 43 1 11 39
M  V30 44 1 13 40
M  V30 45 1 17 41
M  V30 46 1 19 42
M  V30 47 1 20 43
M  V30 48 1 21 44
M  V30 49 1 22 45
M  V30 50 1 24 46
M  V30 51 1 26 47
M  V30 52 1 27 48
M  V30 53 1 27 49
M  V30 54 1 28 50
M  V30 55 1 28 51
M  V30 END BOND
M  V30 END CTAB
M  END
>  <Dataset>  (891) 
ChEMBL_Kinases

>  <Ligand_Instance>  (891) 
nan

>  <PDB_ID>  (891) 
nan

>  <Standardized_SMILES>  (891) 
CC(=O)N1CCN(Cc2ccc3[nH]c(-c4n[nH]c5ccccc45)cc3c2)CC1

>  <Name>  (891) 
nan

>  <Pocket>  (891) 
nan

>  <ATP_Site>  (891) 
nan

>  <Peripheral>  (891) 
nan

>  <Num_H_Atoms_ProtBoundConf>  (891) 
nan

>  <Num_Resolved_Atoms>  (891) 
nan

>  <Num_Not_Resolved_Atoms>  (891) 
nan

$$$$
CHEMBL3746484
     RDKit          3D

  0  0  0  0  0  0  0  0  0  0999 V3000
M  V30 BEGIN CTAB
M  V30 COUNTS 28 30 0 0 0
M  V30 BEGIN ATOM
M  V30 1 N -0.092160 -4.456202 2.717417 0
M  V30 2 C 0.885592 -3.743630 1.969282 0
M  V30 3 O 1.997366 -4.250892 1.724799 0
M  V30 4 C 0.603726 -2.400213 1.472315 0
M  V30 5 N 1.512666 -1.706520 0.762355 0
M  V30 6 C 1.002440 -0.486989 0.420555 0
M  V30 7 C 1.647829 0.576878 -0.346424 0
M  V30 8 C 1.579144 1.890509 0.066797 0
M  V30 9 C 2.197519 2.898889 -0.670603 0
M  V30 10 N 2.870410 2.595002 -1.798640 0
M  V30 11 C 2.942481 1.319870 -2.208234 0
M  V30 12 C 2.348703 0.299006 -1.512389 0
M  V30 13 C -0.273208 -0.495970 0.973106 0
M  V30 14 C -1.282809 0.443537 0.974850 0
M  V30 15 C -2.501073 0.234248 1.594907 0
M  V30 16 C -2.709009 -0.983566 2.244664 0
M  V30 17 C -1.681853 -1.906916 2.227939 0
M  V30 18 N -0.511190 -1.658899 1.610528 0
M  V30 19 H -0.810056 -5.037193 3.171602 0
M  V30 20 H -0.686617 -5.289621 2.513733 0
M  V30 21 H 1.060211 2.188574 0.951544 0
M  V30 22 H 2.131874 3.940718 -0.325341 0
M  V30 23 H 3.504613 1.179043 -3.124309 0
M  V30 24 H 2.426048 -0.722607 -1.871353 0
M  V30 25 H -1.156686 1.392120 0.484146 0
M  V30 26 H -3.303562 0.960169 1.605888 0
M  V30 27 H -3.649453 -1.183254 2.740864 0
M  V30 28 H -1.847341 -2.849077 2.732612 0
M  V30 END ATOM
M  V30 BEGIN BOND
M  V30 1 1 1 2
M  V30 2 2 2 3
M  V30 3 1 2 4
M  V30 4 2 4 5
M  V30 5 1 5 6
M  V30 6 1 6 7
M  V30 7 2 7 8
M  V30 8 1 8 9
M  V30 9 2 9 10
M  V30 10 1 10 11
M  V30 11 2 11 12
M  V30 12 2 6 13
M  V30 13 1 13 14
M  V30 14 2 14 15
M  V30 15 1 15 16
M  V30 16 2 16 17
M  V30 17 1 17 18
M  V30 18 1 18 4
M  V30 19 1 12 7
M  V30 20 1 18 13
M  V30 21 1 1 19
M  V30 22 1 1 20
M  V30 23 1 8 21
M  V30 24 1 9 22
M  V30 25 1 11 23
M  V30 26 1 12 24
M  V30 27 1 14 25
M  V30 28 1 15 26
M  V30 29 1 16 27
M  V30 30 1 17 28
M  V30 END BOND
M  V30 END CTAB
M  END
>  <Dataset>  (892) 
ChEMBL_Kinases

>  <Ligand_Instance>  (892) 
nan

>  <PDB_ID>  (892) 
nan

>  <Standardized_SMILES>  (892) 
NC(=O)c1nc(-c2ccncc2)c2ccccn12

>  <Name>  (892) 
nan

>  <Pocket>  (892) 
nan

>  <ATP_Site>  (892) 
nan

>  <Peripheral>  (892) 
nan

>  <Num_H_Atoms_ProtBoundConf>  (892) 
nan

>  <Num_Resolved_Atoms>  (892) 
nan

>  <Num_Not_Resolved_Atoms>  (892) 
nan

$$$$
CHEMBL374334
     RDKit          3D

  0  0  0  0  0  0  0  0  0  0999 V3000
M  V30 BEGIN CTAB
M  V30 COUNTS 53 55 0 0 0
M  V30 BEGIN ATOM
M  V30 1 C 1.957606 -6.859574 2.930903 0
M  V30 2 O 3.323370 -6.624081 3.109281 0
M  V30 3 C 3.602923 -5.292620 3.376869 0
M  V30 4 C 3.167224 -4.336427 2.264724 0
M  V30 5 O 3.511816 -2.987644 2.690641 0
M  V30 6 C 3.011157 -1.962383 1.845633 0
M  V30 7 C 2.244503 -2.300612 0.707990 0
M  V30 8 C 1.820798 -1.222229 0.023431 0
M  V30 9 C 2.042113 0.143581 0.305602 0
M  V30 10 C 2.805782 0.411326 1.429512 0
M  V30 11 C 3.282278 -0.673673 2.184046 0
M  V30 12 Cl 4.250408 -0.194233 3.549040 0
M  V30 13 N 1.392513 1.231650 -0.441408 0
M  V30 14 C 0.419980 2.040446 0.175768 0
M  V30 15 O 0.416370 1.692130 1.319885 0
M  V30 16 N -0.481719 2.790946 0.746018 0
M  V30 17 C -1.350968 3.710394 0.139084 0
M  V30 18 C -1.620797 4.994992 -0.404438 0
M  V30 19 N -2.869202 5.294598 -0.916833 0
M  V30 20 C -3.709527 4.258352 -0.820807 0
M  V30 21 C -5.057070 4.588758 -1.329038 0
M  V30 22 N -6.132460 4.851673 -1.711779 0
M  V30 23 C -3.603478 3.001437 -0.337439 0
M  V30 24 N -2.438278 3.011737 0.034680 0
M  V30 25 O -4.414905 1.914634 -0.207065 0
M  V30 26 C -4.198101 0.620241 -0.739600 0
M  V30 27 C -2.861727 0.062201 -0.350937 0
M  V30 28 C -2.650448 -1.349079 -0.778633 0
M  V30 29 C -1.255090 -1.870100 -0.455395 0
M  V30 30 C -0.265816 -1.166191 -1.345964 0
M  V30 31 O 1.077961 -1.447499 -1.113100 0
M  V30 32 H 1.614519 -6.273056 2.057062 0
M  V30 33 H 1.767050 -7.921374 2.722179 0
M  V30 34 H 1.381678 -6.579316 3.843530 0
M  V30 35 H 2.969613 -5.058382 4.303921 0
M  V30 36 H 4.646677 -5.194597 3.661775 0
M  V30 37 H 2.100936 -4.376697 2.124884 0
M  V30 38 H 3.746998 -4.587934 1.359559 0
M  V30 39 H 2.048900 -3.319195 0.427692 0
M  V30 40 H 2.885589 1.456419 1.471475 0
M  V30 41 H 1.973631 0.925521 -1.150272 0
M  V30 42 H -0.877766 2.930711 1.680564 0
M  V30 43 H -0.561144 5.163425 -0.105222 0
M  V30 44 H -4.434694 0.587272 -1.794701 0
M  V30 45 H -5.019004 -0.000487 -0.250701 0
M  V30 46 H -2.770660 0.125057 0.754032 0
M  V30 47 H -2.035144 0.730781 -0.707516 0
M  V30 48 H -3.349542 -2.096619 -0.395709 0
M  V30 49 H -2.755921 -1.379172 -1.905736 0
M  V30 50 H -0.996065 -1.788594 0.616733 0
M  V30 51 H -1.193054 -2.955110 -0.677181 0
M  V30 52 H -0.476634 -1.617308 -2.372778 0
M  V30 53 H -0.497113 -0.118072 -1.476659 0
M  V30 END ATOM
M  V30 BEGIN BOND
M  V30 1 1 1 2
M  V30 2 1 2 3
M  V30 3 1 3 4
M  V30 4 1 4 5
M  V30 5 1 5 6
M  V30 6 2 6 7
M  V30 7 1 7 8
M  V30 8 2 8 9
M  V30 9 1 9 10
M  V30 10 2 10 11
M  V30 11 1 11 12
M  V30 12 1 9 13
M  V30 13 1 13 14
M  V30 14 2 14 15
M  V30 15 1 14 16
M  V30 16 1 16 17
M  V30 17 1 17 18
M  V30 18 2 18 19
M  V30 19 1 19 20
M  V30 20 1 20 21
M  V30 21 3 21 22
M  V30 22 2 20 23
M  V30 23 1 23 24
M  V30 24 1 23 25
M  V30 25 1 25 26
M  V30 26 1 26 27
M  V30 27 1 27 28
M  V30 28 1 28 29
M  V30 29 1 29 30
M  V30 30 1 30 31
M  V30 31 1 11 6
M  V30 32 2 24 17
M  V30 33 1 31 8
M  V30 34 1 1 32
M  V30 35 1 1 33
M  V30 36 1 1 34
M  V30 37 1 3 35
M  V30 38 1 3 36
M  V30 39 1 4 37
M  V30 40 1 4 38
M  V30 41 1 7 39
M  V30 42 1 10 40
M  V30 43 1 13 41
M  V30 44 1 16 42
M  V30 45 1 18 43
M  V30 46 1 26 44
M  V30 47 1 26 45
M  V30 48 1 27 46
M  V30 49 1 27 47
M  V30 50 1 28 48
M  V30 51 1 28 49
M  V30 52 1 29 50
M  V30 53 1 29 51
M  V30 54 1 30 52
M  V30 55 1 30 53
M  V30 END BOND
M  V30 END CTAB
M  END
>  <Dataset>  (893) 
ChEMBL_Kinases

>  <Ligand_Instance>  (893) 
nan

>  <PDB_ID>  (893) 
nan

>  <Standardized_SMILES>  (893) 
COCCOc1cc2c(cc1Cl)NC(=O)Nc1cnc(C#N)c(n1)OCCCCCO2

>  <Name>  (893) 
nan

>  <Pocket>  (893) 
nan

>  <ATP_Site>  (893) 
nan

>  <Peripheral>  (893) 
nan

>  <Num_H_Atoms_ProtBoundConf>  (893) 
nan

>  <Num_Resolved_Atoms>  (893) 
nan

>  <Num_Not_Resolved_Atoms>  (893) 
nan

$$$$
CHEMBL374312
     RDKit          3D

  0  0  0  0  0  0  0  0  0  0999 V3000
M  V30 BEGIN CTAB
M  V30 COUNTS 39 41 0 0 0
M  V30 BEGIN ATOM
M  V30 1 C -0.733539 -3.716322 -0.192609 0
M  V30 2 C 0.553931 -3.048167 0.134861 0
M  V30 3 C 1.263871 -3.592364 1.184996 0
M  V30 4 C 2.459829 -3.025131 1.544673 0
M  V30 5 C 2.921964 -1.925495 0.848315 0
M  V30 6 C 2.154693 -1.444167 -0.184889 0
M  V30 7 C 0.957745 -1.965453 -0.589346 0
M  V30 8 C 0.201440 -1.375647 -1.728524 0
M  V30 9 N 0.794855 -0.099727 -2.130738 0
M  V30 10 C 0.739519 0.920749 -1.104576 0
M  V30 11 C 1.269446 2.179112 -1.303619 0
M  V30 12 C 1.203699 3.138036 -0.317654 0
M  V30 13 C 0.606434 2.868475 0.893838 0
M  V30 14 O 0.426836 3.556678 1.925764 0
M  V30 15 N 0.095753 1.625675 1.058301 0
M  V30 16 C -0.589084 0.990116 2.162228 0
M  V30 17 C -0.062095 0.193711 3.152963 0
M  V30 18 C -0.918547 -0.328535 4.102402 0
M  V30 19 C -2.262909 -0.030175 4.017483 0
M  V30 20 C -2.835893 0.762794 3.043803 0
M  V30 21 C -1.949476 1.282852 2.090182 0
M  V30 22 Cl -2.725528 2.285240 0.870445 0
M  V30 23 N 0.170424 0.715434 0.095597 0
M  V30 24 H -1.366541 -3.753032 0.734959 0
M  V30 25 H -0.455011 -4.769939 -0.462921 0
M  V30 26 H -1.316641 -3.223448 -0.968191 0
M  V30 27 H 0.924364 -4.456178 1.750536 0
M  V30 28 H 3.021753 -3.447090 2.364589 0
M  V30 29 H 3.868698 -1.517193 1.167383 0
M  V30 30 H 2.616499 -0.574993 -0.668491 0
M  V30 31 H -0.808394 -1.096690 -1.307631 0
M  V30 32 H 0.059570 -2.076493 -2.549051 0
M  V30 33 H 1.226189 0.104283 -3.046237 0
M  V30 34 H 1.745842 2.446656 -2.230203 0
M  V30 35 H 1.581756 4.147430 -0.368792 0
M  V30 36 H 0.999761 0.062506 3.076177 0
M  V30 37 H -0.465332 -0.947472 4.863273 0
M  V30 38 H -2.893351 -0.469344 4.791304 0
M  V30 39 H -3.895565 0.962504 3.025514 0
M  V30 END ATOM
M  V30 BEGIN BOND
M  V30 1 1 1 2
M  V30 2 2 2 3
M  V30 3 1 3 4
M  V30 4 2 4 5
M  V30 5 1 5 6
M  V30 6 2 6 7
M  V30 7 1 7 8
M  V30 8 1 8 9
M  V30 9 1 9 10
M  V30 10 1 10 11
M  V30 11 2 11 12
M  V30 12 1 12 13
M  V30 13 2 13 14
M  V30 14 1 13 15
M  V30 15 1 15 16
M  V30 16 2 16 17
M  V30 17 1 17 18
M  V30 18 2 18 19
M  V30 19 1 19 20
M  V30 20 2 20 21
M  V30 21 1 21 22
M  V30 22 1 15 23
M  V30 23 1 7 2
M  V30 24 2 23 10
M  V30 25 1 21 16
M  V30 26 1 1 24
M  V30 27 1 1 25
M  V30 28 1 1 26
M  V30 29 1 3 27
M  V30 30 1 4 28
M  V30 31 1 5 29
M  V30 32 1 6 30
M  V30 33 1 8 31
M  V30 34 1 8 32
M  V30 35 1 9 33
M  V30 36 1 11 34
M  V30 37 1 12 35
M  V30 38 1 17 36
M  V30 39 1 18 37
M  V30 40 1 19 38
M  V30 41 1 20 39
M  V30 END BOND
M  V30 END CTAB
M  END
>  <Dataset>  (894) 
ChEMBL_Kinases

>  <Ligand_Instance>  (894) 
nan

>  <PDB_ID>  (894) 
nan

>  <Standardized_SMILES>  (894) 
Cc1ccccc1CNc1ccc(=O)n(-c2ccccc2Cl)n1

>  <Name>  (894) 
nan

>  <Pocket>  (894) 
nan

>  <ATP_Site>  (894) 
nan

>  <Peripheral>  (894) 
nan

>  <Num_H_Atoms_ProtBoundConf>  (894) 
nan

>  <Num_Resolved_Atoms>  (894) 
nan

>  <Num_Not_Resolved_Atoms>  (894) 
nan

$$$$
CHEMBL510566
     RDKit          3D

  0  0  0  0  0  0  0  0  0  0999 V3000
M  V30 BEGIN CTAB
M  V30 COUNTS 52 54 0 0 0
M  V30 BEGIN ATOM
M  V30 1 C 2.396470 -4.739431 1.987818 0
M  V30 2 C 2.249773 -3.473808 1.166562 0 CFG=2
M  V30 3 C 1.822381 -3.919662 -0.205169 0
M  V30 4 N 1.844194 -2.834801 -1.137172 0
M  V30 5 C 3.211517 -2.397477 -1.282422 0
M  V30 6 C 3.770414 -1.840088 0.003457 0 CFG=1
M  V30 7 C 3.247387 -0.495083 0.310740 0
M  V30 8 O 2.609022 -0.281443 1.373733 0
M  V30 9 N 3.450334 0.570120 -0.573682 0
M  V30 10 C 2.804686 1.799539 0.011337 0
M  V30 11 N 2.930729 2.713412 0.668418 0
M  V30 12 C 2.047354 3.636989 0.963487 0
M  V30 13 C 0.825507 3.512259 0.434212 0
M  V30 14 S -0.712986 4.432337 0.489222 0
M  V30 15 C -1.738688 3.826537 1.884385 0
M  V30 16 C -2.162984 2.421946 1.638189 0
M  V30 17 N -1.417038 1.356170 2.051611 0
M  V30 18 C -2.038124 0.232982 1.696407 0
M  V30 19 C -3.196819 0.627519 1.047411 0
M  V30 20 C -4.143525 -0.374853 0.509827 0
M  V30 21 C -5.329562 0.244263 -0.152388 0
M  V30 22 C -4.550769 -1.259279 1.653292 0
M  V30 23 C -3.443574 -1.242549 -0.537438 0
M  V30 24 O -3.228074 1.938469 1.036946 0
M  V30 25 S 0.973416 1.968850 -0.543806 0
M  V30 26 C 3.576824 -2.766475 1.172545 0
M  V30 27 H 3.040696 -5.418837 1.381434 0
M  V30 28 H 2.930484 -4.575363 2.929735 0
M  V30 29 H 1.427877 -5.263934 2.116647 0
M  V30 30 H 1.432158 -2.894418 1.645620 0
M  V30 31 H 0.759751 -4.250658 -0.103459 0
M  V30 32 H 2.436598 -4.788171 -0.474536 0
M  V30 33 H 1.549464 -3.197065 -2.073089 0
M  V30 34 H 3.859557 -3.205033 -1.680672 0
M  V30 35 H 3.238421 -1.577935 -2.028907 0
M  V30 36 H 4.863144 -1.727693 -0.153286 0
M  V30 37 H 3.954108 0.508715 -1.463409 0
M  V30 38 H 2.260475 4.482462 1.606764 0
M  V30 39 H -1.169214 3.866333 2.835730 0
M  V30 40 H -2.610436 4.507680 1.973634 0
M  V30 41 H -1.601248 -0.709722 1.936694 0
M  V30 42 H -5.933763 0.860976 0.549692 0
M  V30 43 H -5.070035 0.777872 -1.071291 0
M  V30 44 H -6.012631 -0.597891 -0.450450 0
M  V30 45 H -4.916408 -2.223678 1.267715 0
M  V30 46 H -3.645253 -1.422924 2.275067 0
M  V30 47 H -5.288616 -0.723462 2.265204 0
M  V30 48 H -4.230590 -1.627123 -1.220310 0
M  V30 49 H -2.967385 -2.125553 -0.049145 0
M  V30 50 H -2.744164 -0.594512 -1.077589 0
M  V30 51 H 4.415271 -3.487965 1.281154 0
M  V30 52 H 3.588217 -2.145089 2.097221 0
M  V30 END ATOM
M  V30 BEGIN BOND
M  V30 1 1 1 2
M  V30 2 1 2 3
M  V30 3 1 3 4
M  V30 4 1 4 5
M  V30 5 1 5 6
M  V30 6 1 6 7
M  V30 7 2 7 8
M  V30 8 1 7 9
M  V30 9 1 9 10
M  V30 10 2 10 11
M  V30 11 1 11 12
M  V30 12 2 12 13
M  V30 13 1 13 14
M  V30 14 1 14 15
M  V30 15 1 15 16
M  V30 16 2 16 17
M  V30 17 1 17 18
M  V30 18 2 18 19
M  V30 19 1 19 20
M  V30 20 1 20 21
M  V30 21 1 20 22
M  V30 22 1 20 23
M  V30 23 1 19 24
M  V30 24 1 13 25
M  V30 25 1 6 26
M  V30 26 1 26 2
M  V30 27 1 25 10
M  V30 28 1 24 16
M  V30 29 1 1 27
M  V30 30 1 1 28
M  V30 31 1 1 29
M  V30 32 1 2 30 CFG=1
M  V30 33 1 3 31
M  V30 34 1 3 32
M  V30 35 1 4 33
M  V30 36 1 5 34
M  V30 37 1 5 35
M  V30 38 1 6 36 CFG=3
M  V30 39 1 9 37
M  V30 40 1 12 38
M  V30 41 1 15 39
M  V30 42 1 15 40
M  V30 43 1 18 41
M  V30 44 1 21 42
M  V30 45 1 21 43
M  V30 46 1 21 44
M  V30 47 1 22 45
M  V30 48 1 22 46
M  V30 49 1 22 47
M  V30 50 1 23 48
M  V30 51 1 23 49
M  V30 52 1 23 50
M  V30 53 1 26 51
M  V30 54 1 26 52
M  V30 END BOND
M  V30 END CTAB
M  END
>  <Dataset>  (895) 
ChEMBL_Kinases

>  <Ligand_Instance>  (895) 
nan

>  <PDB_ID>  (895) 
nan

>  <Standardized_SMILES>  (895) 
C[C@@H]1CNC[C@@H](C(=O)Nc2ncc(SCc3ncc(C(C)(C)C)o3)s2)C1

>  <Name>  (895) 
nan

>  <Pocket>  (895) 
nan

>  <ATP_Site>  (895) 
nan

>  <Peripheral>  (895) 
nan

>  <Num_H_Atoms_ProtBoundConf>  (895) 
nan

>  <Num_Resolved_Atoms>  (895) 
nan

>  <Num_Not_Resolved_Atoms>  (895) 
nan

$$$$
CHEMBL374241
     RDKit          3D

  0  0  0  0  0  0  0  0  0  0999 V3000
M  V30 BEGIN CTAB
M  V30 COUNTS 48 51 0 0 0
M  V30 BEGIN ATOM
M  V30 1 C 0.041827 1.712226 6.286599 0
M  V30 2 C -0.766483 0.418336 6.290838 0
M  V30 3 C -0.622430 -0.272094 4.987540 0
M  V30 4 N 0.271593 -1.182526 4.577835 0
M  V30 5 C 0.028345 -1.551027 3.286671 0
M  V30 6 C 0.927406 -2.567158 2.681104 0
M  V30 7 N 2.122928 -1.993155 2.098480 0
M  V30 8 C 2.297298 -1.126284 0.990395 0
M  V30 9 C 3.564088 -0.665425 0.613001 0
M  V30 10 C 3.730961 0.166070 -0.466851 0
M  V30 11 C 2.659219 0.582601 -1.225353 0
M  V30 12 N 2.854600 1.397250 -2.277163 0
M  V30 13 C 1.830278 1.828930 -3.047016 0
M  V30 14 C 0.535455 1.410423 -2.731727 0
M  V30 15 C -0.555970 1.866346 -3.546609 0
M  V30 16 N -1.445666 2.237568 -4.192613 0
M  V30 17 C 0.313879 0.567575 -1.647176 0
M  V30 18 N -0.984479 0.146497 -1.329126 0
M  V30 19 C -1.674404 -1.003467 -1.792308 0
M  V30 20 C -2.965553 -1.327118 -1.410997 0
M  V30 21 C -3.538627 -2.475246 -1.927415 0
M  V30 22 C -2.869745 -3.304158 -2.805222 0
M  V30 23 F -3.427300 -4.434012 -3.316405 0
M  V30 24 C -1.567254 -2.959013 -3.177150 0
M  V30 25 Cl -0.656524 -3.956456 -4.282807 0
M  V30 26 C -0.959542 -1.812495 -2.677989 0
M  V30 27 C 1.391491 0.153556 -0.890882 0
M  V30 28 C 1.270415 -0.673163 0.191003 0
M  V30 29 C -1.073862 -0.798604 2.950561 0
M  V30 30 N -1.467445 -0.026136 3.976290 0
M  V30 31 H -0.023674 2.211181 5.297346 0
M  V30 32 H 1.096884 1.530393 6.578930 0
M  V30 33 H -0.388283 2.348835 7.104384 0
M  V30 34 H -1.810496 0.693316 6.501470 0
M  V30 35 H -0.369426 -0.229611 7.099534 0
M  V30 36 H 0.376433 -3.041178 1.825238 0
M  V30 37 H 1.218428 -3.327846 3.430291 0
M  V30 38 H 3.040305 -2.260022 2.577240 0
M  V30 39 H 4.441681 -0.980417 1.199249 0
M  V30 40 H 4.740849 0.472836 -0.686649 0
M  V30 41 H 2.046364 2.472230 -3.865950 0
M  V30 42 H -1.424797 0.835801 -0.653315 0
M  V30 43 H -3.463131 -0.660953 -0.724188 0
M  V30 44 H -4.561645 -2.737544 -1.629291 0
M  V30 45 H 0.061155 -1.580245 -2.995544 0
M  V30 46 H 0.272311 -0.976567 0.396989 0
M  V30 47 H -1.482485 -0.908819 1.957270 0
M  V30 48 H -2.290943 0.611553 3.896211 0
M  V30 END ATOM
M  V30 BEGIN BOND
M  V30 1 1 1 2
M  V30 2 1 2 3
M  V30 3 2 3 4
M  V30 4 1 4 5
M  V30 5 1 5 6
M  V30 6 1 6 7
M  V30 7 1 7 8
M  V30 8 2 8 9
M  V30 9 1 9 10
M  V30 10 2 10 11
M  V30 11 1 11 12
M  V30 12 2 12 13
M  V30 13 1 13 14
M  V30 14 1 14 15
M  V30 15 3 15 16
M  V30 16 2 14 17
M  V30 17 1 17 18
M  V30 18 1 18 19
M  V30 19 2 19 20
M  V30 20 1 20 21
M  V30 21 2 21 22
M  V30 22 1 22 23
M  V30 23 1 22 24
M  V30 24 1 24 25
M  V30 25 2 24 26
M  V30 26 1 17 27
M  V30 27 2 27 28
M  V30 28 2 5 29
M  V30 29 1 29 30
M  V30 30 1 30 3
M  V30 31 1 28 8
M  V30 32 1 27 11
M  V30 33 1 26 19
M  V30 34 1 1 31
M  V30 35 1 1 32
M  V30 36 1 1 33
M  V30 37 1 2 34
M  V30 38 1 2 35
M  V30 39 1 6 36
M  V30 40 1 6 37
M  V30 41 1 7 38
M  V30 42 1 9 39
M  V30 43 1 10 40
M  V30 44 1 13 41
M  V30 45 1 18 42
M  V30 46 1 20 43
M  V30 47 1 21 44
M  V30 48 1 26 45
M  V30 49 1 28 46
M  V30 50 1 29 47
M  V30 51 1 30 48
M  V30 END BOND
M  V30 END CTAB
M  END
>  <Dataset>  (896) 
ChEMBL_Kinases

>  <Ligand_Instance>  (896) 
nan

>  <PDB_ID>  (896) 
nan

>  <Standardized_SMILES>  (896) 
CCc1nc(CNc2ccc3ncc(C#N)c(Nc4ccc(F)c(Cl)c4)c3c2)c[nH]1

>  <Name>  (896) 
nan

>  <Pocket>  (896) 
nan

>  <ATP_Site>  (896) 
nan

>  <Peripheral>  (896) 
nan

>  <Num_H_Atoms_ProtBoundConf>  (896) 
nan

>  <Num_Resolved_Atoms>  (896) 
nan

>  <Num_Not_Resolved_Atoms>  (896) 
nan

$$$$
CHEMBL3742349
     RDKit          3D

  0  0  0  0  0  0  0  0  0  0999 V3000
M  V30 BEGIN CTAB
M  V30 COUNTS 64 68 0 0 0
M  V30 BEGIN ATOM
M  V30 1 C 3.472635 -0.495116 4.484302 0
M  V30 2 C 2.383149 -1.314951 3.825475 0
M  V30 3 O 1.462888 -0.383489 3.236771 0
M  V30 4 C 0.340108 -0.814430 2.548795 0
M  V30 5 O 0.364777 -2.066926 2.588220 0
M  V30 6 C -0.627526 0.070785 1.931444 0
M  V30 7 N -0.490177 1.427316 2.003074 0
M  V30 8 N -1.506565 1.992495 1.384414 0
M  V30 9 C -1.614029 3.408866 1.307776 0
M  V30 10 C -1.057142 4.055509 0.204102 0
M  V30 11 C -1.118012 5.431864 0.053062 0
M  V30 12 C -1.747620 6.193830 1.020610 0
M  V30 13 C -1.833108 7.675224 0.893913 0
M  V30 14 C -2.297214 5.521342 2.116155 0
M  V30 15 C -2.248522 4.154417 2.286773 0
M  V30 16 C -2.291764 1.007490 0.917793 0
M  V30 17 C -1.752012 -0.240347 1.253254 0
M  V30 18 C -2.286021 -1.541144 0.898207 0
M  V30 19 O -3.517165 -1.568456 1.252200 0
M  V30 20 C -1.734374 -2.705081 0.274170 0
M  V30 21 C -2.418419 -3.903072 0.248191 0
M  V30 22 C -3.747756 -4.256355 0.824837 0
M  V30 23 N -1.613610 -4.765366 -0.442057 0
M  V30 24 C -0.465132 -4.187136 -0.853384 0
M  V30 25 C 0.537337 -4.933626 -1.604698 0
M  V30 26 C 0.078581 -5.274762 -2.873794 0
M  V30 27 C 0.871611 -5.987732 -3.748162 0
M  V30 28 C 2.143300 -6.383752 -3.390194 0
M  V30 29 C 2.586466 -6.040883 -2.132655 0
M  V30 30 C 1.807790 -5.328779 -1.245609 0
M  V30 31 C -0.544057 -2.884482 -0.399604 0
M  V30 32 C 0.478813 -1.917216 -0.647731 0
M  V30 33 C 1.822556 -1.843950 -0.298646 0
M  V30 34 C 2.589467 -0.768646 -0.687313 0
M  V30 35 C 2.107465 0.270617 -1.418526 0
M  V30 36 C 0.761719 0.234590 -1.789232 0
M  V30 37 C -0.029781 -0.848238 -1.403475 0
M  V30 38 H 3.985752 -1.119780 5.233433 0
M  V30 39 H 3.048139 0.395569 4.984979 0
M  V30 40 H 4.197830 -0.111331 3.708413 0
M  V30 41 H 1.911154 -1.958087 4.569313 0
M  V30 42 H 2.890935 -1.913552 3.025686 0
M  V30 43 H -0.546930 3.506486 -0.592776 0
M  V30 44 H -0.699834 5.950549 -0.781323 0
M  V30 45 H -2.362920 8.057120 1.777922 0
M  V30 46 H -0.812833 8.139939 0.910783 0
M  V30 47 H -2.402326 7.999483 -0.003024 0
M  V30 48 H -2.803670 6.083064 2.904617 0
M  V30 49 H -2.680505 3.663994 3.140762 0
M  V30 50 H -3.211204 1.201531 0.360979 0
M  V30 51 H -4.504889 -3.528342 0.458974 0
M  V30 52 H -3.701010 -4.332659 1.927024 0
M  V30 53 H -4.064418 -5.233449 0.410340 0
M  V30 54 H -1.894344 -5.758616 -0.611657 0
M  V30 55 H -0.887895 -5.046046 -3.316158 0
M  V30 56 H 0.570713 -6.284511 -4.752628 0
M  V30 57 H 2.877296 -6.939897 -3.954868 0
M  V30 58 H 3.561038 -6.274205 -1.692698 0
M  V30 59 H 2.071311 -5.020384 -0.244318 0
M  V30 60 H 2.112456 -2.696589 0.273330 0
M  V30 61 H 3.621687 -0.794790 -0.372479 0
M  V30 62 H 2.720398 1.108836 -1.717139 0
M  V30 63 H 0.408474 1.062701 -2.362759 0
M  V30 64 H -1.062595 -0.732821 -1.769476 0
M  V30 END ATOM
M  V30 BEGIN BOND
M  V30 1 1 1 2
M  V30 2 1 2 3
M  V30 3 1 3 4
M  V30 4 2 4 5
M  V30 5 1 4 6
M  V30 6 2 6 7
M  V30 7 1 7 8
M  V30 8 1 8 9
M  V30 9 2 9 10
M  V30 10 1 10 11
M  V30 11 2 11 12
M  V30 12 1 12 13
M  V30 13 1 12 14
M  V30 14 2 14 15
M  V30 15 1 8 16
M  V30 16 2 16 17
M  V30 17 1 17 18
M  V30 18 2 18 19
M  V30 19 1 18 20
M  V30 20 2 20 21
M  V30 21 1 21 22
M  V30 22 1 21 23
M  V30 23 1 23 24
M  V30 24 1 24 25
M  V30 25 2 25 26
M  V30 26 1 26 27
M  V30 27 2 27 28
M  V30 28 1 28 29
M  V30 29 2 29 30
M  V30 30 2 24 31
M  V30 31 1 31 32
M  V30 32 2 32 33
M  V30 33 1 33 34
M  V30 34 2 34 35
M  V30 35 1 35 36
M  V30 36 2 36 37
M  V30 37 1 17 6
M  V30 38 1 31 20
M  V30 39 1 37 32
M  V30 40 1 15 9
M  V30 41 1 30 25
M  V30 42 1 1 38
M  V30 43 1 1 39
M  V30 44 1 1 40
M  V30 45 1 2 41
M  V30 46 1 2 42
M  V30 47 1 10 43
M  V30 48 1 11 44
M  V30 49 1 13 45
M  V30 50 1 13 46
M  V30 51 1 13 47
M  V30 52 1 14 48
M  V30 53 1 15 49
M  V30 54 1 16 50
M  V30 55 1 22 51
M  V30 56 1 22 52
M  V30 57 1 22 53
M  V30 58 1 23 54
M  V30 59 1 26 55
M  V30 60 1 27 56
M  V30 61 1 28 57
M  V30 62 1 29 58
M  V30 63 1 30 59
M  V30 64 1 33 60
M  V30 65 1 34 61
M  V30 66 1 35 62
M  V30 67 1 36 63
M  V30 68 1 37 64
M  V30 END BOND
M  V30 END CTAB
M  END
>  <Dataset>  (897) 
ChEMBL_Kinases

>  <Ligand_Instance>  (897) 
nan

>  <PDB_ID>  (897) 
nan

>  <Standardized_SMILES>  (897) 
CCOC(=O)c1nn(-c2ccc(C)cc2)cc1C(=O)c1c(C)[nH]c(-c2ccccc2)c1-c1ccccc1

>  <Name>  (897) 
nan

>  <Pocket>  (897) 
nan

>  <ATP_Site>  (897) 
nan

>  <Peripheral>  (897) 
nan

>  <Num_H_Atoms_ProtBoundConf>  (897) 
nan

>  <Num_Resolved_Atoms>  (897) 
nan

>  <Num_Not_Resolved_Atoms>  (897) 
nan

$$$$
CHEMBL3742200
     RDKit          3D

  0  0  0  0  0  0  0  0  0  0999 V3000
M  V30 BEGIN CTAB
M  V30 COUNTS 52 57 0 0 0
M  V30 BEGIN ATOM
M  V30 1 O -0.784662 -5.847468 3.312309 0
M  V30 2 C -0.138879 -4.705816 2.859536 0
M  V30 3 N 0.877122 -4.108418 3.506461 0
M  V30 4 N 1.502675 -3.022201 3.089213 0
M  V30 5 C 1.133846 -2.434918 1.942269 0
M  V30 6 C 1.886259 -1.258872 1.583198 0
M  V30 7 C 3.230087 -1.267897 1.343488 0
M  V30 8 N 3.607386 -0.002861 1.036329 0
M  V30 9 C 2.540131 0.848443 1.067311 0
M  V30 10 C 2.691934 2.258540 0.772502 0
M  V30 11 C 2.202815 3.024844 -0.235508 0
M  V30 12 C 2.474836 4.367774 -0.325444 0
M  V30 13 C 3.266432 4.965153 0.629875 0
M  V30 14 C 3.790133 4.229415 1.678261 0
M  V30 15 C 3.497021 2.875294 1.741268 0
M  V30 16 C 1.493557 0.048094 1.406743 0
M  V30 17 C 0.133912 0.539128 1.557041 0
M  V30 18 C -0.711750 1.079419 0.610518 0
M  V30 19 C -1.983755 1.497037 0.941926 0
M  V30 20 C -2.466935 1.392954 2.235065 0
M  V30 21 C -1.631895 0.854448 3.191380 0
M  V30 22 C -0.359868 0.436186 2.863430 0
M  V30 23 C 0.095929 -2.998511 1.229023 0
M  V30 24 C -0.450414 -2.572837 0.035227 0
M  V30 25 N -1.424837 -3.462801 -0.224210 0
M  V30 26 C -2.313723 -3.500617 -1.337757 0
M  V30 27 C -1.913443 -3.152038 -2.615654 0
M  V30 28 C -2.787199 -3.190022 -3.707362 0
M  V30 29 C -4.098644 -3.589657 -3.506138 0
M  V30 30 Cl -5.117354 -3.603936 -4.939504 0
M  V30 31 C -4.516981 -3.942796 -2.230417 0
M  V30 32 C -3.642130 -3.899743 -1.164529 0
M  V30 33 N -1.479326 -4.379398 0.743676 0
M  V30 34 C -0.551579 -4.134453 1.673687 0
M  V30 35 H -1.572802 -5.727564 3.918633 0
M  V30 36 H 3.906036 -2.113535 1.381789 0
M  V30 37 H 4.609412 0.252403 0.807973 0
M  V30 38 H 1.605208 2.481051 -0.926896 0
M  V30 39 H 2.071599 4.938828 -1.132165 0
M  V30 40 H 3.479075 6.027676 0.554583 0
M  V30 41 H 4.401544 4.749048 2.394977 0
M  V30 42 H 3.964140 2.397022 2.611472 0
M  V30 43 H -0.281561 1.131717 -0.368711 0
M  V30 44 H -2.535051 1.900690 0.096480 0
M  V30 45 H -3.476109 1.764932 2.316444 0
M  V30 46 H -2.066895 0.801445 4.177770 0
M  V30 47 H 0.163917 0.042582 3.712842 0
M  V30 48 H -0.168611 -1.730421 -0.553062 0
M  V30 49 H -0.878115 -2.842192 -2.741644 0
M  V30 50 H -2.334126 -2.888474 -4.654728 0
M  V30 51 H -5.555487 -4.238952 -2.180818 0
M  V30 52 H -4.018533 -4.184269 -0.194465 0
M  V30 END ATOM
M  V30 BEGIN BOND
M  V30 1 1 1 2
M  V30 2 2 2 3
M  V30 3 1 3 4
M  V30 4 2 4 5
M  V30 5 1 5 6
M  V30 6 2 6 7
M  V30 7 1 7 8
M  V30 8 1 8 9
M  V30 9 1 9 10
M  V30 10 2 10 11
M  V30 11 1 11 12
M  V30 12 2 12 13
M  V30 13 1 13 14
M  V30 14 2 14 15
M  V30 15 2 9 16
M  V30 16 1 16 17
M  V30 17 2 17 18
M  V30 18 1 18 19
M  V30 19 2 19 20
M  V30 20 1 20 21
M  V30 21 2 21 22
M  V30 22 1 5 23
M  V30 23 2 23 24
M  V30 24 1 24 25
M  V30 25 1 25 26
M  V30 26 2 26 27
M  V30 27 1 27 28
M  V30 28 2 28 29
M  V30 29 1 29 30
M  V30 30 1 29 31
M  V30 31 2 31 32
M  V30 32 1 25 33
M  V30 33 2 33 34
M  V30 34 1 34 2
M  V30 35 1 16 6
M  V30 36 1 22 17
M  V30 37 1 34 23
M  V30 38 1 15 10
M  V30 39 1 32 26
M  V30 40 1 1 35
M  V30 41 1 7 36
M  V30 42 1 8 37
M  V30 43 1 11 38
M  V30 44 1 12 39
M  V30 45 1 13 40
M  V30 46 1 14 41
M  V30 47 1 15 42
M  V30 48 1 18 43
M  V30 49 1 19 44
M  V30 50 1 20 45
M  V30 51 1 21 46
M  V30 52 1 22 47
M  V30 53 1 24 48
M  V30 54 1 27 49
M  V30 55 1 28 50
M  V30 56 1 31 51
M  V30 57 1 32 52
M  V30 END BOND
M  V30 END CTAB
M  END
>  <Dataset>  (898) 
ChEMBL_Kinases

>  <Ligand_Instance>  (898) 
nan

>  <PDB_ID>  (898) 
nan

>  <Standardized_SMILES>  (898) 
Oc1nnc(-c2c[nH]c(-c3ccccc3)c2-c2ccccc2)c2cn(-c3ccc(Cl)cc3)nc12

>  <Name>  (898) 
nan

>  <Pocket>  (898) 
nan

>  <ATP_Site>  (898) 
nan

>  <Peripheral>  (898) 
nan

>  <Num_H_Atoms_ProtBoundConf>  (898) 
nan

>  <Num_Resolved_Atoms>  (898) 
nan

>  <Num_Not_Resolved_Atoms>  (898) 
nan

$$$$
CHEMBL510668
     RDKit          3D

  0  0  0  0  0  0  0  0  0  0999 V3000
M  V30 BEGIN CTAB
M  V30 COUNTS 59 64 0 0 0
M  V30 BEGIN ATOM
M  V30 1 O 4.317865 1.033016 2.043639 0
M  V30 2 C 3.496532 1.204723 1.123181 0
M  V30 3 N 3.733596 1.842782 -0.152298 0
M  V30 4 C 2.536311 1.817442 -0.879869 0
M  V30 5 O 2.561363 2.327678 -2.007356 0
M  V30 6 C 1.484001 1.178783 -0.135284 0
M  V30 7 C 2.081138 0.826313 1.046804 0
M  V30 8 C 1.378262 0.173302 2.035724 0
M  V30 9 C 1.798494 -0.257361 3.358930 0
M  V30 10 C 2.416824 0.572066 4.284331 0
M  V30 11 C 2.837196 0.208678 5.537234 0
M  V30 12 C 2.628594 -1.101898 5.919894 0
M  V30 13 C 2.010170 -1.980118 5.027282 0
M  V30 14 C 1.602118 -1.564170 3.767614 0
M  V30 15 C 0.050362 -0.126104 1.817460 0
M  V30 16 C -0.583802 0.222476 0.617682 0
M  V30 17 C 0.172578 0.874973 -0.330515 0
M  V30 18 C -0.623118 1.130891 -1.404887 0
M  V30 19 C -0.558028 1.708732 -2.634041 0
M  V30 20 C -1.593986 1.814167 -3.532436 0
M  V30 21 O -1.508168 2.407805 -4.783314 0
M  V30 22 C -2.837178 1.287366 -3.172868 0
M  V30 23 C -2.948040 0.691581 -1.933611 0
M  V30 24 C -1.859918 0.622901 -1.083083 0
M  V30 25 N -1.862087 0.055977 0.160626 0
M  V30 26 C -2.943892 -0.549087 0.856052 0
M  V30 27 C -3.207960 -1.986144 0.613980 0
M  V30 28 C -2.116528 -2.945929 0.913051 0
M  V30 29 N -0.967937 -2.667135 0.083773 0
M  V30 30 C -1.227111 -2.958007 -1.315469 0
M  V30 31 C 0.091284 -2.750662 -2.030963 0
M  V30 32 O 0.849507 -3.885640 -1.785122 0
M  V30 33 C 0.685200 -4.391652 -0.511616 0
M  V30 34 C 0.209959 -3.386612 0.491207 0
M  V30 35 H 4.691936 2.218622 -0.367943 0
M  V30 36 H 2.594297 1.613114 4.037541 0
M  V30 37 H 3.315093 0.899487 6.213619 0
M  V30 38 H 2.925871 -1.481536 6.891583 0
M  V30 39 H 1.825228 -3.016502 5.278672 0
M  V30 40 H 1.118983 -2.293241 3.098989 0
M  V30 41 H -0.616354 -0.633623 2.503877 0
M  V30 42 H 0.338834 2.137911 -3.002844 0
M  V30 43 H -0.957663 3.264281 -4.864153 0
M  V30 44 H -3.681251 1.345133 -3.841970 0
M  V30 45 H -3.913936 0.291166 -1.670740 0
M  V30 46 H -3.880585 0.018054 0.580653 0
M  V30 47 H -2.839440 -0.416607 1.955522 0
M  V30 48 H -3.606847 -2.082912 -0.421460 0
M  V30 49 H -4.090882 -2.263036 1.265320 0
M  V30 50 H -2.472957 -3.983968 0.861011 0
M  V30 51 H -1.780616 -2.774623 1.960293 0
M  V30 52 H -1.636234 -3.966486 -1.480899 0
M  V30 53 H -1.952822 -2.242492 -1.752808 0
M  V30 54 H 0.574510 -1.854356 -1.560555 0
M  V30 55 H -0.118372 -2.628804 -3.103312 0
M  V30 56 H 0.011116 -5.269241 -0.544183 0
M  V30 57 H 1.674780 -4.760138 -0.174843 0
M  V30 58 H 1.019862 -2.655183 0.700048 0
M  V30 59 H 0.022718 -3.931094 1.442396 0
M  V30 END ATOM
M  V30 BEGIN BOND
M  V30 1 2 1 2
M  V30 2 1 2 3
M  V30 3 1 3 4
M  V30 4 2 4 5
M  V30 5 1 4 6
M  V30 6 2 6 7
M  V30 7 1 7 8
M  V30 8 1 8 9
M  V30 9 2 9 10
M  V30 10 1 10 11
M  V30 11 2 11 12
M  V30 12 1 12 13
M  V30 13 2 13 14
M  V30 14 2 8 15
M  V30 15 1 15 16
M  V30 16 2 16 17
M  V30 17 1 17 18
M  V30 18 2 18 19
M  V30 19 1 19 20
M  V30 20 1 20 21
M  V30 21 2 20 22
M  V30 22 1 22 23
M  V30 23 2 23 24
M  V30 24 1 24 25
M  V30 25 1 25 26
M  V30 26 1 26 27
M  V30 27 1 27 28
M  V30 28 1 28 29
M  V30 29 1 29 30
M  V30 30 1 30 31
M  V30 31 1 31 32
M  V30 32 1 32 33
M  V30 33 1 33 34
M  V30 34 1 7 2
M  V30 35 1 14 9
M  V30 36 1 25 16
M  V30 37 1 34 29
M  V30 38 1 17 6
M  V30 39 1 24 18
M  V30 40 1 3 35
M  V30 41 1 10 36
M  V30 42 1 11 37
M  V30 43 1 12 38
M  V30 44 1 13 39
M  V30 45 1 14 40
M  V30 46 1 15 41
M  V30 47 1 19 42
M  V30 48 1 21 43
M  V30 49 1 22 44
M  V30 50 1 23 45
M  V30 51 1 26 46
M  V30 52 1 26 47
M  V30 53 1 27 48
M  V30 54 1 27 49
M  V30 55 1 28 50
M  V30 56 1 28 51
M  V30 57 1 30 52
M  V30 58 1 30 53
M  V30 59 1 31 54
M  V30 60 1 31 55
M  V30 61 1 33 56
M  V30 62 1 33 57
M  V30 63 1 34 58
M  V30 64 1 34 59
M  V30 END BOND
M  V30 END CTAB
M  END
>  <Dataset>  (899) 
ChEMBL_Kinases

>  <Ligand_Instance>  (899) 
nan

>  <PDB_ID>  (899) 
nan

>  <Standardized_SMILES>  (899) 
O=C1NC(=O)c2c1c(-c1ccccc1)cc1c2c2cc(O)ccc2n1CCCN1CCOCC1

>  <Name>  (899) 
nan

>  <Pocket>  (899) 
nan

>  <ATP_Site>  (899) 
nan

>  <Peripheral>  (899) 
nan

>  <Num_H_Atoms_ProtBoundConf>  (899) 
nan

>  <Num_Resolved_Atoms>  (899) 
nan

>  <Num_Not_Resolved_Atoms>  (899) 
nan

$$$$
CHEMBL3742060
     RDKit          3D

  0  0  0  0  0  0  0  0  0  0999 V3000
M  V30 BEGIN CTAB
M  V30 COUNTS 60 65 0 0 0
M  V30 BEGIN ATOM
M  V30 1 C 2.777166 -3.393451 6.583625 0
M  V30 2 C 2.674072 -2.952623 5.182066 0
M  V30 3 C 3.692531 -3.260476 4.285664 0
M  V30 4 C 3.521548 -2.813159 2.996298 0
M  V30 5 C 2.429497 -2.098837 2.559005 0
M  V30 6 N 2.343774 -1.679063 1.202851 0
M  V30 7 C 1.432152 -0.829544 0.686632 0
M  V30 8 C 1.669546 -0.661201 -0.670509 0
M  V30 9 C 1.122416 0.047135 -1.735231 0
M  V30 10 C -0.039016 0.878314 -1.436319 0
M  V30 11 C -0.179828 2.247521 -1.515488 0
M  V30 12 C 0.922891 3.155548 -1.955523 0
M  V30 13 N -1.411939 2.647282 -1.153093 0
M  V30 14 C -2.077145 1.499114 -0.833041 0
M  V30 15 C -3.464849 1.582130 -0.391291 0
M  V30 16 C -3.981771 2.226962 0.700888 0
M  V30 17 C -5.345531 2.179389 0.939819 0
M  V30 18 C -6.203488 1.485185 0.086306 0
M  V30 19 C -5.676132 0.838891 -1.010379 0
M  V30 20 C -4.316606 0.884766 -1.250810 0
M  V30 21 C -1.258395 0.399403 -0.997771 0
M  V30 22 C -1.674342 -0.989723 -0.738664 0
M  V30 23 C -2.078325 -1.580695 0.437635 0
M  V30 24 C -2.421874 -2.915845 0.416646 0
M  V30 25 C -2.368990 -3.656697 -0.740619 0
M  V30 26 C -1.964405 -3.071915 -1.927068 0
M  V30 27 C -1.614715 -1.718340 -1.912203 0
M  V30 28 N 1.664084 -0.053933 -2.969160 0
M  V30 29 N 2.721854 -0.821952 -3.203816 0
M  V30 30 C 3.311406 -1.542372 -2.220016 0
M  V30 31 C 4.492034 -2.420528 -2.405367 0
M  V30 32 C 2.781721 -1.464281 -0.934192 0
M  V30 33 N 3.153956 -2.059858 0.228527 0
M  V30 34 C 1.424292 -1.798383 3.456002 0
M  V30 35 C 1.583990 -2.242674 4.756778 0
M  V30 36 H 2.007946 -4.151604 6.805169 0
M  V30 37 H 3.776014 -3.856940 6.764166 0
M  V30 38 H 2.666173 -2.545575 7.292977 0
M  V30 39 H 4.565534 -3.823956 4.607350 0
M  V30 40 H 4.314807 -3.050517 2.290767 0
M  V30 41 H 0.616439 -0.321236 1.188930 0
M  V30 42 H 0.923374 4.029519 -1.243967 0
M  V30 43 H 1.922643 2.685621 -1.802705 0
M  V30 44 H 0.773571 3.561451 -2.959520 0
M  V30 45 H -1.742615 3.638073 -1.136647 0
M  V30 46 H -3.243490 2.728356 1.290132 0
M  V30 47 H -5.646491 2.718946 1.822852 0
M  V30 48 H -7.274007 1.490163 0.337335 0
M  V30 49 H -6.375716 0.315079 -1.642905 0
M  V30 50 H -4.019538 0.336709 -2.145169 0
M  V30 51 H -2.074061 -0.889157 1.265145 0
M  V30 52 H -2.728221 -3.321188 1.358684 0
M  V30 53 H -2.643345 -4.702603 -0.731820 0
M  V30 54 H -1.941267 -3.697243 -2.803283 0
M  V30 55 H -1.317278 -1.382831 -2.899783 0
M  V30 56 H 4.198117 -3.460979 -2.710239 0
M  V30 57 H 5.118312 -2.445997 -1.514317 0
M  V30 58 H 5.074207 -2.002085 -3.251568 0
M  V30 59 H 0.569022 -1.235352 3.100068 0
M  V30 60 H 0.794965 -2.007706 5.465037 0
M  V30 END ATOM
M  V30 BEGIN BOND
M  V30 1 1 1 2
M  V30 2 2 2 3
M  V30 3 1 3 4
M  V30 4 2 4 5
M  V30 5 1 5 6
M  V30 6 1 6 7
M  V30 7 2 7 8
M  V30 8 1 8 9
M  V30 9 1 9 10
M  V30 10 2 10 11
M  V30 11 1 11 12
M  V30 12 1 11 13
M  V30 13 1 13 14
M  V30 14 1 14 15
M  V30 15 2 15 16
M  V30 16 1 16 17
M  V30 17 2 17 18
M  V30 18 1 18 19
M  V30 19 2 19 20
M  V30 20 2 14 21
M  V30 21 1 21 22
M  V30 22 2 22 23
M  V30 23 1 23 24
M  V30 24 2 24 25
M  V30 25 1 25 26
M  V30 26 2 26 27
M  V30 27 2 9 28
M  V30 28 1 28 29
M  V30 29 2 29 30
M  V30 30 1 30 31
M  V30 31 1 30 32
M  V30 32 2 32 33
M  V30 33 1 5 34
M  V30 34 2 34 35
M  V30 35 1 35 2
M  V30 36 1 33 6
M  V30 37 1 32 8
M  V30 38 1 21 10
M  V30 39 1 27 22
M  V30 40 1 20 15
M  V30 41 1 1 36
M  V30 42 1 1 37
M  V30 43 1 1 38
M  V30 44 1 3 39
M  V30 45 1 4 40
M  V30 46 1 7 41
M  V30 47 1 12 42
M  V30 48 1 12 43
M  V30 49 1 12 44
M  V30 50 1 13 45
M  V30 51 1 16 46
M  V30 52 1 17 47
M  V30 53 1 18 48
M  V30 54 1 19 49
M  V30 55 1 20 50
M  V30 56 1 23 51
M  V30 57 1 24 52
M  V30 58 1 25 53
M  V30 59 1 26 54
M  V30 60 1 27 55
M  V30 61 1 31 56
M  V30 62 1 31 57
M  V30 63 1 31 58
M  V30 64 1 34 59
M  V30 65 1 35 60
M  V30 END BOND
M  V30 END CTAB
M  END
>  <Dataset>  (900) 
ChEMBL_Kinases

>  <Ligand_Instance>  (900) 
nan

>  <PDB_ID>  (900) 
nan

>  <Standardized_SMILES>  (900) 
Cc1ccc(-n2cc3c(-c4c(C)[nH]c(-c5ccccc5)c4-c4ccccc4)nnc(C)c3n2)cc1

>  <Name>  (900) 
nan

>  <Pocket>  (900) 
nan

>  <ATP_Site>  (900) 
nan

>  <Peripheral>  (900) 
nan

>  <Num_H_Atoms_ProtBoundConf>  (900) 
nan

>  <Num_Resolved_Atoms>  (900) 
nan

>  <Num_Not_Resolved_Atoms>  (900) 
nan

$$$$
CHEMBL3741960
     RDKit          3D

  0  0  0  0  0  0  0  0  0  0999 V3000
M  V30 BEGIN CTAB
M  V30 COUNTS 49 53 0 0 0
M  V30 BEGIN ATOM
M  V30 1 C -0.371753 -1.979381 3.890798 0
M  V30 2 C -0.049669 -1.550990 2.517733 0
M  V30 3 C 0.933539 -0.781905 1.934158 0
M  V30 4 C 1.978376 -0.178472 2.747436 0
M  V30 5 O 2.010778 -0.371026 3.976118 0
M  V30 6 C 3.081547 0.679368 2.342139 0
M  V30 7 C 4.428385 0.573632 2.714440 0
M  V30 8 O 5.112111 1.528554 2.135476 0
M  V30 9 C 4.362712 2.291969 1.391634 0
M  V30 10 C 4.620628 3.406117 0.599682 0
M  V30 11 C 3.614563 4.035593 -0.096878 0
M  V30 12 C 2.334374 3.522645 0.016799 0
M  V30 13 O 1.276947 4.103797 -0.654170 0
M  V30 14 C 2.103819 2.420991 0.804974 0
M  V30 15 C 3.072174 1.775257 1.505457 0
M  V30 16 N 0.719624 -0.734975 0.608140 0
M  V30 17 C -0.389366 -1.454222 0.266311 0
M  V30 18 C -0.813164 -1.542584 -1.126228 0
M  V30 19 C -0.879912 -2.610687 -1.997288 0
M  V30 20 C -1.331253 -2.406102 -3.282295 0
M  V30 21 C -1.724024 -1.170481 -3.745222 0
M  V30 22 C -1.667847 -0.085519 -2.896779 0
M  V30 23 C -1.213181 -0.284676 -1.598067 0
M  V30 24 C -0.867163 -1.961722 1.456661 0
M  V30 25 C -2.053722 -2.789526 1.496291 0
M  V30 26 C -3.078318 -2.150907 2.193984 0
M  V30 27 C -4.322045 -2.763657 2.361373 0
M  V30 28 C -4.581710 -4.015633 1.846088 0
M  V30 29 C -3.551952 -4.615650 1.165692 0
M  V30 30 C -2.322087 -4.046969 0.981783 0
M  V30 31 H 0.588837 -2.144469 4.426507 0
M  V30 32 H -0.930677 -1.246285 4.490378 0
M  V30 33 H -0.831034 -3.012564 3.904488 0
M  V30 34 H 4.789377 -0.203689 3.384320 0
M  V30 35 H 5.617438 3.814266 0.505306 0
M  V30 36 H 3.763031 4.907929 -0.729414 0
M  V30 37 H 0.657019 3.626322 -1.290669 0
M  V30 38 H 1.094006 2.030114 0.884567 0
M  V30 39 H 1.339635 -0.212349 -0.042413 0
M  V30 40 H -0.546713 -3.519681 -1.527351 0
M  V30 41 H -1.350857 -3.293852 -3.893252 0
M  V30 42 H -2.061494 -1.128583 -4.773436 0
M  V30 43 H -1.979123 0.856406 -3.287019 0
M  V30 44 H -1.215338 0.656327 -1.022256 0
M  V30 45 H -3.038706 -1.168412 2.660648 0
M  V30 46 H -5.144617 -2.292709 2.901194 0
M  V30 47 H -5.484114 -4.571151 1.913483 0
M  V30 48 H -3.642333 -5.599226 0.718705 0
M  V30 49 H -1.463848 -4.448680 0.465573 0
M  V30 END ATOM
M  V30 BEGIN BOND
M  V30 1 1 1 2
M  V30 2 2 2 3
M  V30 3 1 3 4
M  V30 4 2 4 5
M  V30 5 1 4 6
M  V30 6 2 6 7
M  V30 7 1 7 8
M  V30 8 1 8 9
M  V30 9 2 9 10
M  V30 10 1 10 11
M  V30 11 2 11 12
M  V30 12 1 12 13
M  V30 13 1 12 14
M  V30 14 2 14 15
M  V30 15 1 3 16
M  V30 16 1 16 17
M  V30 17 1 17 18
M  V30 18 2 18 19
M  V30 19 1 19 20
M  V30 20 2 20 21
M  V30 21 1 21 22
M  V30 22 2 22 23
M  V30 23 2 17 24
M  V30 24 1 24 25
M  V30 25 2 25 26
M  V30 26 1 26 27
M  V30 27 2 27 28
M  V30 28 1 28 29
M  V30 29 2 29 30
M  V30 30 1 24 2
M  V30 31 1 30 25
M  V30 32 1 15 6
M  V30 33 1 23 18
M  V30 34 1 15 9
M  V30 35 1 1 31
M  V30 36 1 1 32
M  V30 37 1 1 33
M  V30 38 1 7 34
M  V30 39 1 10 35
M  V30 40 1 11 36
M  V30 41 1 13 37
M  V30 42 1 14 38
M  V30 43 1 16 39
M  V30 44 1 19 40
M  V30 45 1 20 41
M  V30 46 1 21 42
M  V30 47 1 22 43
M  V30 48 1 23 44
M  V30 49 1 26 45
M  V30 50 1 27 46
M  V30 51 1 28 47
M  V30 52 1 29 48
M  V30 53 1 30 49
M  V30 END BOND
M  V30 END CTAB
M  END
>  <Dataset>  (901) 
ChEMBL_Kinases

>  <Ligand_Instance>  (901) 
nan

>  <PDB_ID>  (901) 
nan

>  <Standardized_SMILES>  (901) 
Cc1c(C(=O)c2coc3ccc(O)cc23)[nH]c(-c2ccccc2)c1-c1ccccc1

>  <Name>  (901) 
nan

>  <Pocket>  (901) 
nan

>  <ATP_Site>  (901) 
nan

>  <Peripheral>  (901) 
nan

>  <Num_H_Atoms_ProtBoundConf>  (901) 
nan

>  <Num_Resolved_Atoms>  (901) 
nan

>  <Num_Not_Resolved_Atoms>  (901) 
nan

$$$$
CHEMBL510885
     RDKit          3D

  0  0  0  0  0  0  0  0  0  0999 V3000
M  V30 BEGIN CTAB
M  V30 COUNTS 50 52 0 0 0
M  V30 BEGIN ATOM
M  V30 1 C 1.065917 -6.942995 3.826250 0
M  V30 2 O 2.254852 -6.993159 3.043533 0
M  V30 3 C 2.601772 -5.813505 2.375564 0
M  V30 4 C 1.810209 -4.681903 2.494429 0
M  V30 5 C 2.192411 -3.539594 1.814823 0
M  V30 6 C 3.330770 -3.465737 1.016899 0
M  V30 7 C 3.635342 -2.199355 0.323738 0
M  V30 8 C 2.729382 -1.468446 -0.344298 0
M  V30 9 C 2.742273 -0.170255 -1.124568 0
M  V30 10 C 1.422487 0.394377 -0.646067 0
M  V30 11 C 1.689268 1.098600 0.664644 0
M  V30 12 O 2.291400 0.210734 1.581055 0
M  V30 13 C 0.754100 1.324698 -1.599686 0
M  V30 14 O -0.482116 1.702088 -1.008703 0
M  V30 15 C -1.397022 2.562162 -1.591856 0
M  V30 16 O -1.015899 2.980211 -2.710813 0
M  V30 17 C -2.597012 2.802605 -0.800569 0
M  V30 18 C -2.857687 2.247603 0.441527 0
M  V30 19 C -4.056842 2.608763 1.019283 0
M  V30 20 C -4.984181 3.452619 0.472756 0
M  V30 21 C -6.216600 3.718197 1.254186 0
M  V30 22 C -4.696215 3.998083 -0.780390 0
M  V30 23 C -3.499626 3.646385 -1.372731 0
M  V30 24 O 0.551945 -0.716733 -0.474624 0
M  V30 25 C 1.313734 -1.877959 -0.498717 0
M  V30 26 O 0.987758 -3.110715 -0.623578 0
M  V30 27 C 4.107483 -4.586917 0.905306 0
M  V30 28 C 3.742935 -5.756080 1.582798 0
M  V30 29 H 1.204329 -6.136038 4.595251 0
M  V30 30 H 0.179546 -6.619327 3.225096 0
M  V30 31 H 0.892278 -7.879067 4.387791 0
M  V30 32 H 0.918565 -4.722678 3.113635 0
M  V30 33 H 1.504275 -2.695790 1.983947 0
M  V30 34 H 4.633477 -1.731603 0.285266 0
M  V30 35 H 3.578963 0.465120 -0.816769 0
M  V30 36 H 2.694730 -0.396252 -2.195139 0
M  V30 37 H 2.452744 1.878985 0.467755 0
M  V30 38 H 0.810305 1.589557 1.090324 0
M  V30 39 H 2.036409 0.409318 2.519599 0
M  V30 40 H 1.333245 2.281323 -1.733685 0
M  V30 41 H 0.609245 0.830109 -2.589722 0
M  V30 42 H -2.113471 1.585159 0.856620 0
M  V30 43 H -4.222841 2.144845 2.004248 0
M  V30 44 H -6.722174 4.662757 0.966296 0
M  V30 45 H -6.915360 2.835809 1.197031 0
M  V30 46 H -5.918205 3.819495 2.327916 0
M  V30 47 H -5.447376 4.663958 -1.192447 0
M  V30 48 H -3.379647 4.130362 -2.346458 0
M  V30 49 H 4.988835 -4.544983 0.294391 0
M  V30 50 H 4.362813 -6.636272 1.488131 0
M  V30 END ATOM
M  V30 BEGIN BOND
M  V30 1 1 1 2
M  V30 2 1 2 3
M  V30 3 2 3 4
M  V30 4 1 4 5
M  V30 5 2 5 6
M  V30 6 1 6 7
M  V30 7 2 7 8
M  V30 8 1 8 9
M  V30 9 1 9 10
M  V30 10 1 10 11
M  V30 11 1 11 12
M  V30 12 1 10 13
M  V30 13 1 13 14
M  V30 14 1 14 15
M  V30 15 2 15 16
M  V30 16 1 15 17
M  V30 17 2 17 18
M  V30 18 1 18 19
M  V30 19 2 19 20
M  V30 20 1 20 21
M  V30 21 1 20 22
M  V30 22 2 22 23
M  V30 23 1 10 24
M  V30 24 1 24 25
M  V30 25 2 25 26
M  V30 26 1 6 27
M  V30 27 2 27 28
M  V30 28 1 28 3
M  V30 29 1 25 8
M  V30 30 1 23 17
M  V30 31 1 1 29
M  V30 32 1 1 30
M  V30 33 1 1 31
M  V30 34 1 4 32
M  V30 35 1 5 33
M  V30 36 1 7 34
M  V30 37 1 9 35
M  V30 38 1 9 36
M  V30 39 1 11 37
M  V30 40 1 11 38
M  V30 41 1 12 39
M  V30 42 1 13 40
M  V30 43 1 13 41
M  V30 44 1 18 42
M  V30 45 1 19 43
M  V30 46 1 21 44
M  V30 47 1 21 45
M  V30 48 1 21 46
M  V30 49 1 22 47
M  V30 50 1 23 48
M  V30 51 1 27 49
M  V30 52 1 28 50
M  V30 END BOND
M  V30 END CTAB
M  END
>  <Dataset>  (902) 
ChEMBL_Kinases

>  <Ligand_Instance>  (902) 
nan

>  <PDB_ID>  (902) 
nan

>  <Standardized_SMILES>  (902) 
COc1ccc(/C=C2/CC(CO)(COC(=O)c3ccc(C)cc3)OC2=O)cc1

>  <Name>  (902) 
nan

>  <Pocket>  (902) 
nan

>  <ATP_Site>  (902) 
nan

>  <Peripheral>  (902) 
nan

>  <Num_H_Atoms_ProtBoundConf>  (902) 
nan

>  <Num_Resolved_Atoms>  (902) 
nan

>  <Num_Not_Resolved_Atoms>  (902) 
nan

$$$$
CHEMBL374177
     RDKit          3D

  0  0  0  0  0  0  0  0  0  0999 V3000
M  V30 BEGIN CTAB
M  V30 COUNTS 38 41 0 0 0
M  V30 BEGIN ATOM
M  V30 1 O 0.303659 -3.321043 4.519407 0
M  V30 2 C 1.414491 -3.377600 3.891280 0
M  V30 3 N 2.485592 -4.222750 4.333658 0
M  V30 4 C 3.339265 -4.714808 3.245882 0
M  V30 5 C 3.916007 -3.527836 2.507142 0
M  V30 6 C 2.833539 -2.626847 1.997900 0
M  V30 7 N 2.785679 -1.794513 0.924851 0
M  V30 8 C 1.566865 -1.223643 0.939549 0
M  V30 9 C 1.126056 -0.256520 -0.063451 0
M  V30 10 C 1.994377 0.096464 -1.080960 0
M  V30 11 C 1.500826 1.016302 -1.987888 0
M  V30 12 N 0.274394 1.561873 -1.934818 0
M  V30 13 C -0.586576 1.230582 -0.950716 0
M  V30 14 C -1.924078 1.813982 -0.877487 0
M  V30 15 C -2.873701 1.541668 0.084551 0
M  V30 16 C -4.112652 2.154074 0.056945 0
M  V30 17 C -4.425789 3.046791 -0.928221 0
M  V30 18 O -5.691773 3.624626 -0.892885 0
M  V30 19 C -3.511247 3.357350 -1.918753 0
M  V30 20 C -2.293764 2.720980 -1.845797 0
M  V30 21 C -0.123704 0.317580 -0.033441 0
M  V30 22 C 0.810328 -1.668845 2.008559 0
M  V30 23 C 1.622603 -2.561976 2.678364 0
M  V30 24 H 2.541435 -4.394134 5.366870 0
M  V30 25 H 2.777512 -5.373780 2.560392 0
M  V30 26 H 4.218805 -5.261503 3.668644 0
M  V30 27 H 4.526490 -3.877033 1.665284 0
M  V30 28 H 4.507946 -2.961976 3.259908 0
M  V30 29 H 3.571184 -1.662273 0.252360 0
M  V30 30 H 2.998375 -0.299205 -1.191944 0
M  V30 31 H 2.112075 1.350389 -2.817643 0
M  V30 32 H -2.599174 0.831361 0.852379 0
M  V30 33 H -4.814226 1.888505 0.853019 0
M  V30 34 H -6.521774 3.078251 -0.747193 0
M  V30 35 H -3.753355 4.063570 -2.701672 0
M  V30 36 H -1.597910 2.992590 -2.646283 0
M  V30 37 H -0.741564 -0.003456 0.783176 0
M  V30 38 H -0.181495 -1.378333 2.251214 0
M  V30 END ATOM
M  V30 BEGIN BOND
M  V30 1 2 1 2
M  V30 2 1 2 3
M  V30 3 1 3 4
M  V30 4 1 4 5
M  V30 5 1 5 6
M  V30 6 1 6 7
M  V30 7 1 7 8
M  V30 8 1 8 9
M  V30 9 2 9 10
M  V30 10 1 10 11
M  V30 11 2 11 12
M  V30 12 1 12 13
M  V30 13 1 13 14
M  V30 14 2 14 15
M  V30 15 1 15 16
M  V30 16 2 16 17
M  V30 17 1 17 18
M  V30 18 1 17 19
M  V30 19 2 19 20
M  V30 20 2 13 21
M  V30 21 2 8 22
M  V30 22 1 22 23
M  V30 23 1 23 2
M  V30 24 2 23 6
M  V30 25 1 21 9
M  V30 26 1 20 14
M  V30 27 1 3 24
M  V30 28 1 4 25
M  V30 29 1 4 26
M  V30 30 1 5 27
M  V30 31 1 5 28
M  V30 32 1 7 29
M  V30 33 1 10 30
M  V30 34 1 11 31
M  V30 35 1 15 32
M  V30 36 1 16 33
M  V30 37 1 18 34
M  V30 38 1 19 35
M  V30 39 1 20 36
M  V30 40 1 21 37
M  V30 41 1 22 38
M  V30 END BOND
M  V30 END CTAB
M  END
>  <Dataset>  (903) 
ChEMBL_Kinases

>  <Ligand_Instance>  (903) 
nan

>  <PDB_ID>  (903) 
nan

>  <Standardized_SMILES>  (903) 
O=C1NCCc2[nH]c(-c3ccnc(-c4ccc(O)cc4)c3)cc21

>  <Name>  (903) 
nan

>  <Pocket>  (903) 
nan

>  <ATP_Site>  (903) 
nan

>  <Peripheral>  (903) 
nan

>  <Num_H_Atoms_ProtBoundConf>  (903) 
nan

>  <Num_Resolved_Atoms>  (903) 
nan

>  <Num_Not_Resolved_Atoms>  (903) 
nan

$$$$
CHEMBL374400
     RDKit          3D

  0  0  0  0  0  0  0  0  0  0999 V3000
M  V30 BEGIN CTAB
M  V30 COUNTS 23 24 0 0 0
M  V30 BEGIN ATOM
M  V30 1 Br -0.919943 0.419695 6.279456 0
M  V30 2 C -0.259728 0.066099 4.534483 0
M  V30 3 C -0.866402 0.578015 3.406448 0
M  V30 4 C -0.420558 0.346495 2.122775 0
M  V30 5 C 0.694161 -0.437054 1.912609 0
M  V30 6 O 1.353992 -0.827694 0.760695 0
M  V30 7 C 0.938216 -0.385085 -0.482727 0
M  V30 8 C 0.471919 -1.199309 -1.487740 0
M  V30 9 C 0.097121 -0.606664 -2.670508 0
M  V30 10 Br -0.545742 -1.807123 -4.032108 0
M  V30 11 C 0.149445 0.745513 -2.936826 0
M  V30 12 Br -0.406339 1.397163 -4.620986 0
M  V30 13 C 0.627259 1.556675 -1.901220 0
M  V30 14 C 1.020730 0.998135 -0.679619 0
M  V30 15 Br 1.659400 2.294011 0.559284 0
M  V30 16 C 1.345823 -0.980508 3.026242 0
M  V30 17 Br 2.895919 -2.088965 2.998304 0
M  V30 18 C 0.870860 -0.728988 4.316900 0
M  V30 19 H -1.736999 1.194059 3.519772 0
M  V30 20 H -0.847457 0.702138 1.214107 0
M  V30 21 H 0.418976 -2.256112 -1.312227 0
M  V30 22 H 0.655830 2.608227 -2.140788 0
M  V30 23 H 1.318162 -1.111883 5.222789 0
M  V30 END ATOM
M  V30 BEGIN BOND
M  V30 1 1 1 2
M  V30 2 2 2 3
M  V30 3 1 3 4
M  V30 4 2 4 5
M  V30 5 1 5 6
M  V30 6 1 6 7
M  V30 7 2 7 8
M  V30 8 1 8 9
M  V30 9 1 9 10
M  V30 10 2 9 11
M  V30 11 1 11 12
M  V30 12 1 11 13
M  V30 13 2 13 14
M  V30 14 1 14 15
M  V30 15 1 5 16
M  V30 16 1 16 17
M  V30 17 2 16 18
M  V30 18 1 18 2
M  V30 19 1 14 7
M  V30 20 1 3 19
M  V30 21 1 4 20
M  V30 22 1 8 21
M  V30 23 1 13 22
M  V30 24 1 18 23
M  V30 END BOND
M  V30 END CTAB
M  END
>  <Dataset>  (904) 
ChEMBL_Kinases

>  <Ligand_Instance>  (904) 
nan

>  <PDB_ID>  (904) 
nan

>  <Standardized_SMILES>  (904) 
Brc1ccc(Oc2cc(Br)c(Br)cc2Br)c(Br)c1

>  <Name>  (904) 
nan

>  <Pocket>  (904) 
nan

>  <ATP_Site>  (904) 
nan

>  <Peripheral>  (904) 
nan

>  <Num_H_Atoms_ProtBoundConf>  (904) 
nan

>  <Num_Resolved_Atoms>  (904) 
nan

>  <Num_Not_Resolved_Atoms>  (904) 
nan

$$$$
CHEMBL3746467
     RDKit          3D

  0  0  0  0  0  0  0  0  0  0999 V3000
M  V30 BEGIN CTAB
M  V30 COUNTS 50 52 0 0 0
M  V30 BEGIN ATOM
M  V30 1 C 1.571890 0.147118 3.542516 0
M  V30 2 C 1.417543 -1.165048 2.817699 0
M  V30 3 S 3.044419 -1.708413 2.353089 0
M  V30 4 O 2.964325 -3.077833 1.733021 0
M  V30 5 O 3.826504 -1.868033 3.623970 0
M  V30 6 N 3.830588 -0.587754 1.341529 0
M  V30 7 C 3.559891 -0.055487 0.056451 0
M  V30 8 C 4.563662 -0.006581 -0.916928 0
M  V30 9 C 4.414088 0.475467 -2.196619 0
M  V30 10 C 3.163453 0.941970 -2.519356 0
M  V30 11 C 2.118060 0.937692 -1.640932 0
M  V30 12 O 0.842319 1.421427 -1.992906 0
M  V30 13 C -0.166214 1.383543 -1.049650 0
M  V30 14 C -0.315470 2.443220 -0.191869 0
M  V30 15 F 0.536399 3.487371 -0.304393 0
M  V30 16 C -1.294379 2.456160 0.756597 0
M  V30 17 F -1.376477 3.536111 1.559999 0
M  V30 18 C -2.153600 1.357631 0.843955 0
M  V30 19 C -2.059835 0.231067 -0.002157 0
M  V30 20 N -3.041498 -0.690938 0.326383 0
M  V30 21 C -3.175836 -1.959650 0.922646 0
M  V30 22 C -4.017226 -1.728991 2.042746 0
M  V30 23 C -4.423970 -2.709555 2.958702 0
M  V30 24 C -3.971708 -3.992077 2.753520 0
M  V30 25 I -4.453955 -5.609774 4.001173 0
M  V30 26 C -3.157077 -4.275677 1.689219 0
M  V30 27 C -2.800647 -3.270870 0.837171 0
M  V30 28 F -2.005641 -3.476120 -0.202852 0
M  V30 29 C -1.045255 0.353078 -0.900411 0
M  V30 30 C -1.012916 -0.721713 -1.867846 0
M  V30 31 N 0.059881 -0.801330 -2.790264 0
M  V30 32 O -1.483887 -1.745041 -2.388269 0
M  V30 33 C 2.349069 0.438146 -0.377533 0
M  V30 34 H 1.731237 0.010551 4.629886 0
M  V30 35 H 2.484766 0.654586 3.156706 0
M  V30 36 H 0.680335 0.774812 3.358745 0
M  V30 37 H 0.948588 -1.880259 3.539498 0
M  V30 38 H 0.774423 -1.106013 1.922461 0
M  V30 39 H 4.736193 -0.138316 1.681967 0
M  V30 40 H 5.544413 -0.381027 -0.638598 0
M  V30 41 H 5.263569 0.464868 -2.869161 0
M  V30 42 H 3.017991 1.326929 -3.520156 0
M  V30 43 H -2.887153 1.501202 1.644229 0
M  V30 44 H -3.956282 -0.254408 -0.035048 0
M  V30 45 H -4.489559 -0.791479 2.394290 0
M  V30 46 H -5.054283 -2.607901 3.822501 0
M  V30 47 H -2.747094 -5.239488 1.434628 0
M  V30 48 H 0.081236 -0.179826 -3.650096 0
M  V30 49 H 0.938230 -1.396894 -2.822802 0
M  V30 50 H 1.528412 0.442108 0.301814 0
M  V30 END ATOM
M  V30 BEGIN BOND
M  V30 1 1 1 2
M  V30 2 1 2 3
M  V30 3 2 3 4
M  V30 4 2 3 5
M  V30 5 1 3 6
M  V30 6 1 6 7
M  V30 7 2 7 8
M  V30 8 1 8 9
M  V30 9 2 9 10
M  V30 10 1 10 11
M  V30 11 1 11 12
M  V30 12 1 12 13
M  V30 13 2 13 14
M  V30 14 1 14 15
M  V30 15 1 14 16
M  V30 16 1 16 17
M  V30 17 2 16 18
M  V30 18 1 18 19
M  V30 19 1 19 20
M  V30 20 1 20 21
M  V30 21 2 21 22
M  V30 22 1 22 23
M  V30 23 2 23 24
M  V30 24 1 24 25
M  V30 25 1 24 26
M  V30 26 2 26 27
M  V30 27 1 27 28
M  V30 28 2 19 29
M  V30 29 1 29 30
M  V30 30 1 30 31
M  V30 31 2 30 32
M  V30 32 2 11 33
M  V30 33 1 33 7
M  V30 34 1 29 13
M  V30 35 1 27 21
M  V30 36 1 1 34
M  V30 37 1 1 35
M  V30 38 1 1 36
M  V30 39 1 2 37
M  V30 40 1 2 38
M  V30 41 1 6 39
M  V30 42 1 8 40
M  V30 43 1 9 41
M  V30 44 1 10 42
M  V30 45 1 18 43
M  V30 46 1 20 44
M  V30 47 1 22 45
M  V30 48 1 23 46
M  V30 49 1 26 47
M  V30 50 1 31 48
M  V30 51 1 31 49
M  V30 52 1 33 50
M  V30 END BOND
M  V30 END CTAB
M  END
>  <Dataset>  (905) 
ChEMBL_Kinases

>  <Ligand_Instance>  (905) 
nan

>  <PDB_ID>  (905) 
nan

>  <Standardized_SMILES>  (905) 
CCS(=O)(=O)Nc1cccc(Oc2c(F)c(F)cc(Nc3ccc(I)cc3F)c2C(N)=O)c1

>  <Name>  (905) 
nan

>  <Pocket>  (905) 
nan

>  <ATP_Site>  (905) 
nan

>  <Peripheral>  (905) 
nan

>  <Num_H_Atoms_ProtBoundConf>  (905) 
nan

>  <Num_Resolved_Atoms>  (905) 
nan

>  <Num_Not_Resolved_Atoms>  (905) 
nan

$$$$
CHEMBL3746463
     RDKit          3D

  0  0  0  0  0  0  0  0  0  0999 V3000
M  V30 BEGIN CTAB
M  V30 COUNTS 52 55 0 0 0
M  V30 BEGIN ATOM
M  V30 1 C -1.260660 -6.920161 2.756019 0
M  V30 2 O -1.986941 -6.464400 1.652661 0
M  V30 3 C -1.798679 -5.209724 1.074865 0
M  V30 4 C -0.853399 -4.304255 1.567400 0
M  V30 5 C -0.703568 -3.072959 0.961126 0
M  V30 6 F 0.207564 -2.168561 1.415830 0
M  V30 7 C -1.481926 -2.708282 -0.142891 0
M  V30 8 C -1.309220 -1.397103 -0.774232 0
M  V30 9 N -0.424927 -0.466107 -0.366664 0
M  V30 10 C -0.486235 0.639930 -1.132279 0
M  V30 11 C 0.271254 1.814468 -1.020695 0
M  V30 12 N 1.248432 1.923951 0.013336 0
M  V30 13 C 0.649768 2.471663 1.159199 0
M  V30 14 C 1.478133 2.699216 2.382471 0
M  V30 15 C 2.630556 3.645090 2.141040 0
M  V30 16 C 3.877572 3.020633 1.636519 0
M  V30 17 N 3.733828 1.605513 1.557257 0
M  V30 18 C 3.360244 1.107802 2.841134 0
M  V30 19 C 1.944191 1.520094 3.135210 0
M  V30 20 C -0.035844 2.781676 -1.975311 0
M  V30 21 Cl 0.870550 4.262119 -1.889738 0
M  V30 22 C -1.026100 2.515671 -2.920778 0
M  V30 23 N -1.711444 1.363950 -2.965523 0
M  V30 24 C -1.470270 0.382609 -2.076242 0
M  V30 25 N -1.945250 -0.855843 -1.830022 0
M  V30 26 C -2.414958 -3.603387 -0.628229 0
M  V30 27 C -2.563893 -4.848413 -0.012257 0
M  V30 28 O -3.495176 -5.765812 -0.481453 0
M  V30 29 C -4.279289 -5.390096 -1.599122 0
M  V30 30 H -1.425175 -6.327214 3.676852 0
M  V30 31 H -1.504914 -7.986759 2.921457 0
M  V30 32 H -0.174151 -6.870849 2.473956 0
M  V30 33 H -0.240645 -4.569749 2.423044 0
M  V30 34 H 1.991422 1.522266 -0.603797 0
M  V30 35 H -0.268354 1.877980 1.436439 0
M  V30 36 H 0.231081 3.475791 0.906871 0
M  V30 37 H 0.803087 3.296703 3.079324 0
M  V30 38 H 2.874562 4.186691 3.080252 0
M  V30 39 H 2.290101 4.411618 1.386645 0
M  V30 40 H 4.173555 3.371010 0.614627 0
M  V30 41 H 4.764215 3.207476 2.310880 0
M  V30 42 H 4.577061 1.149388 1.136068 0
M  V30 43 H 4.106963 1.523000 3.572404 0
M  V30 44 H 3.463640 0.009685 2.946020 0
M  V30 45 H 1.950790 1.794888 4.233070 0
M  V30 46 H 1.240773 0.654334 3.114122 0
M  V30 47 H -1.209800 3.326655 -3.638231 0
M  V30 48 H -2.697535 -1.325940 -2.379500 0
M  V30 49 H -3.031857 -3.330460 -1.493299 0
M  V30 50 H -3.681816 -5.023426 -2.440426 0
M  V30 51 H -4.900290 -6.257324 -1.958034 0
M  V30 52 H -4.992684 -4.591589 -1.293685 0
M  V30 END ATOM
M  V30 BEGIN BOND
M  V30 1 1 1 2
M  V30 2 1 2 3
M  V30 3 2 3 4
M  V30 4 1 4 5
M  V30 5 1 5 6
M  V30 6 2 5 7
M  V30 7 1 7 8
M  V30 8 2 8 9
M  V30 9 1 9 10
M  V30 10 2 10 11
M  V30 11 1 11 12
M  V30 12 1 12 13
M  V30 13 1 13 14
M  V30 14 1 14 15
M  V30 15 1 15 16
M  V30 16 1 16 17
M  V30 17 1 17 18
M  V30 18 1 18 19
M  V30 19 1 11 20
M  V30 20 1 20 21
M  V30 21 2 20 22
M  V30 22 1 22 23
M  V30 23 2 23 24
M  V30 24 1 24 25
M  V30 25 1 7 26
M  V30 26 2 26 27
M  V30 27 1 27 28
M  V30 28 1 28 29
M  V30 29 1 27 3
M  V30 30 1 25 8
M  V30 31 1 24 10
M  V30 32 1 19 14
M  V30 33 1 1 30
M  V30 34 1 1 31
M  V30 35 1 1 32
M  V30 36 1 4 33
M  V30 37 1 12 34
M  V30 38 1 13 35
M  V30 39 1 13 36
M  V30 40 1 14 37
M  V30 41 1 15 38
M  V30 42 1 15 39
M  V30 43 1 16 40
M  V30 44 1 16 41
M  V30 45 1 17 42
M  V30 46 1 18 43
M  V30 47 1 18 44
M  V30 48 1 19 45
M  V30 49 1 19 46
M  V30 50 1 22 47
M  V30 51 1 25 48
M  V30 52 1 26 49
M  V30 53 1 29 50
M  V30 54 1 29 51
M  V30 55 1 29 52
M  V30 END BOND
M  V30 END CTAB
M  END
>  <Dataset>  (906) 
ChEMBL_Kinases

>  <Ligand_Instance>  (906) 
nan

>  <PDB_ID>  (906) 
nan

>  <Standardized_SMILES>  (906) 
COc1cc(F)c(-c2nc3c(NCC4CCNCC4)c(Cl)cnc3[nH]2)cc1OC

>  <Name>  (906) 
nan

>  <Pocket>  (906) 
nan

>  <ATP_Site>  (906) 
nan

>  <Peripheral>  (906) 
nan

>  <Num_H_Atoms_ProtBoundConf>  (906) 
nan

>  <Num_Resolved_Atoms>  (906) 
nan

>  <Num_Not_Resolved_Atoms>  (906) 
nan

$$$$
CHEMBL3746213
     RDKit          3D

  0  0  0  0  0  0  0  0  0  0999 V3000
M  V30 BEGIN CTAB
M  V30 COUNTS 53 55 0 0 0
M  V30 BEGIN ATOM
M  V30 1 C 1.176294 -5.837143 4.611258 0
M  V30 2 C 1.243739 -4.656112 3.679450 0
M  V30 3 O 0.652077 -4.917875 2.417390 0
M  V30 4 C 0.611685 -3.950294 1.409982 0
M  V30 5 C 1.171520 -2.719916 1.685836 0
M  V30 6 C 1.143953 -1.749278 0.708623 0
M  V30 7 C 0.581162 -1.926547 -0.558267 0
M  V30 8 O 0.551085 -0.950699 -1.544831 0
M  V30 9 C 0.981109 0.318522 -1.201732 0
M  V30 10 C 2.079243 0.814144 -1.821187 0
M  V30 11 C 2.574010 2.066870 -1.538843 0
M  V30 12 F 3.671723 2.489482 -2.198145 0
M  V30 13 C 1.932391 2.841920 -0.596422 0
M  V30 14 C 0.808946 2.391548 0.067044 0
M  V30 15 N 0.296676 3.312428 0.980340 0
M  V30 16 C -0.834980 4.060862 1.282443 0
M  V30 17 C -1.648205 4.093617 2.396105 0
M  V30 18 C -2.724221 4.950138 2.423901 0
M  V30 19 C -3.060439 5.793404 1.409833 0
M  V30 20 I -4.750697 7.037046 1.634834 0
M  V30 21 C -2.260099 5.779700 0.280747 0
M  V30 22 C -1.162883 4.919628 0.228517 0
M  V30 23 F -0.488097 5.033905 -0.945018 0
M  V30 24 C 0.389581 1.136360 -0.278412 0
M  V30 25 C -0.804683 0.695186 0.403523 0
M  V30 26 N -1.773569 -0.321226 0.568966 0
M  V30 27 O -1.619650 1.082042 1.270869 0
M  V30 28 C 0.027748 -3.194095 -0.783787 0
M  V30 29 C 0.037874 -4.189486 0.171922 0
M  V30 30 N -0.536234 -5.461319 -0.099352 0
M  V30 31 S -1.267608 -5.748779 -1.653586 0
M  V30 32 N -0.091051 -5.583913 -2.898565 0
M  V30 33 O -2.346793 -4.725036 -1.915397 0
M  V30 34 O -1.833693 -7.143969 -1.707784 0
M  V30 35 H 2.176854 -6.182608 4.945488 0
M  V30 36 H 0.644173 -6.666203 4.102038 0
M  V30 37 H 0.598929 -5.605789 5.539643 0
M  V30 38 H 0.667627 -3.819132 4.137862 0
M  V30 39 H 2.275648 -4.257242 3.558731 0
M  V30 40 H 1.621973 -2.521929 2.647667 0
M  V30 41 H 1.586437 -0.810620 0.945677 0
M  V30 42 H 2.592147 0.215602 -2.563261 0
M  V30 43 H 2.386754 3.806967 -0.437824 0
M  V30 44 H 0.936250 3.603557 1.761612 0
M  V30 45 H -1.320265 3.400270 3.155948 0
M  V30 46 H -3.308900 4.914670 3.328480 0
M  V30 47 H -2.545672 6.455643 -0.508020 0
M  V30 48 H -2.122505 -0.976801 -0.163612 0
M  V30 49 H -2.135010 -0.992111 -0.167534 0
M  V30 50 H -0.421451 -3.361307 -1.771498 0
M  V30 51 H -0.518079 -6.210967 0.625614 0
M  V30 52 H 0.313986 -6.521771 -3.182862 0
M  V30 53 H -0.570749 -5.225322 -3.776801 0
M  V30 END ATOM
M  V30 BEGIN BOND
M  V30 1 1 1 2
M  V30 2 1 2 3
M  V30 3 1 3 4
M  V30 4 2 4 5
M  V30 5 1 5 6
M  V30 6 2 6 7
M  V30 7 1 7 8
M  V30 8 1 8 9
M  V30 9 2 9 10
M  V30 10 1 10 11
M  V30 11 1 11 12
M  V30 12 2 11 13
M  V30 13 1 13 14
M  V30 14 1 14 15
M  V30 15 1 15 16
M  V30 16 2 16 17
M  V30 17 1 17 18
M  V30 18 2 18 19
M  V30 19 1 19 20
M  V30 20 1 19 21
M  V30 21 2 21 22
M  V30 22 1 22 23
M  V30 23 2 14 24
M  V30 24 1 24 25
M  V30 25 1 25 26
M  V30 26 2 25 27
M  V30 27 1 7 28
M  V30 28 2 28 29
M  V30 29 1 29 30
M  V30 30 1 30 31
M  V30 31 1 31 32
M  V30 32 2 31 33
M  V30 33 2 31 34
M  V30 34 1 29 4
M  V30 35 1 24 9
M  V30 36 1 22 16
M  V30 37 1 1 35
M  V30 38 1 1 36
M  V30 39 1 1 37
M  V30 40 1 2 38
M  V30 41 1 2 39
M  V30 42 1 5 40
M  V30 43 1 6 41
M  V30 44 1 10 42
M  V30 45 1 13 43
M  V30 46 1 15 44
M  V30 47 1 17 45
M  V30 48 1 18 46
M  V30 49 1 21 47
M  V30 50 1 26 48
M  V30 51 1 26 49
M  V30 52 1 28 50
M  V30 53 1 30 51
M  V30 54 1 32 52
M  V30 55 1 32 53
M  V30 END BOND
M  V30 END CTAB
M  END
>  <Dataset>  (907) 
ChEMBL_Kinases

>  <Ligand_Instance>  (907) 
nan

>  <PDB_ID>  (907) 
nan

>  <Standardized_SMILES>  (907) 
CCOc1ccc(Oc2cc(F)cc(Nc3ccc(I)cc3F)c2C(N)=O)cc1NS(N)(=O)=O

>  <Name>  (907) 
nan

>  <Pocket>  (907) 
nan

>  <ATP_Site>  (907) 
nan

>  <Peripheral>  (907) 
nan

>  <Num_H_Atoms_ProtBoundConf>  (907) 
nan

>  <Num_Resolved_Atoms>  (907) 
nan

>  <Num_Not_Resolved_Atoms>  (907) 
nan

$$$$
CHEMBL3746203
     RDKit          3D

  0  0  0  0  0  0  0  0  0  0999 V3000
M  V30 BEGIN CTAB
M  V30 COUNTS 51 54 0 0 0
M  V30 BEGIN ATOM
M  V30 1 N 0.087146 -1.179185 4.062207 0
M  V30 2 C 1.032091 -0.253475 3.551276 0
M  V30 3 O 1.802317 -0.194038 4.526971 0
M  V30 4 C 0.943143 0.343988 2.228339 0
M  V30 5 C 1.860161 1.232018 1.753943 0
M  V30 6 N 2.966733 1.618368 2.547901 0
M  V30 7 C 4.015404 2.503424 2.235772 0
M  V30 8 C 4.348473 3.666381 2.884529 0
M  V30 9 C 5.400479 4.474780 2.511239 0
M  V30 10 C 6.150340 4.070024 1.415701 0
M  V30 11 I 7.745544 5.368154 0.910535 0
M  V30 12 C 5.857245 2.910509 0.729785 0
M  V30 13 C 4.789014 2.120841 1.135304 0
M  V30 14 F 4.650238 1.017395 0.347410 0
M  V30 15 C 1.758178 1.785068 0.501214 0
M  V30 16 C 0.693370 1.423826 -0.290030 0
M  V30 17 F 0.506505 1.914323 -1.538484 0
M  V30 18 C -0.225604 0.523912 0.205316 0
M  V30 19 C -0.135535 -0.040879 1.464825 0
M  V30 20 O -1.071641 -0.939802 1.933916 0
M  V30 21 C -2.148750 -1.307253 1.138451 0
M  V30 22 C -3.349001 -0.613633 1.161127 0
M  V30 23 C -4.391738 -1.017223 0.351611 0
M  V30 24 C -4.187769 -2.128983 -0.471318 0
M  V30 25 C -3.001015 -2.832517 -0.508338 0
M  V30 26 C -1.965844 -2.417489 0.307153 0
M  V30 27 N -2.903347 -3.943961 -1.379794 0
M  V30 28 S -1.402953 -4.800751 -1.359252 0
M  V30 29 N -1.091769 -5.469018 0.202238 0
M  V30 30 O -0.331592 -3.807200 -1.766402 0
M  V30 31 O -1.410980 -5.868468 -2.415872 0
M  V30 32 C -3.965349 -4.386637 -2.261842 0
M  V30 33 C -5.064130 -3.395057 -2.408474 0
M  V30 34 O -5.224987 -2.546033 -1.289396 0
M  V30 35 H -0.216863 -2.125242 3.757842 0
M  V30 36 H -0.564528 -1.145557 4.900660 0
M  V30 37 H 3.237356 1.336853 3.513400 0
M  V30 38 H 3.673323 3.860237 3.726746 0
M  V30 39 H 5.559710 5.364772 3.103795 0
M  V30 40 H 6.510641 2.700533 -0.104273 0
M  V30 41 H 2.427074 2.494372 0.037321 0
M  V30 42 H -1.066903 0.235893 -0.414646 0
M  V30 43 H -3.479767 0.245144 1.809014 0
M  V30 44 H -5.356463 -0.522595 0.318016 0
M  V30 45 H -1.028718 -2.953173 0.294355 0
M  V30 46 H -1.448625 -6.466892 0.240728 0
M  V30 47 H -0.034865 -5.468693 0.319152 0
M  V30 48 H -3.469186 -4.467384 -3.273540 0
M  V30 49 H -4.283827 -5.420686 -2.017712 0
M  V30 50 H -4.925604 -2.708502 -3.289982 0
M  V30 51 H -6.019433 -3.917198 -2.613773 0
M  V30 END ATOM
M  V30 BEGIN BOND
M  V30 1 1 1 2
M  V30 2 2 2 3
M  V30 3 1 2 4
M  V30 4 2 4 5
M  V30 5 1 5 6
M  V30 6 1 6 7
M  V30 7 2 7 8
M  V30 8 1 8 9
M  V30 9 2 9 10
M  V30 10 1 10 11
M  V30 11 1 10 12
M  V30 12 2 12 13
M  V30 13 1 13 14
M  V30 14 1 5 15
M  V30 15 2 15 16
M  V30 16 1 16 17
M  V30 17 1 16 18
M  V30 18 2 18 19
M  V30 19 1 19 20
M  V30 20 1 20 21
M  V30 21 2 21 22
M  V30 22 1 22 23
M  V30 23 2 23 24
M  V30 24 1 24 25
M  V30 25 2 25 26
M  V30 26 1 25 27
M  V30 27 1 27 28
M  V30 28 1 28 29
M  V30 29 2 28 30
M  V30 30 2 28 31
M  V30 31 1 27 32
M  V30 32 1 32 33
M  V30 33 1 33 34
M  V30 34 1 19 4
M  V30 35 1 26 21
M  V30 36 1 13 7
M  V30 37 1 34 24
M  V30 38 1 1 35
M  V30 39 1 1 36
M  V30 40 1 6 37
M  V30 41 1 8 38
M  V30 42 1 9 39
M  V30 43 1 12 40
M  V30 44 1 15 41
M  V30 45 1 18 42
M  V30 46 1 22 43
M  V30 47 1 23 44
M  V30 48 1 26 45
M  V30 49 1 29 46
M  V30 50 1 29 47
M  V30 51 1 32 48
M  V30 52 1 32 49
M  V30 53 1 33 50
M  V30 54 1 33 51
M  V30 END BOND
M  V30 END CTAB
M  END
>  <Dataset>  (908) 
ChEMBL_Kinases

>  <Ligand_Instance>  (908) 
nan

>  <PDB_ID>  (908) 
nan

>  <Standardized_SMILES>  (908) 
NC(=O)c1c(Nc2ccc(I)cc2F)cc(F)cc1Oc1ccc2c(c1)N(S(N)(=O)=O)CCO2

>  <Name>  (908) 
nan

>  <Pocket>  (908) 
nan

>  <ATP_Site>  (908) 
nan

>  <Peripheral>  (908) 
nan

>  <Num_H_Atoms_ProtBoundConf>  (908) 
nan

>  <Num_Resolved_Atoms>  (908) 
nan

>  <Num_Not_Resolved_Atoms>  (908) 
nan

$$$$
CHEMBL3746158
     RDKit          3D

  0  0  0  0  0  0  0  0  0  0999 V3000
M  V30 BEGIN CTAB
M  V30 COUNTS 46 48 0 0 0
M  V30 BEGIN ATOM
M  V30 1 N 1.396932 -2.596792 2.210980 0
M  V30 2 C 1.266504 -1.206967 2.108172 0
M  V30 3 O 2.509127 -1.104484 2.112889 0
M  V30 4 C 0.379081 -0.080268 2.017997 0
M  V30 5 C 1.036456 1.113063 1.946539 0
M  V30 6 N 2.391897 1.491278 1.909314 0
M  V30 7 C 3.603622 1.374618 1.183423 0
M  V30 8 C 4.862666 0.906313 1.485498 0
M  V30 9 C 5.823562 0.940018 0.505522 0
M  V30 10 C 5.613798 1.413491 -0.768265 0
M  V30 11 I 7.220178 1.379846 -2.128423 0
M  V30 12 C 4.357982 1.886185 -1.086308 0
M  V30 13 C 3.355758 1.864979 -0.107614 0
M  V30 14 F 2.190707 2.374554 -0.622413 0
M  V30 15 C 0.242232 2.265834 1.888068 0
M  V30 16 C -1.138358 2.167726 1.903356 0
M  V30 17 F -1.939609 3.265513 1.848450 0
M  V30 18 C -1.674724 0.902548 1.977143 0
M  V30 19 C -0.968268 -0.280109 2.037516 0
M  V30 20 O -1.682395 -1.428455 2.104863 0
M  V30 21 C -1.722867 -2.500706 1.247092 0
M  V30 22 C -1.436236 -3.820889 1.468260 0
M  V30 23 C -1.492199 -4.848355 0.560760 0
M  V30 24 C -1.879245 -4.525477 -0.719922 0
M  V30 25 C -2.187835 -3.190379 -1.011762 0
M  V30 26 F -2.548959 -3.065652 -2.326917 0
M  V30 27 C -2.111607 -2.189033 -0.039037 0
M  V30 28 N -2.545916 -0.979568 -0.640980 0
M  V30 29 S -4.193540 -0.550749 -0.761909 0
M  V30 30 N -4.871243 -0.415924 0.807287 0
M  V30 31 O -4.960605 -1.531953 -1.613794 0
M  V30 32 O -4.243930 0.781900 -1.492376 0
M  V30 33 H 1.447301 -3.200838 3.085659 0
M  V30 34 H 1.466369 -3.324915 1.449371 0
M  V30 35 H 2.757803 2.108190 2.684647 0
M  V30 36 H 4.884490 0.569853 2.506924 0
M  V30 37 H 6.787171 0.544235 0.852090 0
M  V30 38 H 4.253079 2.243563 -2.096337 0
M  V30 39 H 0.606837 3.302805 1.827884 0
M  V30 40 H -2.757495 0.885380 1.991827 0
M  V30 41 H -1.132450 -4.038828 2.497024 0
M  V30 42 H -1.231534 -5.844342 0.899583 0
M  V30 43 H -1.915765 -5.346964 -1.417251 0
M  V30 44 H -1.704979 -0.458384 -0.964056 0
M  V30 45 H -4.932565 0.591328 1.051467 0
M  V30 46 H -4.292932 -0.889660 1.515659 0
M  V30 END ATOM
M  V30 BEGIN BOND
M  V30 1 1 1 2
M  V30 2 2 2 3
M  V30 3 1 2 4
M  V30 4 2 4 5
M  V30 5 1 5 6
M  V30 6 1 6 7
M  V30 7 2 7 8
M  V30 8 1 8 9
M  V30 9 2 9 10
M  V30 10 1 10 11
M  V30 11 1 10 12
M  V30 12 2 12 13
M  V30 13 1 13 14
M  V30 14 1 5 15
M  V30 15 2 15 16
M  V30 16 1 16 17
M  V30 17 1 16 18
M  V30 18 2 18 19
M  V30 19 1 19 20
M  V30 20 1 20 21
M  V30 21 2 21 22
M  V30 22 1 22 23
M  V30 23 2 23 24
M  V30 24 1 24 25
M  V30 25 1 25 26
M  V30 26 2 25 27
M  V30 27 1 27 28
M  V30 28 1 28 29
M  V30 29 1 29 30
M  V30 30 2 29 31
M  V30 31 2 29 32
M  V30 32 1 19 4
M  V30 33 1 27 21
M  V30 34 1 13 7
M  V30 35 1 1 33
M  V30 36 1 1 34
M  V30 37 1 6 35
M  V30 38 1 8 36
M  V30 39 1 9 37
M  V30 40 1 12 38
M  V30 41 1 15 39
M  V30 42 1 18 40
M  V30 43 1 22 41
M  V30 44 1 23 42
M  V30 45 1 24 43
M  V30 46 1 28 44
M  V30 47 1 30 45
M  V30 48 1 30 46
M  V30 END BOND
M  V30 END CTAB
M  END
>  <Dataset>  (909) 
ChEMBL_Kinases

>  <Ligand_Instance>  (909) 
nan

>  <PDB_ID>  (909) 
nan

>  <Standardized_SMILES>  (909) 
NC(=O)c1c(Nc2ccc(I)cc2F)cc(F)cc1Oc1cccc(F)c1NS(N)(=O)=O

>  <Name>  (909) 
nan

>  <Pocket>  (909) 
nan

>  <ATP_Site>  (909) 
nan

>  <Peripheral>  (909) 
nan

>  <Num_H_Atoms_ProtBoundConf>  (909) 
nan

>  <Num_Resolved_Atoms>  (909) 
nan

>  <Num_Not_Resolved_Atoms>  (909) 
nan

$$$$
CHEMBL576353
     RDKit          3D

  0  0  0  0  0  0  0  0  0  0999 V3000
M  V30 BEGIN CTAB
M  V30 COUNTS 30 32 0 0 0
M  V30 BEGIN ATOM
M  V30 1 C -2.709504 -1.948114 0.478409 0
M  V30 2 C -1.420375 -2.614785 0.705161 0
M  V30 3 C -1.408132 -3.974553 0.931927 0
M  V30 4 C -0.270298 -4.697215 1.196123 0
M  V30 5 O -0.353469 -6.064105 1.411702 0
M  V30 6 C 0.905195 -3.987868 1.228137 0
M  V30 7 C 0.877372 -2.631792 0.999282 0
M  V30 8 C -0.262228 -1.892908 0.730954 0
M  V30 9 C -0.052817 -0.478233 0.541220 0
M  V30 10 C -0.861515 0.447627 -0.050097 0
M  V30 11 N -0.569016 1.744381 -0.215543 0
M  V30 12 C 0.603621 2.241846 0.212785 0
M  V30 13 C 1.050615 3.539487 0.118842 0
M  V30 14 C 2.282581 3.917893 0.602210 0
M  V30 15 C 3.137345 3.022765 1.206282 0
M  V30 16 C 2.683492 1.723464 1.297433 0
M  V30 17 C 1.446385 1.338313 0.813259 0
M  V30 18 N 1.107051 0.052079 0.955063 0
M  V30 19 H -2.880923 -1.042807 1.093989 0
M  V30 20 H -3.512245 -2.679163 0.850394 0
M  V30 21 H -2.949291 -1.795296 -0.582721 0
M  V30 22 H -2.352838 -4.539685 0.905218 0
M  V30 23 H 0.430963 -6.645488 1.619034 0
M  V30 24 H 1.796364 -4.527752 1.430643 0
M  V30 25 H 1.884949 -2.185353 1.052947 0
M  V30 26 H -1.803605 0.159447 -0.452595 0
M  V30 27 H 0.360590 4.232994 -0.362087 0
M  V30 28 H 2.609960 4.947254 0.515099 0
M  V30 29 H 4.101577 3.330278 1.581982 0
M  V30 30 H 3.331074 0.990147 1.767853 0
M  V30 END ATOM
M  V30 BEGIN BOND
M  V30 1 1 1 2
M  V30 2 2 2 3
M  V30 3 1 3 4
M  V30 4 1 4 5
M  V30 5 2 4 6
M  V30 6 1 6 7
M  V30 7 2 7 8
M  V30 8 1 8 9
M  V30 9 2 9 10
M  V30 10 1 10 11
M  V30 11 2 11 12
M  V30 12 1 12 13
M  V30 13 2 13 14
M  V30 14 1 14 15
M  V30 15 2 15 16
M  V30 16 1 16 17
M  V30 17 2 17 18
M  V30 18 1 8 2
M  V30 19 1 18 9
M  V30 20 1 17 12
M  V30 21 1 1 19
M  V30 22 1 1 20
M  V30 23 1 1 21
M  V30 24 1 3 22
M  V30 25 1 5 23
M  V30 26 1 6 24
M  V30 27 1 7 25
M  V30 28 1 10 26
M  V30 29 1 13 27
M  V30 30 1 14 28
M  V30 31 1 15 29
M  V30 32 1 16 30
M  V30 END BOND
M  V30 END CTAB
M  END
>  <Dataset>  (910) 
ChEMBL_Kinases

>  <Ligand_Instance>  (910) 
nan

>  <PDB_ID>  (910) 
nan

>  <Standardized_SMILES>  (910) 
Cc1cc(O)ccc1-c1cnc2ccccc2n1

>  <Name>  (910) 
nan

>  <Pocket>  (910) 
nan

>  <ATP_Site>  (910) 
nan

>  <Peripheral>  (910) 
nan

>  <Num_H_Atoms_ProtBoundConf>  (910) 
nan

>  <Num_Resolved_Atoms>  (910) 
nan

>  <Num_Not_Resolved_Atoms>  (910) 
nan

$$$$
CHEMBL3746142
     RDKit          3D

  0  0  0  0  0  0  0  0  0  0999 V3000
M  V30 BEGIN CTAB
M  V30 COUNTS 46 48 0 0 0
M  V30 BEGIN ATOM
M  V30 1 N 0.397427 -2.505526 0.512035 0
M  V30 2 C 0.560705 -1.576072 1.561492 0
M  V30 3 O 1.523390 -2.259337 1.971428 0
M  V30 4 C -0.014801 -0.359004 2.079047 0
M  V30 5 C 0.550485 0.095365 3.226596 0
M  V30 6 N 1.626037 -0.368811 4.009138 0
M  V30 7 C 3.012068 -0.652544 4.000283 0
M  V30 8 C 3.721152 -1.808842 4.240858 0
M  V30 9 C 5.089436 -1.757732 4.148484 0
M  V30 10 C 5.793485 -0.617860 3.829542 0
M  V30 11 I 7.886787 -0.825730 3.758925 0
M  V30 12 C 5.102121 0.548924 3.585343 0
M  V30 13 C 3.706295 0.515844 3.674854 0
M  V30 14 F 3.173010 1.753279 3.404602 0
M  V30 15 C 0.008623 1.242146 3.788727 0
M  V30 16 C -1.064157 1.912265 3.220010 0
M  V30 17 F -1.621671 3.030289 3.734487 0
M  V30 18 C -1.558535 1.364783 2.056423 0
M  V30 19 C -1.068002 0.231256 1.446174 0
M  V30 20 O -1.665599 -0.195067 0.285857 0
M  V30 21 C -1.100427 -0.267556 -0.963743 0
M  V30 22 C 0.179842 0.084440 -1.411495 0
M  V30 23 C 0.525680 -0.080584 -2.736180 0
M  V30 24 C -0.384016 -0.594193 -3.635648 0
M  V30 25 C -1.650842 -0.948907 -3.221802 0
M  V30 26 C -2.023724 -0.789681 -1.880345 0
M  V30 27 N -3.348109 -1.197061 -1.602796 0
M  V30 28 S -4.463964 -1.793717 -2.765008 0
M  V30 29 N -4.739829 -0.554077 -3.931355 0
M  V30 30 O -3.966226 -3.039806 -3.458549 0
M  V30 31 O -5.745388 -2.179673 -2.086902 0
M  V30 32 H 0.777472 -2.573522 -0.468166 0
M  V30 33 H -0.174670 -3.399641 0.443758 0
M  V30 34 H 1.411108 -0.635884 5.017197 0
M  V30 35 H 3.064794 -2.622070 4.477808 0
M  V30 36 H 5.575730 -2.710308 4.351878 0
M  V30 37 H 5.691718 1.415469 3.339620 0
M  V30 38 H 0.358667 1.727304 4.714676 0
M  V30 39 H -2.396182 1.876629 1.598797 0
M  V30 40 H 0.765161 0.465922 -0.595731 0
M  V30 41 H 1.544648 0.224529 -2.979286 0
M  V30 42 H -0.073754 -0.709866 -4.675775 0
M  V30 43 H -2.307354 -1.340814 -3.971401 0
M  V30 44 H -3.652551 -1.117428 -0.586197 0
M  V30 45 H -4.354172 0.368638 -3.591359 0
M  V30 46 H -5.783573 -0.422239 -4.028398 0
M  V30 END ATOM
M  V30 BEGIN BOND
M  V30 1 1 1 2
M  V30 2 2 2 3
M  V30 3 1 2 4
M  V30 4 2 4 5
M  V30 5 1 5 6
M  V30 6 1 6 7
M  V30 7 2 7 8
M  V30 8 1 8 9
M  V30 9 2 9 10
M  V30 10 1 10 11
M  V30 11 1 10 12
M  V30 12 2 12 13
M  V30 13 1 13 14
M  V30 14 1 5 15
M  V30 15 2 15 16
M  V30 16 1 16 17
M  V30 17 1 16 18
M  V30 18 2 18 19
M  V30 19 1 19 20
M  V30 20 1 20 21
M  V30 21 2 21 22
M  V30 22 1 22 23
M  V30 23 2 23 24
M  V30 24 1 24 25
M  V30 25 2 25 26
M  V30 26 1 26 27
M  V30 27 1 27 28
M  V30 28 1 28 29
M  V30 29 2 28 30
M  V30 30 2 28 31
M  V30 31 1 19 4
M  V30 32 1 26 21
M  V30 33 1 13 7
M  V30 34 1 1 32
M  V30 35 1 1 33
M  V30 36 1 6 34
M  V30 37 1 8 35
M  V30 38 1 9 36
M  V30 39 1 12 37
M  V30 40 1 15 38
M  V30 41 1 18 39
M  V30 42 1 22 40
M  V30 43 1 23 41
M  V30 44 1 24 42
M  V30 45 1 25 43
M  V30 46 1 27 44
M  V30 47 1 29 45
M  V30 48 1 29 46
M  V30 END BOND
M  V30 END CTAB
M  END
>  <Dataset>  (911) 
ChEMBL_Kinases

>  <Ligand_Instance>  (911) 
nan

>  <PDB_ID>  (911) 
nan

>  <Standardized_SMILES>  (911) 
NC(=O)c1c(Nc2ccc(I)cc2F)cc(F)cc1Oc1ccccc1NS(N)(=O)=O

>  <Name>  (911) 
nan

>  <Pocket>  (911) 
nan

>  <ATP_Site>  (911) 
nan

>  <Peripheral>  (911) 
nan

>  <Num_H_Atoms_ProtBoundConf>  (911) 
nan

>  <Num_Resolved_Atoms>  (911) 
nan

>  <Num_Not_Resolved_Atoms>  (911) 
nan

$$$$
CHEMBL510063
     RDKit          3D

  0  0  0  0  0  0  0  0  0  0999 V3000
M  V30 BEGIN CTAB
M  V30 COUNTS 49 52 0 0 0
M  V30 BEGIN ATOM
M  V30 1 C 2.739994 -2.746924 5.277589 0
M  V30 2 N 2.538987 -3.170845 3.895710 0
M  V30 3 C 2.233274 -4.596785 3.925940 0
M  V30 4 C 3.718161 -2.906823 3.096801 0
M  V30 5 C 3.456574 -3.252451 1.655708 0
M  V30 6 C 2.346706 -2.403759 1.150282 0
M  V30 7 C 2.812730 -1.182698 0.640241 0
M  V30 8 C 1.960753 -0.234325 0.109968 0
M  V30 9 N 0.636044 -0.467266 0.070618 0
M  V30 10 C -0.444630 0.223276 -0.366296 0
M  V30 11 C -0.417582 1.549448 -0.972239 0
M  V30 12 C 0.074983 2.595506 -0.205486 0
M  V30 13 C 0.159381 3.907771 -0.653327 0
M  V30 14 N -0.271003 4.164476 -1.921688 0
M  V30 15 C -0.755442 3.136840 -2.676283 0
M  V30 16 N -1.192395 3.444284 -3.988425 0
M  V30 17 N -0.822792 1.876911 -2.210185 0
M  V30 18 C -1.595308 -0.510498 -0.156197 0
M  V30 19 C -2.989988 -0.202157 -0.452196 0
M  V30 20 C -3.492765 0.005174 -1.727521 0
M  V30 21 C -4.827322 0.289905 -1.884233 0
M  V30 22 C -5.729029 0.388104 -0.844937 0
M  V30 23 F -7.025288 0.674636 -1.120549 0
M  V30 24 C -5.231599 0.182796 0.419647 0
M  V30 25 C -3.878885 -0.108036 0.605494 0
M  V30 26 N -1.176108 -1.673152 0.424658 0
M  V30 27 C 0.167543 -1.632261 0.554416 0
M  V30 28 C 0.987206 -2.603481 1.091544 0
M  V30 29 H 2.218288 -3.456986 5.948267 0
M  V30 30 H 2.189594 -1.773664 5.416051 0
M  V30 31 H 3.780852 -2.585116 5.551160 0
M  V30 32 H 1.255690 -4.745383 3.462564 0
M  V30 33 H 2.998317 -5.145741 3.372276 0
M  V30 34 H 2.164396 -4.931142 4.993790 0
M  V30 35 H 3.897909 -1.815101 3.144457 0
M  V30 36 H 4.629594 -3.381310 3.495921 0
M  V30 37 H 4.368262 -3.150006 1.031728 0
M  V30 38 H 3.072731 -4.308970 1.540720 0
M  V30 39 H 3.858640 -0.876182 0.614762 0
M  V30 40 H 2.300564 0.711805 -0.287443 0
M  V30 41 H 0.419262 2.388683 0.809364 0
M  V30 42 H 0.560912 4.654923 0.024973 0
M  V30 43 H -2.210581 3.387369 -4.283531 0
M  V30 44 H -2.212027 3.369928 -4.221814 0
M  V30 45 H -2.806506 -0.066169 -2.560110 0
M  V30 46 H -5.135540 0.438356 -2.921910 0
M  V30 47 H -5.898676 0.249856 1.256897 0
M  V30 48 H -3.542442 -0.260279 1.622876 0
M  V30 49 H 0.701461 -3.559991 1.495547 0
M  V30 END ATOM
M  V30 BEGIN BOND
M  V30 1 1 1 2
M  V30 2 1 2 3
M  V30 3 1 2 4
M  V30 4 1 4 5
M  V30 5 1 5 6
M  V30 6 1 6 7
M  V30 7 2 7 8
M  V30 8 1 8 9
M  V30 9 1 9 10
M  V30 10 1 10 11
M  V30 11 2 11 12
M  V30 12 1 12 13
M  V30 13 2 13 14
M  V30 14 1 14 15
M  V30 15 1 15 16
M  V30 16 2 15 17
M  V30 17 2 10 18
M  V30 18 1 18 19
M  V30 19 2 19 20
M  V30 20 1 20 21
M  V30 21 2 21 22
M  V30 22 1 22 23
M  V30 23 1 22 24
M  V30 24 2 24 25
M  V30 25 1 18 26
M  V30 26 2 26 27
M  V30 27 1 27 28
M  V30 28 2 28 6
M  V30 29 1 27 9
M  V30 30 1 17 11
M  V30 31 1 25 19
M  V30 32 1 1 29
M  V30 33 1 1 30
M  V30 34 1 1 31
M  V30 35 1 3 32
M  V30 36 1 3 33
M  V30 37 1 3 34
M  V30 38 1 4 35
M  V30 39 1 4 36
M  V30 40 1 5 37
M  V30 41 1 5 38
M  V30 42 1 7 39
M  V30 43 1 8 40
M  V30 44 1 12 41
M  V30 45 1 13 42
M  V30 46 1 16 43
M  V30 47 1 16 44
M  V30 48 1 20 45
M  V30 49 1 21 46
M  V30 50 1 24 47
M  V30 51 1 25 48
M  V30 52 1 28 49
M  V30 END BOND
M  V30 END CTAB
M  END
>  <Dataset>  (912) 
ChEMBL_Kinases

>  <Ligand_Instance>  (912) 
nan

>  <PDB_ID>  (912) 
nan

>  <Standardized_SMILES>  (912) 
CN(C)CCc1ccn2c(-c3ccnc(N)n3)c(-c3ccc(F)cc3)nc2c1

>  <Name>  (912) 
nan

>  <Pocket>  (912) 
nan

>  <ATP_Site>  (912) 
nan

>  <Peripheral>  (912) 
nan

>  <Num_H_Atoms_ProtBoundConf>  (912) 
nan

>  <Num_Resolved_Atoms>  (912) 
nan

>  <Num_Not_Resolved_Atoms>  (912) 
nan

$$$$
CHEMBL3746103
     RDKit          3D

  0  0  0  0  0  0  0  0  0  0999 V3000
M  V30 BEGIN CTAB
M  V30 COUNTS 46 48 0 0 0
M  V30 BEGIN ATOM
M  V30 1 N 0.797657 -1.982865 2.943925 0
M  V30 2 C -0.048131 -2.441603 1.900081 0
M  V30 3 O -0.646359 -3.166733 2.700704 0
M  V30 4 C 0.062505 -1.987835 0.524186 0
M  V30 5 C 1.048019 -1.066579 0.259695 0
M  V30 6 O 1.869359 -0.622554 1.285683 0
M  V30 7 C 2.871357 0.316688 1.113379 0
M  V30 8 C 4.223084 0.159005 1.322188 0
M  V30 9 C 5.116426 1.182271 1.111990 0
M  V30 10 C 4.671979 2.421857 0.676526 0
M  V30 11 F 5.601693 3.379989 0.490608 0
M  V30 12 C 3.324857 2.588642 0.465585 0
M  V30 13 N 2.977264 3.902518 0.018636 0
M  V30 14 S 2.663775 4.870437 1.421710 0
M  V30 15 N 1.327803 4.196138 2.297850 0
M  V30 16 O 3.879497 4.831578 2.291866 0
M  V30 17 O 2.377376 6.303598 1.047881 0
M  V30 18 C 2.411285 1.562706 0.674338 0
M  V30 19 F 1.134555 1.957120 0.408697 0
M  V30 20 C 1.112059 -0.667740 -1.058820 0
M  V30 21 C 0.258744 -1.153119 -2.027796 0
M  V30 22 F 0.451431 -0.657296 -3.290442 0
M  V30 23 C -0.711936 -2.077426 -1.702359 0
M  V30 24 F -1.453710 -2.446505 -2.774599 0
M  V30 25 C -0.817085 -2.508531 -0.396426 0
M  V30 26 N -1.824607 -3.451461 -0.151331 0
M  V30 27 C -3.149166 -3.583323 0.277244 0
M  V30 28 C -3.363592 -4.380893 1.407853 0
M  V30 29 C -4.631933 -4.570841 1.917500 0
M  V30 30 C -5.682359 -3.948112 1.274952 0
M  V30 31 I -7.653127 -4.202545 2.012362 0
M  V30 32 C -5.551842 -3.149437 0.159081 0
M  V30 33 C -4.258528 -3.000722 -0.299031 0
M  V30 34 F -4.076837 -2.227720 -1.386630 0
M  V30 35 H 1.722109 -2.356496 3.298054 0
M  V30 36 H 0.689152 -1.159020 3.602710 0
M  V30 37 H 4.481693 -0.847008 1.663519 0
M  V30 38 H 6.158956 0.923620 1.315355 0
M  V30 39 H 2.953351 4.111594 -0.999641 0
M  V30 40 H 1.458493 4.250398 3.318921 0
M  V30 41 H 0.485163 4.723345 2.028320 0
M  V30 42 H 1.883204 0.061198 -1.321224 0
M  V30 43 H -1.378730 -4.365845 -0.387687 0
M  V30 44 H -2.614103 -4.918980 1.988819 0
M  V30 45 H -4.866064 -5.172295 2.784613 0
M  V30 46 H -6.396444 -2.675690 -0.320943 0
M  V30 END ATOM
M  V30 BEGIN BOND
M  V30 1 1 1 2
M  V30 2 2 2 3
M  V30 3 1 2 4
M  V30 4 2 4 5
M  V30 5 1 5 6
M  V30 6 1 6 7
M  V30 7 2 7 8
M  V30 8 1 8 9
M  V30 9 2 9 10
M  V30 10 1 10 11
M  V30 11 1 10 12
M  V30 12 1 12 13
M  V30 13 1 13 14
M  V30 14 1 14 15
M  V30 15 2 14 16
M  V30 16 2 14 17
M  V30 17 2 12 18
M  V30 18 1 18 19
M  V30 19 1 5 20
M  V30 20 2 20 21
M  V30 21 1 21 22
M  V30 22 1 21 23
M  V30 23 1 23 24
M  V30 24 2 23 25
M  V30 25 1 25 26
M  V30 26 1 26 27
M  V30 27 2 27 28
M  V30 28 1 28 29
M  V30 29 2 29 30
M  V30 30 1 30 31
M  V30 31 1 30 32
M  V30 32 2 32 33
M  V30 33 1 33 34
M  V30 34 1 25 4
M  V30 35 1 33 27
M  V30 36 1 18 7
M  V30 37 1 1 35
M  V30 38 1 1 36
M  V30 39 1 8 37
M  V30 40 1 9 38
M  V30 41 1 13 39
M  V30 42 1 15 40
M  V30 43 1 15 41
M  V30 44 1 20 42
M  V30 45 1 26 43
M  V30 46 1 28 44
M  V30 47 1 29 45
M  V30 48 1 32 46
M  V30 END BOND
M  V30 END CTAB
M  END
>  <Dataset>  (913) 
ChEMBL_Kinases

>  <Ligand_Instance>  (913) 
nan

>  <PDB_ID>  (913) 
nan

>  <Standardized_SMILES>  (913) 
NC(=O)c1c(Oc2ccc(F)c(NS(N)(=O)=O)c2F)cc(F)c(F)c1Nc1ccc(I)cc1F

>  <Name>  (913) 
nan

>  <Pocket>  (913) 
nan

>  <ATP_Site>  (913) 
nan

>  <Peripheral>  (913) 
nan

>  <Num_H_Atoms_ProtBoundConf>  (913) 
nan

>  <Num_Resolved_Atoms>  (913) 
nan

>  <Num_Not_Resolved_Atoms>  (913) 
nan

$$$$
CHEMBL3746075
     RDKit          3D

  0  0  0  0  0  0  0  0  0  0999 V3000
M  V30 BEGIN CTAB
M  V30 COUNTS 49 53 0 0 0
M  V30 BEGIN ATOM
M  V30 1 C 0.307829 0.292346 3.671842 0
M  V30 2 N 0.859576 0.048238 2.350272 0
M  V30 3 C 2.186671 0.340538 2.206468 0
M  V30 4 O 2.849121 0.786703 3.173626 0
M  V30 5 C 2.761192 0.127255 0.974653 0
M  V30 6 S 4.453035 0.493812 0.660877 0
M  V30 7 O 4.814653 0.108949 -0.720733 0
M  V30 8 O 5.331172 -0.239505 1.640122 0
M  V30 9 C 4.651484 2.232640 0.857312 0
M  V30 10 C 4.307442 2.965785 -0.287045 0
M  V30 11 C 4.384852 4.353763 -0.383844 0
M  V30 12 C 4.845681 4.958641 0.788059 0
M  V30 13 O 4.928976 6.364424 0.700693 0
M  V30 14 C 5.195940 4.297255 1.933529 0
M  V30 15 C 5.095491 2.929406 1.958744 0
M  V30 16 C 2.023483 -0.363635 -0.082277 0
M  V30 17 C 0.667267 -0.639973 0.141037 0
M  V30 18 C -0.019484 -1.113247 -0.955388 0
M  V30 19 N -1.316094 -1.352705 -0.712121 0
M  V30 20 C -1.930927 -1.162809 0.477319 0
M  V30 21 N -3.298969 -1.497975 0.370803 0
M  V30 22 C -4.059188 -2.687493 0.222410 0
M  V30 23 C -5.427504 -2.550165 0.186453 0
M  V30 24 C -6.161488 -3.713815 0.010429 0
M  V30 25 C -5.482844 -4.914028 -0.114788 0
M  V30 26 N -6.100146 -6.117528 -0.293967 0
M  V30 27 C -5.144287 -7.059009 -0.377129 0
M  V30 28 C -3.940853 -6.409614 -0.245977 0
M  V30 29 C -4.104278 -5.037881 -0.076005 0
M  V30 30 C -3.382593 -3.879226 0.099050 0
M  V30 31 N -1.210812 -0.692437 1.539355 0
M  V30 32 C 0.091051 -0.428298 1.373208 0
M  V30 33 H -0.774926 0.126956 3.738338 0
M  V30 34 H 0.872321 -0.396825 4.368596 0
M  V30 35 H 0.586997 1.332353 3.953049 0
M  V30 36 H 3.941630 2.480359 -1.206445 0
M  V30 37 H 4.106010 4.869005 -1.287426 0
M  V30 38 H 4.158454 6.867576 0.234636 0
M  V30 39 H 5.547114 4.809261 2.812737 0
M  V30 40 H 5.337103 2.284590 2.790744 0
M  V30 41 H 2.483571 -0.524499 -1.031723 0
M  V30 42 H 0.471232 -1.264502 -1.903427 0
M  V30 43 H -3.713342 -0.541611 0.443191 0
M  V30 44 H -5.879170 -1.584499 0.291069 0
M  V30 45 H -7.233013 -3.613225 -0.020622 0
M  V30 46 H -7.096086 -6.404608 -0.372230 0
M  V30 47 H -5.153779 -8.146931 -0.517673 0
M  V30 48 H -2.924163 -6.826770 -0.259958 0
M  V30 49 H -2.312501 -4.014490 0.125757 0
M  V30 END ATOM
M  V30 BEGIN BOND
M  V30 1 1 1 2
M  V30 2 1 2 3
M  V30 3 2 3 4
M  V30 4 1 3 5
M  V30 5 1 5 6
M  V30 6 2 6 7
M  V30 7 2 6 8
M  V30 8 1 6 9
M  V30 9 2 9 10
M  V30 10 1 10 11
M  V30 11 2 11 12
M  V30 12 1 12 13
M  V30 13 1 12 14
M  V30 14 2 14 15
M  V30 15 2 5 16
M  V30 16 1 16 17
M  V30 17 2 17 18
M  V30 18 1 18 19
M  V30 19 2 19 20
M  V30 20 1 20 21
M  V30 21 1 21 22
M  V30 22 2 22 23
M  V30 23 1 23 24
M  V30 24 2 24 25
M  V30 25 1 25 26
M  V30 26 1 26 27
M  V30 27 2 27 28
M  V30 28 1 28 29
M  V30 29 2 29 30
M  V30 30 1 20 31
M  V30 31 2 31 32
M  V30 32 1 32 2
M  V30 33 1 15 9
M  V30 34 1 32 17
M  V30 35 1 30 22
M  V30 36 1 29 25
M  V30 37 1 1 33
M  V30 38 1 1 34
M  V30 39 1 1 35
M  V30 40 1 10 36
M  V30 41 1 11 37
M  V30 42 1 13 38
M  V30 43 1 14 39
M  V30 44 1 15 40
M  V30 45 1 16 41
M  V30 46 1 18 42
M  V30 47 1 21 43
M  V30 48 1 23 44
M  V30 49 1 24 45
M  V30 50 1 26 46
M  V30 51 1 27 47
M  V30 52 1 28 48
M  V30 53 1 30 49
M  V30 END BOND
M  V30 END CTAB
M  END
>  <Dataset>  (914) 
ChEMBL_Kinases

>  <Ligand_Instance>  (914) 
nan

>  <PDB_ID>  (914) 
nan

>  <Standardized_SMILES>  (914) 
Cn1c(=O)c(S(=O)(=O)c2ccc(O)cc2)cc2cnc(Nc3ccc4[nH]ccc4c3)nc21

>  <Name>  (914) 
nan

>  <Pocket>  (914) 
nan

>  <ATP_Site>  (914) 
nan

>  <Peripheral>  (914) 
nan

>  <Num_H_Atoms_ProtBoundConf>  (914) 
nan

>  <Num_Resolved_Atoms>  (914) 
nan

>  <Num_Not_Resolved_Atoms>  (914) 
nan

$$$$
CHEMBL3746031
     RDKit          3D

  0  0  0  0  0  0  0  0  0  0999 V3000
M  V30 BEGIN CTAB
M  V30 COUNTS 47 49 0 0 0
M  V30 BEGIN ATOM
M  V30 1 N 0.273571 -2.656742 3.010242 0
M  V30 2 C 0.008028 -2.775673 1.623129 0
M  V30 3 O -0.212866 -3.944026 1.948022 0
M  V30 4 C 0.076554 -1.748356 0.601302 0
M  V30 5 C 0.450158 -0.505367 1.050251 0
M  V30 6 O 0.740885 -0.249724 2.400418 0
M  V30 7 C 1.094186 1.088636 2.673011 0
M  V30 8 C 2.312315 1.732934 2.686344 0
M  V30 9 C 2.328944 3.072786 2.996191 0
M  V30 10 C 1.194055 3.793837 3.291329 0
M  V30 11 C -0.033265 3.170425 3.283968 0
M  V30 12 C -1.259964 3.949334 3.599276 0
M  V30 13 S -2.009605 4.647467 2.170737 0
M  V30 14 N -0.969438 5.723871 1.336420 0
M  V30 15 O -3.213297 5.428264 2.619900 0
M  V30 16 O -2.536632 3.564401 1.256396 0
M  V30 17 C -0.065446 1.808623 2.970701 0
M  V30 18 C 0.516336 0.466297 0.079579 0
M  V30 19 C 0.218808 0.176653 -1.254675 0
M  V30 20 F 0.319820 1.215220 -2.119049 0
M  V30 21 C -0.148979 -1.097480 -1.624099 0
M  V30 22 F -0.406622 -1.211068 -2.948155 0
M  V30 23 C -0.226833 -2.095480 -0.685866 0
M  V30 24 N -0.621432 -3.373435 -1.148874 0
M  V30 25 C -0.029503 -4.588358 -1.583519 0
M  V30 26 C -0.421687 -5.677729 -0.799935 0
M  V30 27 C 0.055762 -6.961675 -1.061844 0
M  V30 28 C 0.926160 -7.111004 -2.120677 0
M  V30 29 I 1.702328 -9.024253 -2.593384 0
M  V30 30 C 1.321266 -6.051534 -2.900210 0
M  V30 31 C 0.837851 -4.794332 -2.623215 0
M  V30 32 F 1.172298 -3.713707 -3.330484 0
M  V30 33 H -0.239214 -1.977272 3.623393 0
M  V30 34 H -0.226908 -1.982290 3.649613 0
M  V30 35 H 3.106987 1.045900 2.439547 0
M  V30 36 H 3.342163 3.493526 2.980592 0
M  V30 37 H 1.337286 4.842149 3.520870 0
M  V30 38 H -1.984453 3.238075 4.050767 0
M  V30 39 H -1.077789 4.740691 4.339245 0
M  V30 40 H -1.435924 6.307581 0.639941 0
M  V30 41 H -0.386822 6.212363 2.025711 0
M  V30 42 H -1.091705 1.416446 2.995371 0
M  V30 43 H 0.805157 1.471918 0.360389 0
M  V30 44 H -1.659751 -3.292059 -1.125281 0
M  V30 45 H -1.104664 -5.701081 0.062340 0
M  V30 46 H -0.197090 -7.844970 -0.508719 0
M  V30 47 H 2.009056 -6.174054 -3.735413 0
M  V30 END ATOM
M  V30 BEGIN BOND
M  V30 1 1 1 2
M  V30 2 2 2 3
M  V30 3 1 2 4
M  V30 4 2 4 5
M  V30 5 1 5 6
M  V30 6 1 6 7
M  V30 7 2 7 8
M  V30 8 1 8 9
M  V30 9 2 9 10
M  V30 10 1 10 11
M  V30 11 1 11 12
M  V30 12 1 12 13
M  V30 13 1 13 14
M  V30 14 2 13 15
M  V30 15 2 13 16
M  V30 16 2 11 17
M  V30 17 1 5 18
M  V30 18 2 18 19
M  V30 19 1 19 20
M  V30 20 1 19 21
M  V30 21 1 21 22
M  V30 22 2 21 23
M  V30 23 1 23 24
M  V30 24 1 24 25
M  V30 25 2 25 26
M  V30 26 1 26 27
M  V30 27 2 27 28
M  V30 28 1 28 29
M  V30 29 1 28 30
M  V30 30 2 30 31
M  V30 31 1 31 32
M  V30 32 1 23 4
M  V30 33 1 31 25
M  V30 34 1 17 7
M  V30 35 1 1 33
M  V30 36 1 1 34
M  V30 37 1 8 35
M  V30 38 1 9 36
M  V30 39 1 10 37
M  V30 40 1 12 38
M  V30 41 1 12 39
M  V30 42 1 14 40
M  V30 43 1 14 41
M  V30 44 1 17 42
M  V30 45 1 18 43
M  V30 46 1 24 44
M  V30 47 1 26 45
M  V30 48 1 27 46
M  V30 49 1 30 47
M  V30 END BOND
M  V30 END CTAB
M  END
>  <Dataset>  (915) 
ChEMBL_Kinases

>  <Ligand_Instance>  (915) 
nan

>  <PDB_ID>  (915) 
nan

>  <Standardized_SMILES>  (915) 
NC(=O)c1c(Oc2cccc(CS(N)(=O)=O)c2)cc(F)c(F)c1Nc1ccc(I)cc1F

>  <Name>  (915) 
nan

>  <Pocket>  (915) 
nan

>  <ATP_Site>  (915) 
nan

>  <Peripheral>  (915) 
nan

>  <Num_H_Atoms_ProtBoundConf>  (915) 
nan

>  <Num_Resolved_Atoms>  (915) 
nan

>  <Num_Not_Resolved_Atoms>  (915) 
nan

$$$$
CHEMBL374482
     RDKit          3D

  0  0  0  0  0  0  0  0  0  0999 V3000
M  V30 BEGIN CTAB
M  V30 COUNTS 44 47 0 0 0
M  V30 BEGIN ATOM
M  V30 1 N 0.577707 -5.447561 3.001602 0
M  V30 2 C 0.970111 -4.780272 2.149143 0
M  V30 3 C 1.432977 -3.956407 1.084349 0
M  V30 4 C 2.357444 -4.477079 0.178541 0
M  V30 5 N 2.811802 -3.710876 -0.842752 0
M  V30 6 C 2.384617 -2.448354 -1.000194 0
M  V30 7 C 2.859417 -1.685962 -2.045942 0
M  V30 8 C 2.443940 -0.389197 -2.237705 0
M  V30 9 C 1.518908 0.220242 -1.380920 0
M  V30 10 N 1.078861 1.545957 -1.577735 0
M  V30 11 C 0.169677 2.353800 -0.804843 0
M  V30 12 C 0.680469 2.695592 0.553045 0
M  V30 13 C 1.451814 3.866239 0.597834 0
M  V30 14 C 2.032281 4.401279 1.728784 0
M  V30 15 C 1.855657 3.756280 2.914186 0
M  V30 16 C 1.104350 2.618700 2.862149 0
M  V30 17 N 0.549570 2.116162 1.753251 0
M  V30 18 C 1.087558 -0.596953 -0.361179 0
M  V30 19 C 1.482148 -1.897671 -0.139839 0
M  V30 20 C 1.005352 -2.657427 0.906929 0
M  V30 21 N 0.063233 -2.082597 1.805118 0
M  V30 22 C -1.358230 -2.021736 1.828821 0
M  V30 23 C -1.950888 -1.363724 2.883638 0
M  V30 24 C -3.332785 -1.339439 2.849006 0
M  V30 25 C -4.095749 -1.914925 1.857175 0
M  V30 26 F -5.444839 -1.829654 1.925034 0
M  V30 27 C -3.424738 -2.555047 0.836150 0
M  V30 28 Cl -4.408272 -3.286360 -0.425004 0
M  V30 29 C -2.036812 -2.628611 0.789714 0
M  V30 30 H 2.745192 -5.484352 0.243275 0
M  V30 31 H 3.579056 -2.070536 -2.762948 0
M  V30 32 H 2.833583 0.192365 -3.071061 0
M  V30 33 H 1.491371 2.015827 -2.437947 0
M  V30 34 H -0.791051 1.796302 -0.662122 0
M  V30 35 H -0.056872 3.293842 -1.337330 0
M  V30 36 H 1.646280 4.450892 -0.309261 0
M  V30 37 H 2.617496 5.309966 1.697605 0
M  V30 38 H 2.256275 4.072097 3.864198 0
M  V30 39 H 0.900172 2.021063 3.763166 0
M  V30 40 H 0.369004 -0.238717 0.355438 0
M  V30 41 H 0.679925 -1.664438 2.528848 0
M  V30 42 H -1.369390 -0.905919 3.671286 0
M  V30 43 H -3.839085 -0.827661 3.666939 0
M  V30 44 H -1.529650 -3.135949 -0.020854 0
M  V30 END ATOM
M  V30 BEGIN BOND
M  V30 1 3 1 2
M  V30 2 1 2 3
M  V30 3 2 3 4
M  V30 4 1 4 5
M  V30 5 2 5 6
M  V30 6 1 6 7
M  V30 7 2 7 8
M  V30 8 1 8 9
M  V30 9 1 9 10
M  V30 10 1 10 11
M  V30 11 1 11 12
M  V30 12 2 12 13
M  V30 13 1 13 14
M  V30 14 2 14 15
M  V30 15 1 15 16
M  V30 16 2 16 17
M  V30 17 2 9 18
M  V30 18 1 18 19
M  V30 19 2 19 20
M  V30 20 1 20 21
M  V30 21 1 21 22
M  V30 22 2 22 23
M  V30 23 1 23 24
M  V30 24 2 24 25
M  V30 25 1 25 26
M  V30 26 1 25 27
M  V30 27 1 27 28
M  V30 28 2 27 29
M  V30 29 1 20 3
M  V30 30 1 29 22
M  V30 31 1 19 6
M  V30 32 1 17 12
M  V30 33 1 4 30
M  V30 34 1 7 31
M  V30 35 1 8 32
M  V30 36 1 10 33
M  V30 37 1 11 34
M  V30 38 1 11 35
M  V30 39 1 13 36
M  V30 40 1 14 37
M  V30 41 1 15 38
M  V30 42 1 16 39
M  V30 43 1 18 40
M  V30 44 1 21 41
M  V30 45 1 23 42
M  V30 46 1 24 43
M  V30 47 1 29 44
M  V30 END BOND
M  V30 END CTAB
M  END
>  <Dataset>  (916) 
ChEMBL_Kinases

>  <Ligand_Instance>  (916) 
nan

>  <PDB_ID>  (916) 
nan

>  <Standardized_SMILES>  (916) 
N#Cc1cnc2ccc(NCc3ccccn3)cc2c1Nc1ccc(F)c(Cl)c1

>  <Name>  (916) 
nan

>  <Pocket>  (916) 
nan

>  <ATP_Site>  (916) 
nan

>  <Peripheral>  (916) 
nan

>  <Num_H_Atoms_ProtBoundConf>  (916) 
nan

>  <Num_Resolved_Atoms>  (916) 
nan

>  <Num_Not_Resolved_Atoms>  (916) 
nan

$$$$
CHEMBL3745954
     RDKit          3D

  0  0  0  0  0  0  0  0  0  0999 V3000
M  V30 BEGIN CTAB
M  V30 COUNTS 48 51 0 0 0
M  V30 BEGIN ATOM
M  V30 1 C -0.384983 -7.754376 0.753696 0
M  V30 2 O -0.972417 -6.540171 0.349324 0
M  V30 3 C -0.249239 -5.334998 0.375002 0
M  V30 4 C 1.071505 -5.279216 0.797029 0
M  V30 5 C 1.788231 -4.096338 0.824456 0
M  V30 6 C 1.118890 -2.963279 0.407460 0
M  V30 7 F 1.814695 -1.811554 0.430745 0
M  V30 8 C -0.192890 -2.996760 -0.015456 0
M  V30 9 C -0.884950 -1.786948 -0.450325 0
M  V30 10 N -0.408422 -0.532331 -0.496901 0
M  V30 11 C -1.349630 0.310599 -0.955037 0
M  V30 12 C -1.225137 1.668726 -1.141244 0
M  V30 13 N -0.135275 2.508914 -0.902694 0
M  V30 14 C 0.139195 3.210678 0.310993 0
M  V30 15 C 0.355667 2.371693 1.521177 0
M  V30 16 C 0.618840 3.356666 2.673935 0
M  V30 17 C 1.714569 2.866219 3.590306 0
M  V30 18 N 1.484160 1.458078 3.831523 0
M  V30 19 C 1.894259 0.757750 2.606057 0
M  V30 20 C 1.654873 1.589781 1.389977 0
M  V30 21 C -2.350375 2.314044 -1.632901 0
M  V30 22 Cl -2.405906 4.042577 -1.943164 0
M  V30 23 C -3.493190 1.558629 -1.894463 0
M  V30 24 N -3.539136 0.247989 -1.689283 0
M  V30 25 C -2.485560 -0.421450 -1.218181 0
M  V30 26 N -2.170128 -1.689672 -0.901160 0
M  V30 27 C -0.892910 -4.185525 -0.036441 0
M  V30 28 H 0.657367 -7.851053 0.388522 0
M  V30 29 H -0.965382 -8.596494 0.313052 0
M  V30 30 H -0.361411 -7.861825 1.860163 0
M  V30 31 H 1.574494 -6.181439 1.119242 0
M  V30 32 H 2.817751 -4.057949 1.154302 0
M  V30 33 H 0.473341 2.557801 -1.758641 0
M  V30 34 H -0.781916 3.834922 0.513123 0
M  V30 35 H 0.949807 3.963553 0.200804 0
M  V30 36 H -0.510828 1.761021 1.779161 0
M  V30 37 H -0.297928 3.418259 3.315043 0
M  V30 38 H 0.855679 4.362315 2.316070 0
M  V30 39 H 1.647459 3.467992 4.519759 0
M  V30 40 H 2.733982 2.974534 3.172923 0
M  V30 41 H 1.996628 1.094780 4.659222 0
M  V30 42 H 1.391940 -0.208058 2.550360 0
M  V30 43 H 3.004775 0.585420 2.696238 0
M  V30 44 H 2.456811 2.373114 1.247570 0
M  V30 45 H 1.716185 0.961111 0.504259 0
M  V30 46 H -4.376027 2.077850 -2.282354 0
M  V30 47 H -2.830569 -2.492516 -0.991456 0
M  V30 48 H -1.922871 -4.220275 -0.367067 0
M  V30 END ATOM
M  V30 BEGIN BOND
M  V30 1 1 1 2
M  V30 2 1 2 3
M  V30 3 2 3 4
M  V30 4 1 4 5
M  V30 5 2 5 6
M  V30 6 1 6 7
M  V30 7 1 6 8
M  V30 8 1 8 9
M  V30 9 2 9 10
M  V30 10 1 10 11
M  V30 11 2 11 12
M  V30 12 1 12 13
M  V30 13 1 13 14
M  V30 14 1 14 15
M  V30 15 1 15 16
M  V30 16 1 16 17
M  V30 17 1 17 18
M  V30 18 1 18 19
M  V30 19 1 19 20
M  V30 20 1 12 21
M  V30 21 1 21 22
M  V30 22 2 21 23
M  V30 23 1 23 24
M  V30 24 2 24 25
M  V30 25 1 25 26
M  V30 26 2 8 27
M  V30 27 1 27 3
M  V30 28 1 26 9
M  V30 29 1 25 11
M  V30 30 1 20 15
M  V30 31 1 1 28
M  V30 32 1 1 29
M  V30 33 1 1 30
M  V30 34 1 4 31
M  V30 35 1 5 32
M  V30 36 1 13 33
M  V30 37 1 14 34
M  V30 38 1 14 35
M  V30 39 1 15 36
M  V30 40 1 16 37
M  V30 41 1 16 38
M  V30 42 1 17 39
M  V30 43 1 17 40
M  V30 44 1 18 41
M  V30 45 1 19 42
M  V30 46 1 19 43
M  V30 47 1 20 44
M  V30 48 1 20 45
M  V30 49 1 23 46
M  V30 50 1 26 47
M  V30 51 1 27 48
M  V30 END BOND
M  V30 END CTAB
M  END
>  <Dataset>  (917) 
ChEMBL_Kinases

>  <Ligand_Instance>  (917) 
nan

>  <PDB_ID>  (917) 
nan

>  <Standardized_SMILES>  (917) 
COc1ccc(F)c(-c2nc3c(NCC4CCNCC4)c(Cl)cnc3[nH]2)c1

>  <Name>  (917) 
nan

>  <Pocket>  (917) 
nan

>  <ATP_Site>  (917) 
nan

>  <Peripheral>  (917) 
nan

>  <Num_H_Atoms_ProtBoundConf>  (917) 
nan

>  <Num_Resolved_Atoms>  (917) 
nan

>  <Num_Not_Resolved_Atoms>  (917) 
nan

$$$$
CHEMBL3745925
     RDKit          3D

  0  0  0  0  0  0  0  0  0  0999 V3000
M  V30 BEGIN CTAB
M  V30 COUNTS 51 54 0 0 0
M  V30 BEGIN ATOM
M  V30 1 C 0.724482 -1.696421 -0.337130 0
M  V30 2 N 1.180963 -0.814066 0.717038 0
M  V30 3 C 2.494058 -0.531402 0.765771 0
M  V30 4 O 3.323277 -0.997419 -0.055537 0
M  V30 5 C 3.018391 0.298143 1.733471 0
M  V30 6 O 4.337226 0.678215 1.910120 0
M  V30 7 C 5.091518 1.366006 0.991436 0
M  V30 8 C 4.800337 1.851322 -0.258280 0
M  V30 9 C 5.759169 2.520326 -0.988979 0
M  V30 10 C 7.043079 2.735968 -0.513290 0
M  V30 11 F 7.875893 3.403510 -1.332982 0
M  V30 12 C 7.346883 2.250574 0.746061 0
M  V30 13 C 6.375375 1.571260 1.489448 0
M  V30 14 F 6.860271 1.169268 2.702768 0
M  V30 15 C 2.146055 0.833184 2.657825 0
M  V30 16 C 0.801079 0.533741 2.594880 0
M  V30 17 C -0.140682 1.015793 3.466183 0
M  V30 18 N -1.453192 0.729502 3.412493 0
M  V30 19 C -1.894700 -0.100922 2.422859 0
M  V30 20 N -3.248918 -0.514751 2.212502 0
M  V30 21 C -3.731528 -1.394540 1.164936 0
M  V30 22 C -3.472539 -0.862709 -0.223617 0
M  V30 23 C -3.379554 -1.972137 -1.243974 0
M  V30 24 C -4.649768 -2.754259 -1.370287 0
M  V30 25 C -4.981479 -3.544429 -0.128966 0
M  V30 26 C -3.749263 -3.873339 0.653904 0
M  V30 27 C -3.034954 -2.725269 1.253337 0
M  V30 28 N -1.005903 -0.581462 1.566706 0
M  V30 29 C 0.307538 -0.299783 1.614056 0
M  V30 30 H 0.744495 -2.760813 -0.042060 0
M  V30 31 H -0.319580 -1.462693 -0.618424 0
M  V30 32 H 1.375566 -1.577073 -1.237390 0
M  V30 33 H 3.791044 1.648492 -0.555284 0
M  V30 34 H 5.363112 2.838950 -1.959292 0
M  V30 35 H 8.350333 2.439695 1.073985 0
M  V30 36 H 2.388568 1.502153 3.483308 0
M  V30 37 H 0.178700 1.678219 4.263641 0
M  V30 38 H -3.898035 -0.088841 2.940845 0
M  V30 39 H -4.815136 -1.456168 1.281789 0
M  V30 40 H -4.260436 -0.155860 -0.555053 0
M  V30 41 H -2.515210 -0.312260 -0.245197 0
M  V30 42 H -2.502197 -2.609039 -1.141048 0
M  V30 43 H -3.258952 -1.438685 -2.232455 0
M  V30 44 H -4.550097 -3.423504 -2.250610 0
M  V30 45 H -5.476269 -2.040694 -1.641531 0
M  V30 46 H -5.395235 -4.523629 -0.472132 0
M  V30 47 H -5.792695 -3.109900 0.482177 0
M  V30 48 H -3.056347 -4.386978 -0.075262 0
M  V30 49 H -3.980001 -4.648926 1.412946 0
M  V30 50 H -2.012502 -2.609418 0.838465 0
M  V30 51 H -2.854536 -2.923637 2.350489 0
M  V30 END ATOM
M  V30 BEGIN BOND
M  V30 1 1 1 2
M  V30 2 1 2 3
M  V30 3 2 3 4
M  V30 4 1 3 5
M  V30 5 1 5 6
M  V30 6 1 6 7
M  V30 7 2 7 8
M  V30 8 1 8 9
M  V30 9 2 9 10
M  V30 10 1 10 11
M  V30 11 1 10 12
M  V30 12 2 12 13
M  V30 13 1 13 14
M  V30 14 2 5 15
M  V30 15 1 15 16
M  V30 16 2 16 17
M  V30 17 1 17 18
M  V30 18 2 18 19
M  V30 19 1 19 20
M  V30 20 1 20 21
M  V30 21 1 21 22
M  V30 22 1 22 23
M  V30 23 1 23 24
M  V30 24 1 24 25
M  V30 25 1 25 26
M  V30 26 1 26 27
M  V30 27 1 19 28
M  V30 28 2 28 29
M  V30 29 1 29 2
M  V30 30 1 13 7
M  V30 31 1 29 16
M  V30 32 1 27 21
M  V30 33 1 1 30
M  V30 34 1 1 31
M  V30 35 1 1 32
M  V30 36 1 8 33
M  V30 37 1 9 34
M  V30 38 1 12 35
M  V30 39 1 15 36
M  V30 40 1 17 37
M  V30 41 1 20 38
M  V30 42 1 21 39
M  V30 43 1 22 40
M  V30 44 1 22 41
M  V30 45 1 23 42
M  V30 46 1 23 43
M  V30 47 1 24 44
M  V30 48 1 24 45
M  V30 49 1 25 46
M  V30 50 1 25 47
M  V30 51 1 26 48
M  V30 52 1 26 49
M  V30 53 1 27 50
M  V30 54 1 27 51
M  V30 END BOND
M  V30 END CTAB
M  END
>  <Dataset>  (918) 
ChEMBL_Kinases

>  <Ligand_Instance>  (918) 
nan

>  <PDB_ID>  (918) 
nan

>  <Standardized_SMILES>  (918) 
Cn1c(=O)c(Oc2ccc(F)cc2F)cc2cnc(NC3CCCCCC3)nc21

>  <Name>  (918) 
nan

>  <Pocket>  (918) 
nan

>  <ATP_Site>  (918) 
nan

>  <Peripheral>  (918) 
nan

>  <Num_H_Atoms_ProtBoundConf>  (918) 
nan

>  <Num_Resolved_Atoms>  (918) 
nan

>  <Num_Not_Resolved_Atoms>  (918) 
nan

$$$$
CHEMBL510143
     RDKit          3D

  0  0  0  0  0  0  0  0  0  0999 V3000
M  V30 BEGIN CTAB
M  V30 COUNTS 42 43 0 0 0
M  V30 BEGIN ATOM
M  V30 1 C -0.300394 -4.998032 0.117128 0
M  V30 2 C -0.290619 -4.612120 1.603727 0
M  V30 3 C -1.586996 -3.916042 1.856166 0
M  V30 4 C 0.887938 -3.735257 1.850660 0
M  V30 5 O 1.802042 -4.048151 2.637818 0
M  V30 6 O 0.805707 -2.607029 1.118932 0
M  V30 7 C 1.668223 -1.524628 1.045594 0
M  V30 8 C 1.844074 -0.681672 2.270859 0
M  V30 9 C 2.605826 -1.245474 3.399483 0
M  V30 10 O 3.860685 -1.783348 3.054188 0
M  V30 11 C 2.493955 0.672389 1.816836 0
M  V30 12 C 1.365610 1.219629 1.030081 0
M  V30 13 C 1.222359 2.080598 0.027131 0
M  V30 14 C 0.069625 2.580882 -0.703315 0
M  V30 15 C 0.206061 2.483562 -2.094508 0
M  V30 16 C -0.757739 2.914948 -2.993270 0
M  V30 17 C -1.895630 3.463424 -2.436351 0
M  V30 18 Cl -3.199322 4.049946 -3.463543 0
M  V30 19 C -2.080231 3.583222 -1.076240 0
M  V30 20 F -3.186614 4.118945 -0.503513 0
M  V30 21 C -1.078654 3.132585 -0.245187 0
M  V30 22 C 0.134902 0.556593 1.516985 0
M  V30 23 O -1.063278 0.599969 1.071680 0
M  V30 24 O 0.541129 -0.177994 2.626898 0
M  V30 25 H -1.129467 -5.732072 -0.000761 0
M  V30 26 H -0.550651 -4.110851 -0.499303 0
M  V30 27 H 0.693332 -5.422837 -0.120310 0
M  V30 28 H -0.250050 -5.544695 2.185078 0
M  V30 29 H -2.335034 -4.590894 2.318197 0
M  V30 30 H -1.476231 -3.013906 2.498116 0
M  V30 31 H -2.072326 -3.547948 0.903865 0
M  V30 32 H 1.298063 -0.905783 0.178259 0
M  V30 33 H 2.663016 -1.908699 0.672530 0
M  V30 34 H 2.906998 -0.341022 4.046509 0
M  V30 35 H 2.094575 -1.889047 4.103993 0
M  V30 36 H 4.330982 -1.153978 2.443398 0
M  V30 37 H 2.788335 1.261296 2.680849 0
M  V30 38 H 3.369923 0.375241 1.230380 0
M  V30 39 H 2.194266 2.488051 -0.301250 0
M  V30 40 H 1.094318 2.055498 -2.576667 0
M  V30 41 H -0.633605 2.830035 -4.062741 0
M  V30 42 H -1.190209 3.232119 0.803332 0
M  V30 END ATOM
M  V30 BEGIN BOND
M  V30 1 1 1 2
M  V30 2 1 2 3
M  V30 3 1 2 4
M  V30 4 2 4 5
M  V30 5 1 4 6
M  V30 6 1 6 7
M  V30 7 1 7 8
M  V30 8 1 8 9
M  V30 9 1 9 10
M  V30 10 1 8 11
M  V30 11 1 11 12
M  V30 12 2 12 13
M  V30 13 1 13 14
M  V30 14 2 14 15
M  V30 15 1 15 16
M  V30 16 2 16 17
M  V30 17 1 17 18
M  V30 18 1 17 19
M  V30 19 1 19 20
M  V30 20 2 19 21
M  V30 21 1 12 22
M  V30 22 2 22 23
M  V30 23 1 22 24
M  V30 24 1 24 8
M  V30 25 1 21 14
M  V30 26 1 1 25
M  V30 27 1 1 26
M  V30 28 1 1 27
M  V30 29 1 2 28
M  V30 30 1 3 29
M  V30 31 1 3 30
M  V30 32 1 3 31
M  V30 33 1 7 32
M  V30 34 1 7 33
M  V30 35 1 9 34
M  V30 36 1 9 35
M  V30 37 1 10 36
M  V30 38 1 11 37
M  V30 39 1 11 38
M  V30 40 1 13 39
M  V30 41 1 15 40
M  V30 42 1 16 41
M  V30 43 1 21 42
M  V30 END BOND
M  V30 END CTAB
M  END
>  <Dataset>  (919) 
ChEMBL_Kinases

>  <Ligand_Instance>  (919) 
nan

>  <PDB_ID>  (919) 
nan

>  <Standardized_SMILES>  (919) 
CC(C)C(=O)OCC1(CO)C/C(=C/c2ccc(Cl)c(F)c2)C(=O)O1

>  <Name>  (919) 
nan

>  <Pocket>  (919) 
nan

>  <ATP_Site>  (919) 
nan

>  <Peripheral>  (919) 
nan

>  <Num_H_Atoms_ProtBoundConf>  (919) 
nan

>  <Num_Resolved_Atoms>  (919) 
nan

>  <Num_Not_Resolved_Atoms>  (919) 
nan

$$$$
CHEMBL3745852
     RDKit          3D

  0  0  0  0  0  0  0  0  0  0999 V3000
M  V30 BEGIN CTAB
M  V30 COUNTS 39 42 0 0 0
M  V30 BEGIN ATOM
M  V30 1 C 0.978805 -4.108956 0.561109 0
M  V30 2 O 0.127818 -3.231601 1.229631 0
M  V30 3 C 0.050737 -1.866667 1.001765 0
M  V30 4 N 0.910951 -1.432906 0.029612 0
M  V30 5 C 0.982840 -0.142296 -0.333126 0
M  V30 6 N 1.811138 0.335507 -1.282548 0
M  V30 7 C 1.827642 1.664729 -1.597449 0
M  V30 8 N 2.722774 2.118436 -2.609219 0
M  V30 9 C 3.565634 1.121420 -3.243375 0
M  V30 10 C 4.533243 0.318265 -2.387510 0
M  V30 11 C 5.037421 1.467185 -3.238370 0
M  V30 12 N 1.011349 2.559790 -0.968177 0
M  V30 13 C 0.143268 2.152968 0.005767 0
M  V30 14 C 0.179931 0.800260 0.271883 0
M  V30 15 C -0.676770 0.342766 1.245780 0
M  V30 16 C -0.803536 -0.960576 1.667204 0
M  V30 17 O -1.537454 -1.636589 2.565371 0
M  V30 18 C -2.482322 -1.360329 3.464086 0
M  V30 19 C -3.173633 -0.280601 3.923704 0
M  V30 20 C -4.137745 -0.262352 4.900253 0
M  V30 21 C -4.432935 -1.475021 5.474103 0
M  V30 22 F -5.389493 -1.456286 6.442843 0
M  V30 23 C -3.801655 -2.637033 5.094130 0
M  V30 24 C -2.826778 -2.569591 4.087279 0
M  V30 25 F -2.328791 -3.835387 3.866284 0
M  V30 26 H 1.085074 -5.056872 1.115877 0
M  V30 27 H 0.509114 -4.367289 -0.427252 0
M  V30 28 H 1.967618 -3.671751 0.297715 0
M  V30 29 H 2.748620 3.120974 -2.859757 0
M  V30 30 H 3.190150 0.643253 -4.172880 0
M  V30 31 H 4.795519 -0.697217 -2.734887 0
M  V30 32 H 4.474161 0.512782 -1.296294 0
M  V30 33 H 5.616231 1.238651 -4.151863 0
M  V30 34 H 5.362704 2.379351 -2.682741 0
M  V30 35 H -0.520382 2.817963 0.531341 0
M  V30 36 H -1.331466 1.006996 1.762390 0
M  V30 37 H -2.891007 0.627158 3.431288 0
M  V30 38 H -4.579381 0.693845 5.133691 0
M  V30 39 H -4.132431 -3.513785 5.628455 0
M  V30 END ATOM
M  V30 BEGIN BOND
M  V30 1 1 1 2
M  V30 2 1 2 3
M  V30 3 2 3 4
M  V30 4 1 4 5
M  V30 5 2 5 6
M  V30 6 1 6 7
M  V30 7 1 7 8
M  V30 8 1 8 9
M  V30 9 1 9 10
M  V30 10 1 10 11
M  V30 11 2 7 12
M  V30 12 1 12 13
M  V30 13 2 13 14
M  V30 14 1 14 15
M  V30 15 2 15 16
M  V30 16 1 16 17
M  V30 17 1 17 18
M  V30 18 2 18 19
M  V30 19 1 19 20
M  V30 20 2 20 21
M  V30 21 1 21 22
M  V30 22 1 21 23
M  V30 23 2 23 24
M  V30 24 1 24 25
M  V30 25 1 16 3
M  V30 26 1 24 18
M  V30 27 1 14 5
M  V30 28 1 11 9
M  V30 29 1 1 26
M  V30 30 1 1 27
M  V30 31 1 1 28
M  V30 32 1 8 29
M  V30 33 1 9 30
M  V30 34 1 10 31
M  V30 35 1 10 32
M  V30 36 1 11 33
M  V30 37 1 11 34
M  V30 38 1 13 35
M  V30 39 1 15 36
M  V30 40 1 19 37
M  V30 41 1 20 38
M  V30 42 1 23 39
M  V30 END BOND
M  V30 END CTAB
M  END
>  <Dataset>  (920) 
ChEMBL_Kinases

>  <Ligand_Instance>  (920) 
nan

>  <PDB_ID>  (920) 
nan

>  <Standardized_SMILES>  (920) 
COc1nc2nc(NC3CC3)ncc2cc1Oc1ccc(F)cc1F

>  <Name>  (920) 
nan

>  <Pocket>  (920) 
nan

>  <ATP_Site>  (920) 
nan

>  <Peripheral>  (920) 
nan

>  <Num_H_Atoms_ProtBoundConf>  (920) 
nan

>  <Num_Resolved_Atoms>  (920) 
nan

>  <Num_Not_Resolved_Atoms>  (920) 
nan

$$$$
CHEMBL374581
     RDKit          3D

  0  0  0  0  0  0  0  0  0  0999 V3000
M  V30 BEGIN CTAB
M  V30 COUNTS 41 46 0 0 0
M  V30 BEGIN ATOM
M  V30 1 O 1.179514 1.082027 4.648474 0
M  V30 2 C 0.909295 0.230141 3.802852 0
M  V30 3 N 0.824652 -1.033706 4.418988 0
M  V30 4 C 0.457421 -2.055471 3.417857 0
M  V30 5 C 0.406522 -1.312442 2.197004 0
M  V30 6 C 0.164760 -1.566169 0.851464 0
M  V30 7 C 0.142410 -0.652134 -0.210825 0
M  V30 8 C 0.395823 0.688221 0.119604 0
M  V30 9 N 0.448818 1.802083 -0.641698 0
M  V30 10 C 0.728918 2.847078 0.159129 0
M  V30 11 C 0.873365 4.170193 -0.205502 0
M  V30 12 C 1.161237 5.089663 0.776445 0
M  V30 13 C 1.293372 4.657241 2.077474 0
M  V30 14 C 1.132091 3.319977 2.345154 0
M  V30 15 C 0.847969 2.350387 1.437071 0
M  V30 16 C 0.643468 0.999844 1.437294 0
M  V30 17 C 0.642304 0.032577 2.397519 0
M  V30 18 C -0.109458 -0.902209 -1.623148 0
M  V30 19 C -0.390213 -2.281651 -2.048067 0
M  V30 20 C -0.355585 -3.278061 -0.935573 0
M  V30 21 C -0.598277 -4.561544 -1.373655 0
M  V30 22 C -0.592612 -5.574840 -0.431158 0
M  V30 23 C -0.348265 -5.271321 0.892618 0
M  V30 24 C -0.118229 -3.949569 1.212984 0
M  V30 25 C -0.108160 -2.898835 0.341344 0
M  V30 26 H 0.952006 -1.434854 5.400636 0
M  V30 27 H -0.401380 -2.620933 3.785665 0
M  V30 28 H 1.349073 -2.716119 3.436352 0
M  V30 29 H 0.298274 1.850378 -1.679824 0
M  V30 30 H 0.769040 4.504740 -1.225844 0
M  V30 31 H 1.271218 6.121223 0.474590 0
M  V30 32 H 1.519325 5.372243 2.855055 0
M  V30 33 H 1.246772 3.061281 3.367213 0
M  V30 34 H -0.996274 -0.258574 -1.903101 0
M  V30 35 H 0.719526 -0.444315 -2.242872 0
M  V30 36 H 0.420613 -2.621026 -2.757437 0
M  V30 37 H -1.333450 -2.365146 -2.632075 0
M  V30 38 H -0.792260 -4.828390 -2.402234 0
M  V30 39 H -0.784308 -6.594927 -0.771011 0
M  V30 40 H -0.368089 -6.137944 1.537772 0
M  V30 41 H 0.051609 -3.915165 2.248546 0
M  V30 END ATOM
M  V30 BEGIN BOND
M  V30 1 2 1 2
M  V30 2 1 2 3
M  V30 3 1 3 4
M  V30 4 1 4 5
M  V30 5 2 5 6
M  V30 6 1 6 7
M  V30 7 2 7 8
M  V30 8 1 8 9
M  V30 9 1 9 10
M  V30 10 2 10 11
M  V30 11 1 11 12
M  V30 12 2 12 13
M  V30 13 1 13 14
M  V30 14 2 14 15
M  V30 15 1 15 16
M  V30 16 2 16 17
M  V30 17 1 7 18
M  V30 18 1 18 19
M  V30 19 1 19 20
M  V30 20 2 20 21
M  V30 21 1 21 22
M  V30 22 2 22 23
M  V30 23 1 23 24
M  V30 24 2 24 25
M  V30 25 1 17 2
M  V30 26 1 25 20
M  V30 27 1 17 5
M  V30 28 1 25 6
M  V30 29 1 16 8
M  V30 30 1 15 10
M  V30 31 1 3 26
M  V30 32 1 4 27
M  V30 33 1 4 28
M  V30 34 1 9 29
M  V30 35 1 11 30
M  V30 36 1 12 31
M  V30 37 1 13 32
M  V30 38 1 14 33
M  V30 39 1 18 34
M  V30 40 1 18 35
M  V30 41 1 19 36
M  V30 42 1 19 37
M  V30 43 1 21 38
M  V30 44 1 22 39
M  V30 45 1 23 40
M  V30 46 1 24 41
M  V30 END BOND
M  V30 END CTAB
M  END
>  <Dataset>  (921) 
ChEMBL_Kinases

>  <Ligand_Instance>  (921) 
nan

>  <PDB_ID>  (921) 
nan

>  <Standardized_SMILES>  (921) 
O=C1NCc2c3c(c4[nH]c5ccccc5c4c21)CCc1ccccc1-3

>  <Name>  (921) 
nan

>  <Pocket>  (921) 
nan

>  <ATP_Site>  (921) 
nan

>  <Peripheral>  (921) 
nan

>  <Num_H_Atoms_ProtBoundConf>  (921) 
nan

>  <Num_Resolved_Atoms>  (921) 
nan

>  <Num_Not_Resolved_Atoms>  (921) 
nan

$$$$
CHEMBL3745753
     RDKit          3D

  0  0  0  0  0  0  0  0  0  0999 V3000
M  V30 BEGIN CTAB
M  V30 COUNTS 48 52 0 0 0
M  V30 BEGIN ATOM
M  V30 1 C -0.648096 1.644164 0.237055 0
M  V30 2 N 0.077133 0.902259 1.248201 0
M  V30 3 C 0.769933 1.475421 2.275268 0
M  V30 4 O 0.687503 2.713793 2.238996 0
M  V30 5 C 1.454140 0.695868 3.199754 0
M  V30 6 S 2.321580 1.530150 4.470185 0
M  V30 7 O 2.923737 0.566386 5.437404 0
M  V30 8 O 1.382210 2.421800 5.234327 0
M  V30 9 C 3.543289 2.535378 3.676828 0
M  V30 10 C 4.710195 1.849575 3.481638 0
M  V30 11 C 5.771257 2.477673 2.874088 0
M  V30 12 C 5.715890 3.802730 2.439260 0
M  V30 13 F 6.696970 4.500466 1.834003 0
M  V30 14 C 4.475307 4.384726 2.697661 0
M  V30 15 C 3.361260 3.838866 3.296669 0
M  V30 16 C 1.447783 -0.708201 3.097593 0
M  V30 17 C 0.736711 -1.241268 2.047382 0
M  V30 18 C 0.706006 -2.643940 1.897428 0
M  V30 19 N 0.003874 -3.062026 0.858379 0
M  V30 20 C -0.664427 -2.379155 -0.047065 0
M  V30 21 N -1.429110 -2.720325 -1.185471 0
M  V30 22 C -2.722438 -3.290905 -1.276772 0
M  V30 23 C -3.468932 -3.736297 -0.212835 0
M  V30 24 C -4.711905 -4.299013 -0.363229 0
M  V30 25 C -5.323082 -4.467571 -1.596531 0
M  V30 26 C -4.542479 -4.007797 -2.635265 0
M  V30 27 N -4.791698 -3.988134 -3.979934 0
M  V30 28 C -3.818915 -3.462911 -4.704861 0
M  V30 29 C -2.845878 -3.103378 -3.802345 0
M  V30 30 C -3.296705 -3.437454 -2.553366 0
M  V30 31 N -0.572742 -1.087495 0.182179 0
M  V30 32 C 0.071331 -0.437924 1.151760 0
M  V30 33 H -1.444067 2.263319 0.645065 0
M  V30 34 H -0.973704 0.952944 -0.560986 0
M  V30 35 H 0.110929 2.337265 -0.239056 0
M  V30 36 H 4.925319 0.810595 3.760923 0
M  V30 37 H 6.732509 1.971338 2.698896 0
M  V30 38 H 4.396839 5.433392 2.363499 0
M  V30 39 H 2.438574 4.331924 3.479708 0
M  V30 40 H 1.971181 -1.303813 3.807051 0
M  V30 41 H 1.205987 -3.321768 2.569058 0
M  V30 42 H -0.886725 -2.477966 -2.017068 0
M  V30 43 H -3.037438 -3.630729 0.775975 0
M  V30 44 H -5.205783 -4.613543 0.543040 0
M  V30 45 H -6.282235 -4.902384 -1.720220 0
M  V30 46 H -5.684116 -4.364122 -4.392916 0
M  V30 47 H -3.658736 -3.280553 -5.754964 0
M  V30 48 H -1.884209 -2.638576 -3.981663 0
M  V30 END ATOM
M  V30 BEGIN BOND
M  V30 1 1 1 2
M  V30 2 1 2 3
M  V30 3 2 3 4
M  V30 4 1 3 5
M  V30 5 1 5 6
M  V30 6 2 6 7
M  V30 7 2 6 8
M  V30 8 1 6 9
M  V30 9 2 9 10
M  V30 10 1 10 11
M  V30 11 2 11 12
M  V30 12 1 12 13
M  V30 13 1 12 14
M  V30 14 2 14 15
M  V30 15 2 5 16
M  V30 16 1 16 17
M  V30 17 2 17 18
M  V30 18 1 18 19
M  V30 19 2 19 20
M  V30 20 1 20 21
M  V30 21 1 21 22
M  V30 22 2 22 23
M  V30 23 1 23 24
M  V30 24 2 24 25
M  V30 25 1 25 26
M  V30 26 1 26 27
M  V30 27 1 27 28
M  V30 28 2 28 29
M  V30 29 1 29 30
M  V30 30 1 20 31
M  V30 31 2 31 32
M  V30 32 1 32 2
M  V30 33 1 15 9
M  V30 34 1 32 17
M  V30 35 1 30 22
M  V30 36 2 30 26
M  V30 37 1 1 33
M  V30 38 1 1 34
M  V30 39 1 1 35
M  V30 40 1 10 36
M  V30 41 1 11 37
M  V30 42 1 14 38
M  V30 43 1 15 39
M  V30 44 1 16 40
M  V30 45 1 18 41
M  V30 46 1 21 42
M  V30 47 1 23 43
M  V30 48 1 24 44
M  V30 49 1 25 45
M  V30 50 1 27 46
M  V30 51 1 28 47
M  V30 52 1 29 48
M  V30 END BOND
M  V30 END CTAB
M  END
>  <Dataset>  (922) 
ChEMBL_Kinases

>  <Ligand_Instance>  (922) 
nan

>  <PDB_ID>  (922) 
nan

>  <Standardized_SMILES>  (922) 
Cn1c(=O)c(S(=O)(=O)c2ccc(F)cc2)cc2cnc(Nc3cccc4[nH]ccc34)nc21

>  <Name>  (922) 
nan

>  <Pocket>  (922) 
nan

>  <ATP_Site>  (922) 
nan

>  <Peripheral>  (922) 
nan

>  <Num_H_Atoms_ProtBoundConf>  (922) 
nan

>  <Num_Resolved_Atoms>  (922) 
nan

>  <Num_Not_Resolved_Atoms>  (922) 
nan

$$$$
CHEMBL3745744
     RDKit          3D

  0  0  0  0  0  0  0  0  0  0999 V3000
M  V30 BEGIN CTAB
M  V30 COUNTS 27 28 0 0 0
M  V30 BEGIN ATOM
M  V30 1 N -1.848765 -2.777726 2.809258 0
M  V30 2 C -0.484130 -3.070117 2.560385 0
M  V30 3 O 0.057675 -4.087119 3.054295 0
M  V30 4 C 0.354359 -2.216575 1.727721 0
M  V30 5 N -0.128606 -1.087112 1.140832 0
M  V30 6 C 0.661056 -0.310734 0.374741 0
M  V30 7 C 0.064250 0.883583 -0.217937 0
M  V30 8 C -1.267256 1.139839 0.044066 0
M  V30 9 C -1.900375 2.253010 -0.483439 0
M  V30 10 C -1.218066 3.158972 -1.300010 0
M  V30 11 C 0.109512 2.880097 -1.545868 0
M  V30 12 C 0.740599 1.770906 -1.020325 0
M  V30 13 C 1.980783 -0.666592 0.182125 0
M  V30 14 C 2.528102 -1.802096 0.752177 0
M  V30 15 C 1.673985 -2.581083 1.540831 0
M  V30 16 N 2.236046 -3.765148 2.138082 0
M  V30 17 H -2.192620 -1.801483 2.622128 0
M  V30 18 H -2.464404 -3.558189 3.174083 0
M  V30 19 H -1.906807 0.504800 0.668605 0
M  V30 20 H -2.949705 2.479783 -0.293292 0
M  V30 21 H -1.650113 4.042465 -1.741448 0
M  V30 22 H 0.708524 3.542199 -2.175099 0
M  V30 23 H 1.764471 1.599409 -1.238603 0
M  V30 24 H 2.621338 -0.058532 -0.425028 0
M  V30 25 H 3.548999 -2.105197 0.621480 0
M  V30 26 H 2.081045 -4.570959 1.467798 0
M  V30 27 H 2.725765 -3.940765 3.040677 0
M  V30 END ATOM
M  V30 BEGIN BOND
M  V30 1 1 1 2
M  V30 2 2 2 3
M  V30 3 1 2 4
M  V30 4 2 4 5
M  V30 5 1 5 6
M  V30 6 1 6 7
M  V30 7 2 7 8
M  V30 8 1 8 9
M  V30 9 2 9 10
M  V30 10 1 10 11
M  V30 11 2 11 12
M  V30 12 2 6 13
M  V30 13 1 13 14
M  V30 14 2 14 15
M  V30 15 1 15 16
M  V30 16 1 15 4
M  V30 17 1 12 7
M  V30 18 1 1 17
M  V30 19 1 1 18
M  V30 20 1 8 19
M  V30 21 1 9 20
M  V30 22 1 10 21
M  V30 23 1 11 22
M  V30 24 1 12 23
M  V30 25 1 13 24
M  V30 26 1 14 25
M  V30 27 1 16 26
M  V30 28 1 16 27
M  V30 END BOND
M  V30 END CTAB
M  END
>  <Dataset>  (923) 
ChEMBL_Kinases

>  <Ligand_Instance>  (923) 
nan

>  <PDB_ID>  (923) 
nan

>  <Standardized_SMILES>  (923) 
NC(=O)c1nc(-c2ccccc2)ccc1N

>  <Name>  (923) 
nan

>  <Pocket>  (923) 
nan

>  <ATP_Site>  (923) 
nan

>  <Peripheral>  (923) 
nan

>  <Num_H_Atoms_ProtBoundConf>  (923) 
nan

>  <Num_Resolved_Atoms>  (923) 
nan

>  <Num_Not_Resolved_Atoms>  (923) 
nan

$$$$
CHEMBL3745734
     RDKit          3D

  0  0  0  0  0  0  0  0  0  0999 V3000
M  V30 BEGIN CTAB
M  V30 COUNTS 59 63 0 0 0
M  V30 BEGIN ATOM
M  V30 1 C 5.536690 2.018899 2.386626 0
M  V30 2 N 6.377896 2.154152 1.211374 0
M  V30 3 C 6.152101 1.075453 0.267276 0
M  V30 4 C 5.027404 1.440110 -0.667355 0
M  V30 5 N 4.200507 2.495055 -0.153327 0
M  V30 6 C 2.857483 2.354642 0.232932 0
M  V30 7 C 2.216907 1.160054 0.194664 0
M  V30 8 C 0.885298 1.007651 0.574165 0
M  V30 9 C 0.148531 2.086018 1.013112 0
M  V30 10 N -1.212140 1.960299 1.408276 0
M  V30 11 C -1.882981 0.707707 1.377596 0
M  V30 12 N -1.762415 0.033940 2.536134 0
M  V30 13 C -2.300885 -1.175522 2.775642 0
M  V30 14 C -3.013965 -1.710321 1.723796 0
M  V30 15 C -3.629878 -2.949244 1.812503 0
M  V30 16 C -4.354546 -3.507405 0.762609 0
M  V30 17 O -4.889997 -4.748339 1.051395 0
M  V30 18 C -4.573486 -5.901500 0.357334 0
M  V30 19 C -3.725371 -6.153640 -0.694987 0
M  V30 20 C -3.606887 -7.430173 -1.196723 0
M  V30 21 C -4.309635 -8.496065 -0.688879 0
M  V30 22 F -4.151607 -9.734594 -1.225640 0
M  V30 23 C -5.168468 -8.261478 0.371118 0
M  V30 24 C -5.300871 -6.969005 0.893473 0
M  V30 25 F -6.188350 -6.931929 1.930382 0
M  V30 26 C -4.446111 -2.773452 -0.401685 0
M  V30 27 O -5.104018 -3.308830 -1.315391 0
M  V30 28 N -3.855717 -1.569431 -0.508259 0
M  V30 29 C -4.039655 -0.920057 -1.787584 0
M  V30 30 C -3.164071 -1.056434 0.518666 0
M  V30 31 N -2.593446 0.158094 0.351004 0
M  V30 32 C 0.775223 3.311920 1.061743 0
M  V30 33 C 2.111655 3.421779 0.672380 0
M  V30 34 C 4.979568 3.718409 -0.097761 0
M  V30 35 C 6.293032 3.445150 0.597052 0
M  V30 36 H 5.265866 3.060539 2.690072 0
M  V30 37 H 4.681074 1.352209 2.249671 0
M  V30 38 H 6.189106 1.600503 3.193172 0
M  V30 39 H 7.073378 0.961085 -0.336868 0
M  V30 40 H 5.985467 0.116486 0.783265 0
M  V30 41 H 4.500919 0.496325 -0.898512 0
M  V30 42 H 5.455605 1.776812 -1.643770 0
M  V30 43 H 2.656750 0.250336 -0.119006 0
M  V30 44 H 0.358926 0.064207 0.550052 0
M  V30 45 H -1.732475 2.804613 1.728492 0
M  V30 46 H -2.197014 -1.705432 3.709164 0
M  V30 47 H -3.497844 -3.455129 2.782758 0
M  V30 48 H -3.219995 -5.257091 -1.017777 0
M  V30 49 H -2.919401 -7.543877 -2.023958 0
M  V30 50 H -5.697111 -9.125200 0.735235 0
M  V30 51 H -3.929403 -1.604932 -2.643892 0
M  V30 52 H -5.126157 -0.610509 -1.805760 0
M  V30 53 H -3.440303 -0.018860 -1.907830 0
M  V30 54 H 0.197768 4.173635 1.408820 0
M  V30 55 H 2.492425 4.427512 0.752886 0
M  V30 56 H 4.466710 4.557217 0.375485 0
M  V30 57 H 5.221660 4.016960 -1.147538 0
M  V30 58 H 6.442049 4.194545 1.376294 0
M  V30 59 H 7.153076 3.501198 -0.124566 0
M  V30 END ATOM
M  V30 BEGIN BOND
M  V30 1 1 1 2
M  V30 2 1 2 3
M  V30 3 1 3 4
M  V30 4 1 4 5
M  V30 5 1 5 6
M  V30 6 2 6 7
M  V30 7 1 7 8
M  V30 8 2 8 9
M  V30 9 1 9 10
M  V30 10 1 10 11
M  V30 11 2 11 12
M  V30 12 1 12 13
M  V30 13 2 13 14
M  V30 14 1 14 15
M  V30 15 2 15 16
M  V30 16 1 16 17
M  V30 17 1 17 18
M  V30 18 2 18 19
M  V30 19 1 19 20
M  V30 20 2 20 21
M  V30 21 1 21 22
M  V30 22 1 21 23
M  V30 23 2 23 24
M  V30 24 1 24 25
M  V30 25 1 16 26
M  V30 26 2 26 27
M  V30 27 1 26 28
M  V30 28 1 28 29
M  V30 29 1 28 30
M  V30 30 2 30 31
M  V30 31 1 9 32
M  V30 32 2 32 33
M  V30 33 1 5 34
M  V30 34 1 34 35
M  V30 35 1 35 2
M  V30 36 1 33 6
M  V30 37 1 31 11
M  V30 38 1 30 14
M  V30 39 1 24 18
M  V30 40 1 1 36
M  V30 41 1 1 37
M  V30 42 1 1 38
M  V30 43 1 3 39
M  V30 44 1 3 40
M  V30 45 1 4 41
M  V30 46 1 4 42
M  V30 47 1 7 43
M  V30 48 1 8 44
M  V30 49 1 10 45
M  V30 50 1 13 46
M  V30 51 1 15 47
M  V30 52 1 19 48
M  V30 53 1 20 49
M  V30 54 1 23 50
M  V30 55 1 29 51
M  V30 56 1 29 52
M  V30 57 1 29 53
M  V30 58 1 32 54
M  V30 59 1 33 55
M  V30 60 1 34 56
M  V30 61 1 34 57
M  V30 62 1 35 58
M  V30 63 1 35 59
M  V30 END BOND
M  V30 END CTAB
M  END
>  <Dataset>  (924) 
ChEMBL_Kinases

>  <Ligand_Instance>  (924) 
nan

>  <PDB_ID>  (924) 
nan

>  <Standardized_SMILES>  (924) 
CN1CCN(c2ccc(Nc3ncc4cc(Oc5ccc(F)cc5F)c(=O)n(C)c4n3)cc2)CC1

>  <Name>  (924) 
nan

>  <Pocket>  (924) 
nan

>  <ATP_Site>  (924) 
nan

>  <Peripheral>  (924) 
nan

>  <Num_H_Atoms_ProtBoundConf>  (924) 
nan

>  <Num_Resolved_Atoms>  (924) 
nan

>  <Num_Not_Resolved_Atoms>  (924) 
nan

$$$$
CHEMBL374531
     RDKit          3D

  0  0  0  0  0  0  0  0  0  0999 V3000
M  V30 BEGIN CTAB
M  V30 COUNTS 49 51 0 0 0
M  V30 BEGIN ATOM
M  V30 1 C 4.128211 -0.377582 -3.811194 0
M  V30 2 S 4.136504 0.325661 -2.131920 0
M  V30 3 C 2.526809 -0.027752 -1.384689 0
M  V30 4 N 2.444624 -1.209574 -0.706260 0
M  V30 5 C 1.172207 -1.301977 -0.216089 0
M  V30 6 C 0.554170 -2.370522 0.587833 0
M  V30 7 C 0.211219 -1.918283 1.839640 0
M  V30 8 C -0.388484 -2.820408 2.717855 0
M  V30 9 C -0.625868 -4.137184 2.322425 0
M  V30 10 F -1.203826 -5.037093 3.144490 0
M  V30 11 C -0.268918 -4.568972 1.049764 0
M  V30 12 C 0.314892 -3.675334 0.207792 0
M  V30 13 C 0.512484 -0.136016 -0.630273 0
M  V30 14 C -0.883660 0.139523 -0.330745 0
M  V30 15 C -1.579845 0.889296 0.579111 0
M  V30 16 C -2.947705 0.952202 0.613334 0
M  V30 17 N -3.655003 0.246102 -0.286204 0
M  V30 18 C -3.047950 -0.516756 -1.213941 0
M  V30 19 N -3.978706 -1.177035 -2.056073 0
M  V30 20 C -4.597895 -0.834599 -3.280474 0
M  V30 21 C -5.540099 -1.776018 -3.901982 0
M  V30 22 O -4.281287 0.284977 -3.753278 0
M  V30 23 C -1.652282 -0.586510 -1.256376 0
M  V30 24 N 1.346496 0.630262 -1.339626 0
M  V30 25 C 1.257198 1.891624 -1.986204 0
M  V30 26 C 1.702537 3.042175 -1.133373 0
M  V30 27 C 0.961802 3.246546 0.136474 0
M  V30 28 O 1.543431 4.375304 0.764353 0
M  V30 29 H 3.494013 0.233716 -4.490075 0
M  V30 30 H 5.133784 -0.593242 -4.175720 0
M  V30 31 H 3.613344 -1.377098 -3.769898 0
M  V30 32 H 0.354629 -0.924631 2.231114 0
M  V30 33 H -0.677229 -2.520291 3.712411 0
M  V30 34 H -0.441922 -5.590698 0.714585 0
M  V30 35 H 0.633671 -3.910127 -0.815415 0
M  V30 36 H -0.897141 1.389620 1.239208 0
M  V30 37 H -3.314408 1.597863 1.401357 0
M  V30 38 H -4.209628 -2.108643 -1.610014 0
M  V30 39 H -6.504837 -1.846025 -3.316338 0
M  V30 40 H -5.717634 -1.457095 -4.947972 0
M  V30 41 H -5.172033 -2.809578 -3.946485 0
M  V30 42 H -1.353426 -1.255000 -2.076120 0
M  V30 43 H 0.210735 2.113589 -2.319518 0
M  V30 44 H 1.848330 1.935074 -2.939379 0
M  V30 45 H 1.701439 3.996960 -1.720670 0
M  V30 46 H 2.780254 2.861048 -0.849949 0
M  V30 47 H 1.203401 2.408161 0.846718 0
M  V30 48 H -0.106758 3.445830 0.062711 0
M  V30 49 H 2.407863 4.142243 1.205109 0
M  V30 END ATOM
M  V30 BEGIN BOND
M  V30 1 1 1 2
M  V30 2 1 2 3
M  V30 3 2 3 4
M  V30 4 1 4 5
M  V30 5 1 5 6
M  V30 6 2 6 7
M  V30 7 1 7 8
M  V30 8 2 8 9
M  V30 9 1 9 10
M  V30 10 1 9 11
M  V30 11 2 11 12
M  V30 12 2 5 13
M  V30 13 1 13 14
M  V30 14 2 14 15
M  V30 15 1 15 16
M  V30 16 2 16 17
M  V30 17 1 17 18
M  V30 18 1 18 19
M  V30 19 1 19 20
M  V30 20 1 20 21
M  V30 21 2 20 22
M  V30 22 2 18 23
M  V30 23 1 13 24
M  V30 24 1 24 25
M  V30 25 1 25 26
M  V30 26 1 26 27
M  V30 27 1 27 28
M  V30 28 1 24 3
M  V30 29 1 12 6
M  V30 30 1 23 14
M  V30 31 1 1 29
M  V30 32 1 1 30
M  V30 33 1 1 31
M  V30 34 1 7 32
M  V30 35 1 8 33
M  V30 36 1 11 34
M  V30 37 1 12 35
M  V30 38 1 15 36
M  V30 39 1 16 37
M  V30 40 1 19 38
M  V30 41 1 21 39
M  V30 42 1 21 40
M  V30 43 1 21 41
M  V30 44 1 23 42
M  V30 45 1 25 43
M  V30 46 1 25 44
M  V30 47 1 26 45
M  V30 48 1 26 46
M  V30 49 1 27 47
M  V30 50 1 27 48
M  V30 51 1 28 49
M  V30 END BOND
M  V30 END CTAB
M  END
>  <Dataset>  (925) 
ChEMBL_Kinases

>  <Ligand_Instance>  (925) 
nan

>  <PDB_ID>  (925) 
nan

>  <Standardized_SMILES>  (925) 
CSc1nc(-c2ccc(F)cc2)c(-c2ccnc(NC(C)=O)c2)n1CCCO

>  <Name>  (925) 
nan

>  <Pocket>  (925) 
nan

>  <ATP_Site>  (925) 
nan

>  <Peripheral>  (925) 
nan

>  <Num_H_Atoms_ProtBoundConf>  (925) 
nan

>  <Num_Resolved_Atoms>  (925) 
nan

>  <Num_Not_Resolved_Atoms>  (925) 
nan

$$$$
CHEMBL374518
     RDKit          3D

  0  0  0  0  0  0  0  0  0  0999 V3000
M  V30 BEGIN CTAB
M  V30 COUNTS 65 70 0 0 0
M  V30 BEGIN ATOM
M  V30 1 C 4.625675 2.082837 4.301427 0
M  V30 2 O 3.621967 1.166242 4.036406 0
M  V30 3 C 4.000781 0.275208 3.024363 0
M  V30 4 C 4.288334 0.929355 1.747732 0
M  V30 5 O 4.607639 -0.017262 0.994650 0
M  V30 6 N 4.543276 1.630082 0.567862 0
M  V30 7 C 4.962825 1.203862 -0.733380 0
M  V30 8 C 3.866030 1.522256 -1.754354 0
M  V30 9 N 3.515783 2.886897 -1.666709 0
M  V30 10 C 2.176974 3.260569 -1.913811 0
M  V30 11 C 1.156676 2.661426 -1.025407 0
M  V30 12 C 0.794456 3.290287 0.148018 0
M  V30 13 C -0.140771 2.840216 1.057014 0
M  V30 14 C -0.744655 1.635962 0.709422 0
M  V30 15 N -1.685765 0.946170 1.380977 0
M  V30 16 C -2.024563 -0.170935 0.733905 0
M  V30 17 C -2.972174 -1.247223 1.019442 0
M  V30 18 C -3.164374 -2.334644 0.188777 0
M  V30 19 C -4.077817 -3.318573 0.519671 0
M  V30 20 C -4.231213 -4.383153 -0.343955 0
M  V30 21 C -5.139020 -5.374465 -0.028313 0
M  V30 22 C -5.377248 -6.542484 -0.874115 0
M  V30 23 C -5.751386 -7.819490 -0.436032 0
M  V30 24 N -5.869123 -8.611465 -1.539346 0
M  V30 25 N -5.595122 -7.918184 -2.629769 0
M  V30 26 C -5.287043 -6.639195 -2.267229 0
M  V30 27 C -5.901658 -5.321637 1.142058 0
M  V30 28 C -5.744597 -4.254842 2.002490 0
M  V30 29 C -4.837018 -3.263429 1.687380 0
M  V30 30 N -4.644595 -2.202073 2.490944 0
M  V30 31 C -3.753047 -1.250889 2.158644 0
M  V30 32 O -3.681958 -0.322712 3.003635 0
M  V30 33 C -1.245182 -0.172374 -0.408010 0
M  V30 34 C -0.437179 0.945884 -0.446461 0
M  V30 35 C 0.516721 1.470315 -1.306653 0
M  V30 36 C 4.285069 3.657847 -0.773259 0
M  V30 37 C 4.364932 3.051098 0.588922 0
M  V30 38 H 4.870914 2.682417 3.404916 0
M  V30 39 H 4.252670 2.789105 5.070494 0
M  V30 40 H 5.556920 1.588577 4.689310 0
M  V30 41 H 4.877039 -0.314347 3.409748 0
M  V30 42 H 3.131966 -0.429210 2.910627 0
M  V30 43 H 5.229340 0.153088 -0.746658 0
M  V30 44 H 5.886345 1.796574 -1.009018 0
M  V30 45 H 3.035377 0.801940 -1.495502 0
M  V30 46 H 4.237500 1.191186 -2.740682 0
M  V30 47 H 2.081009 4.367018 -1.967533 0
M  V30 48 H 1.903906 2.917081 -2.951007 0
M  V30 49 H 1.287022 4.236489 0.394536 0
M  V30 50 H -0.376828 3.383500 1.958133 0
M  V30 51 H -2.107450 1.225842 2.284090 0
M  V30 52 H -2.570124 -2.386683 -0.734275 0
M  V30 53 H -3.658044 -4.457489 -1.258957 0
M  V30 54 H -5.916564 -8.120559 0.593714 0
M  V30 55 H -5.612162 -8.288004 -3.601763 0
M  V30 56 H -5.013971 -5.804970 -2.898380 0
M  V30 57 H -6.626383 -6.068142 1.439833 0
M  V30 58 H -6.321506 -4.166814 2.937193 0
M  V30 59 H -5.219948 -2.185616 3.349783 0
M  V30 60 H -1.211674 -0.907063 -1.208687 0
M  V30 61 H 0.751958 0.928224 -2.207023 0
M  V30 62 H 3.789509 4.645205 -0.655928 0
M  V30 63 H 5.335787 3.767208 -1.133304 0
M  V30 64 H 3.476200 3.272378 1.234742 0
M  V30 65 H 5.228500 3.483776 1.179452 0
M  V30 END ATOM
M  V30 BEGIN BOND
M  V30 1 1 1 2
M  V30 2 1 2 3
M  V30 3 1 3 4
M  V30 4 2 4 5
M  V30 5 1 4 6
M  V30 6 1 6 7
M  V30 7 1 7 8
M  V30 8 1 8 9
M  V30 9 1 9 10
M  V30 10 1 10 11
M  V30 11 2 11 12
M  V30 12 1 12 13
M  V30 13 2 13 14
M  V30 14 1 14 15
M  V30 15 1 15 16
M  V30 16 1 16 17
M  V30 17 2 17 18
M  V30 18 1 18 19
M  V30 19 2 19 20
M  V30 20 1 20 21
M  V30 21 1 21 22
M  V30 22 1 22 23
M  V30 23 2 23 24
M  V30 24 1 24 25
M  V30 25 1 25 26
M  V30 26 2 21 27
M  V30 27 1 27 28
M  V30 28 2 28 29
M  V30 29 1 29 30
M  V30 30 1 30 31
M  V30 31 2 31 32
M  V30 32 2 16 33
M  V30 33 1 33 34
M  V30 34 2 34 35
M  V30 35 1 9 36
M  V30 36 1 36 37
M  V30 37 1 37 6
M  V30 38 1 35 11
M  V30 39 1 34 14
M  V30 40 1 31 17
M  V30 41 1 29 19
M  V30 42 2 26 22
M  V30 43 1 1 38
M  V30 44 1 1 39
M  V30 45 1 1 40
M  V30 46 1 3 41
M  V30 47 1 3 42
M  V30 48 1 7 43
M  V30 49 1 7 44
M  V30 50 1 8 45
M  V30 51 1 8 46
M  V30 52 1 10 47
M  V30 53 1 10 48
M  V30 54 1 12 49
M  V30 55 1 13 50
M  V30 56 1 15 51
M  V30 57 1 18 52
M  V30 58 1 20 53
M  V30 59 1 23 54
M  V30 60 1 25 55
M  V30 61 1 26 56
M  V30 62 1 27 57
M  V30 63 1 28 58
M  V30 64 1 30 59
M  V30 65 1 33 60
M  V30 66 1 35 61
M  V30 67 1 36 62
M  V30 68 1 36 63
M  V30 69 1 37 64
M  V30 70 1 37 65
M  V30 END BOND
M  V30 END CTAB
M  END
>  <Dataset>  (926) 
ChEMBL_Kinases

>  <Ligand_Instance>  (926) 
nan

>  <PDB_ID>  (926) 
nan

>  <Standardized_SMILES>  (926) 
COCC(=O)N1CCN(Cc2ccc3[nH]c(-c4cc5cc(-c6cn[nH]c6)ccc5[nH]c4=O)cc3c2)CC1

>  <Name>  (926) 
nan

>  <Pocket>  (926) 
nan

>  <ATP_Site>  (926) 
nan

>  <Peripheral>  (926) 
nan

>  <Num_H_Atoms_ProtBoundConf>  (926) 
nan

>  <Num_Resolved_Atoms>  (926) 
nan

>  <Num_Not_Resolved_Atoms>  (926) 
nan

$$$$
CHEMBL374485
     RDKit          3D

  0  0  0  0  0  0  0  0  0  0999 V3000
M  V30 BEGIN CTAB
M  V30 COUNTS 67 70 0 0 0
M  V30 BEGIN ATOM
M  V30 1 C 1.050757 0.113077 7.399504 0
M  V30 2 C 1.527659 0.246658 5.982315 0
M  V30 3 O 1.546616 -0.747834 5.213546 0
M  V30 4 N 1.985308 1.462523 5.392288 0
M  V30 5 C 2.342236 1.139804 4.032393 0
M  V30 6 C 1.310888 1.282710 3.160646 0
M  V30 7 C 1.503360 1.005129 1.822735 0
M  V30 8 C 0.651187 1.038701 0.644528 0
M  V30 9 C 0.737362 2.049353 -0.287382 0
M  V30 10 C 1.657816 3.212721 -0.231871 0
M  V30 11 C 2.618882 3.325632 -1.227597 0
M  V30 12 C 3.548835 4.355958 -1.311416 0
M  V30 13 C 3.496214 5.329533 -0.320616 0
M  V30 14 F 4.398465 6.351302 -0.382993 0
M  V30 15 C 2.546663 5.235377 0.680157 0
M  V30 16 C 1.633142 4.195488 0.735548 0
M  V30 17 N -0.182765 1.771890 -1.258312 0
M  V30 18 C -0.832162 0.620191 -0.953244 0
M  V30 19 S -2.005055 0.247613 -2.182938 0
M  V30 20 C -2.835767 -1.308026 -2.102115 0
M  V30 21 C -1.926752 -2.491317 -2.454755 0
M  V30 22 C -2.714996 -3.746355 -2.336717 0
M  V30 23 O -3.929376 -3.821175 -2.012474 0
M  V30 24 N -2.051097 -4.998804 -2.613523 0
M  V30 25 C -3.042964 -6.059999 -2.426489 0
M  V30 26 C -2.283104 -7.369744 -2.636733 0
M  V30 27 O -0.984475 -7.236494 -2.141870 0
M  V30 28 C -0.191854 -6.454203 -2.945773 0
M  V30 29 C -0.628317 -5.005307 -2.995889 0
M  V30 30 N -0.306610 0.205988 0.201711 0
M  V30 31 C -0.786731 -0.944515 0.893130 0
M  V30 32 C -1.796452 -0.598122 1.972856 0
M  V30 33 C -3.011528 0.116096 1.509252 0
M  V30 34 O -3.850247 0.389283 2.624522 0
M  V30 35 C 2.786076 0.583608 1.442946 0
M  V30 36 C 3.803424 0.458374 2.393411 0
M  V30 37 N 3.557321 0.741166 3.673327 0
M  V30 38 H 0.566336 -0.866863 7.499451 0
M  V30 39 H 1.870551 0.290595 8.104032 0
M  V30 40 H 0.284229 0.924627 7.524182 0
M  V30 41 H 1.986840 2.315331 5.992183 0
M  V30 42 H 0.289472 1.598531 3.316892 0
M  V30 43 H 2.649336 2.547673 -2.001752 0
M  V30 44 H 4.244396 4.341381 -2.125419 0
M  V30 45 H 2.499241 5.986598 1.454898 0
M  V30 46 H 0.898584 4.110758 1.496620 0
M  V30 47 H -3.405878 -1.546726 -1.206732 0
M  V30 48 H -3.600269 -1.324325 -2.943271 0
M  V30 49 H -0.995309 -2.488207 -1.886779 0
M  V30 50 H -1.673998 -2.331043 -3.547137 0
M  V30 51 H -3.323812 -6.038015 -1.368536 0
M  V30 52 H -3.859536 -6.006668 -3.148533 0
M  V30 53 H -2.793584 -8.126873 -1.997331 0
M  V30 54 H -2.319244 -7.698764 -3.687889 0
M  V30 55 H -0.127839 -6.834009 -4.008175 0
M  V30 56 H 0.827807 -6.476972 -2.511849 0
M  V30 57 H -0.499202 -4.591161 -3.995822 0
M  V30 58 H -0.084559 -4.432241 -2.210782 0
M  V30 59 H -1.292291 -1.634514 0.222906 0
M  V30 60 H 0.038116 -1.514647 1.377667 0
M  V30 61 H -1.333917 -0.053790 2.819695 0
M  V30 62 H -2.161391 -1.561182 2.448690 0
M  V30 63 H -2.836647 1.076232 1.026187 0
M  V30 64 H -3.637171 -0.527466 0.867757 0
M  V30 65 H -3.494725 1.213598 3.035825 0
M  V30 66 H 3.148449 0.313956 0.438908 0
M  V30 67 H 4.804818 0.137688 2.166780 0
M  V30 END ATOM
M  V30 BEGIN BOND
M  V30 1 1 1 2
M  V30 2 2 2 3
M  V30 3 1 2 4
M  V30 4 1 4 5
M  V30 5 2 5 6
M  V30 6 1 6 7
M  V30 7 1 7 8
M  V30 8 2 8 9
M  V30 9 1 9 10
M  V30 10 2 10 11
M  V30 11 1 11 12
M  V30 12 2 12 13
M  V30 13 1 13 14
M  V30 14 1 13 15
M  V30 15 2 15 16
M  V30 16 1 9 17
M  V30 17 2 17 18
M  V30 18 1 18 19
M  V30 19 1 19 20
M  V30 20 1 20 21
M  V30 21 1 21 22
M  V30 22 2 22 23
M  V30 23 1 22 24
M  V30 24 1 24 25
M  V30 25 1 25 26
M  V30 26 1 26 27
M  V30 27 1 27 28
M  V30 28 1 28 29
M  V30 29 1 18 30
M  V30 30 1 30 31
M  V30 31 1 31 32
M  V30 32 1 32 33
M  V30 33 1 33 34
M  V30 34 2 7 35
M  V30 35 1 35 36
M  V30 36 2 36 37
M  V30 37 1 37 5
M  V30 38 1 30 8
M  V30 39 1 16 10
M  V30 40 1 29 24
M  V30 41 1 1 38
M  V30 42 1 1 39
M  V30 43 1 1 40
M  V30 44 1 4 41
M  V30 45 1 6 42
M  V30 46 1 11 43
M  V30 47 1 12 44
M  V30 48 1 15 45
M  V30 49 1 16 46
M  V30 50 1 20 47
M  V30 51 1 20 48
M  V30 52 1 21 49
M  V30 53 1 21 50
M  V30 54 1 25 51
M  V30 55 1 25 52
M  V30 56 1 26 53
M  V30 57 1 26 54
M  V30 58 1 28 55
M  V30 59 1 28 56
M  V30 60 1 29 57
M  V30 61 1 29 58
M  V30 62 1 31 59
M  V30 63 1 31 60
M  V30 64 1 32 61
M  V30 65 1 32 62
M  V30 66 1 33 63
M  V30 67 1 33 64
M  V30 68 1 34 65
M  V30 69 1 35 66
M  V30 70 1 36 67
M  V30 END BOND
M  V30 END CTAB
M  END
>  <Dataset>  (927) 
ChEMBL_Kinases

>  <Ligand_Instance>  (927) 
nan

>  <PDB_ID>  (927) 
nan

>  <Standardized_SMILES>  (927) 
CC(=O)Nc1cc(-c2c(-c3ccc(F)cc3)nc(SCCC(=O)N3CCOCC3)n2CCCO)ccn1

>  <Name>  (927) 
nan

>  <Pocket>  (927) 
nan

>  <ATP_Site>  (927) 
nan

>  <Peripheral>  (927) 
nan

>  <Num_H_Atoms_ProtBoundConf>  (927) 
nan

>  <Num_Resolved_Atoms>  (927) 
nan

>  <Num_Not_Resolved_Atoms>  (927) 
nan

$$$$
CHEMBL3745994
     RDKit          3D

  0  0  0  0  0  0  0  0  0  0999 V3000
M  V30 BEGIN CTAB
M  V30 COUNTS 46 48 0 0 0
M  V30 BEGIN ATOM
M  V30 1 N 2.332982 -0.578452 2.330358 0
M  V30 2 C 1.740755 0.505295 1.650199 0
M  V30 3 O 2.592208 1.354445 1.956233 0
M  V30 4 C 0.549049 0.546461 0.880773 0
M  V30 5 C 0.244471 1.769747 0.351787 0
M  V30 6 N 0.918347 3.009385 0.421581 0
M  V30 7 C 2.123141 3.691525 0.123813 0
M  V30 8 C 2.998744 4.363220 0.977075 0
M  V30 9 C 4.094221 4.912716 0.365295 0
M  V30 10 C 4.418421 4.876408 -0.964454 0
M  V30 11 I 6.158066 5.788800 -1.708450 0
M  V30 12 C 3.522842 4.194470 -1.805705 0
M  V30 13 C 2.411687 3.629833 -1.229236 0
M  V30 14 F 1.648192 3.010351 -2.169722 0
M  V30 15 C -0.927930 1.906255 -0.404212 0
M  V30 16 C -1.787928 0.854360 -0.636022 0
M  V30 17 F -2.921281 0.958451 -1.364495 0
M  V30 18 C -1.382888 -0.343381 -0.052470 0
M  V30 19 C -0.230736 -0.572333 0.716569 0
M  V30 20 O -0.052873 -1.721167 1.148298 0
M  V30 21 C -0.041385 -2.973791 1.526386 0
M  V30 22 C 0.960279 -3.714909 2.103371 0
M  V30 23 C 0.838665 -5.030035 2.454636 0
M  V30 24 C -0.361699 -5.638640 2.212746 0
M  V30 25 Cl -0.569494 -7.337731 2.651117 0
M  V30 26 C -1.434955 -4.987424 1.637366 0
M  V30 27 N -2.670550 -5.669934 1.408291 0
M  V30 28 S -3.935650 -4.839369 0.580747 0
M  V30 29 N -4.401467 -3.461112 1.486213 0
M  V30 30 O -3.419111 -4.369239 -0.746801 0
M  V30 31 O -5.102163 -5.770675 0.392359 0
M  V30 32 C -1.249795 -3.651675 1.301856 0
M  V30 33 H 3.287357 -1.044406 2.401002 0
M  V30 34 H 1.547367 -0.962894 2.885777 0
M  V30 35 H 0.373958 3.801580 0.858355 0
M  V30 36 H 2.695349 4.357523 1.985446 0
M  V30 37 H 4.740786 5.429602 1.095434 0
M  V30 38 H 3.805461 4.180045 -2.843368 0
M  V30 39 H -1.276263 2.835209 -0.876198 0
M  V30 40 H -2.089101 -1.159439 -0.265008 0
M  V30 41 H 1.916346 -3.265089 2.303870 0
M  V30 42 H 1.630229 -5.588910 2.901431 0
M  V30 43 H -2.752781 -6.647771 1.755323 0
M  V30 44 H -4.954884 -3.672032 2.339166 0
M  V30 45 H -4.958957 -2.805975 0.893604 0
M  V30 46 H -2.138733 -3.215767 0.857564 0
M  V30 END ATOM
M  V30 BEGIN BOND
M  V30 1 1 1 2
M  V30 2 2 2 3
M  V30 3 1 2 4
M  V30 4 2 4 5
M  V30 5 1 5 6
M  V30 6 1 6 7
M  V30 7 2 7 8
M  V30 8 1 8 9
M  V30 9 2 9 10
M  V30 10 1 10 11
M  V30 11 1 10 12
M  V30 12 2 12 13
M  V30 13 1 13 14
M  V30 14 1 5 15
M  V30 15 2 15 16
M  V30 16 1 16 17
M  V30 17 1 16 18
M  V30 18 2 18 19
M  V30 19 1 19 20
M  V30 20 1 20 21
M  V30 21 2 21 22
M  V30 22 1 22 23
M  V30 23 2 23 24
M  V30 24 1 24 25
M  V30 25 1 24 26
M  V30 26 1 26 27
M  V30 27 1 27 28
M  V30 28 1 28 29
M  V30 29 2 28 30
M  V30 30 2 28 31
M  V30 31 2 26 32
M  V30 32 1 19 4
M  V30 33 1 32 21
M  V30 34 1 13 7
M  V30 35 1 1 33
M  V30 36 1 1 34
M  V30 37 1 6 35
M  V30 38 1 8 36
M  V30 39 1 9 37
M  V30 40 1 12 38
M  V30 41 1 15 39
M  V30 42 1 18 40
M  V30 43 1 22 41
M  V30 44 1 23 42
M  V30 45 1 27 43
M  V30 46 1 29 44
M  V30 47 1 29 45
M  V30 48 1 32 46
M  V30 END BOND
M  V30 END CTAB
M  END
>  <Dataset>  (928) 
ChEMBL_Kinases

>  <Ligand_Instance>  (928) 
nan

>  <PDB_ID>  (928) 
nan

>  <Standardized_SMILES>  (928) 
NC(=O)c1c(Nc2ccc(I)cc2F)cc(F)cc1Oc1ccc(Cl)c(NS(N)(=O)=O)c1

>  <Name>  (928) 
nan

>  <Pocket>  (928) 
nan

>  <ATP_Site>  (928) 
nan

>  <Peripheral>  (928) 
nan

>  <Num_H_Atoms_ProtBoundConf>  (928) 
nan

>  <Num_Resolved_Atoms>  (928) 
nan

>  <Num_Not_Resolved_Atoms>  (928) 
nan

$$$$
CHEMBL579952
     RDKit          3D

  0  0  0  0  0  0  0  0  0  0999 V3000
M  V30 BEGIN CTAB
M  V30 COUNTS 57 62 0 0 0
M  V30 BEGIN ATOM
M  V30 1 O 2.289582 -1.101107 3.445069 0
M  V30 2 C 1.674403 -2.103674 3.002209 0
M  V30 3 N 1.545942 -2.030007 1.597342 0
M  V30 4 C 2.047702 -0.964454 0.804119 0
M  V30 5 C 3.331495 -0.946568 0.249269 0
M  V30 6 C 3.707504 0.162908 -0.516864 0
M  V30 7 C 2.792649 1.180493 -0.684772 0
M  V30 8 C 1.523434 1.181591 -0.146488 0
M  V30 9 C 0.698951 2.347979 -0.433051 0
M  V30 10 N 0.892705 3.649871 -0.088602 0
M  V30 11 N -0.107279 4.377933 -0.554224 0
M  V30 12 N -0.198242 5.693942 -0.376211 0
M  V30 13 C -1.267424 6.369249 -0.892331 0
M  V30 14 C -2.224506 5.633390 -1.590765 0
M  V30 15 C -2.067306 4.262253 -1.739065 0
M  V30 16 C -0.988638 3.603527 -1.214261 0
M  V30 17 C -0.481857 2.302043 -1.142562 0
M  V30 18 C -1.187862 1.188932 -1.761854 0
M  V30 19 C -1.382681 1.261058 -3.145239 0
M  V30 20 C -2.035051 0.249879 -3.778457 0
M  V30 21 N -2.499375 -0.823288 -3.101431 0
M  V30 22 C -2.306413 -0.886345 -1.758125 0
M  V30 23 N -2.814492 -2.034676 -1.098422 0
M  V30 24 C -2.160187 -3.265200 -0.889447 0
M  V30 25 C -0.882440 -3.430406 -1.351232 0
M  V30 26 C -0.293220 -4.656950 -1.121440 0
M  V30 27 C -1.000219 -5.641326 -0.452113 0
M  V30 28 N -2.266648 -5.429680 -0.012900 0
M  V30 29 C -2.882399 -4.230855 -0.220804 0
M  V30 30 N -1.665276 0.096208 -1.098733 0
M  V30 31 C 1.158332 0.074120 0.613931 0
M  V30 32 C 1.208800 -3.131848 3.916858 0
M  V30 33 C 1.508538 -2.892099 5.237855 0
M  V30 34 F 2.186727 -1.795488 5.708972 0
M  V30 35 C 1.139062 -3.770324 6.253520 0
M  V30 36 C 0.444504 -4.915678 5.868992 0
M  V30 37 C 0.147437 -5.154258 4.563910 0
M  V30 38 C 0.522201 -4.268955 3.557999 0
M  V30 39 F 0.225260 -4.513211 2.277210 0
M  V30 40 H 1.048047 -2.816298 1.131740 0
M  V30 41 H 3.965639 -1.802195 0.447579 0
M  V30 42 H 4.697780 0.126212 -0.917278 0
M  V30 43 H 3.167352 1.989115 -1.287050 0
M  V30 44 H -1.365438 7.439221 -0.762213 0
M  V30 45 H -3.090941 6.136518 -2.017032 0
M  V30 46 H -2.791980 3.649727 -2.277464 0
M  V30 47 H -1.034158 2.099984 -3.760390 0
M  V30 48 H -2.190249 0.299637 -4.859665 0
M  V30 49 H -3.781840 -1.806050 -0.786211 0
M  V30 50 H -0.305216 -2.688294 -1.874148 0
M  V30 51 H 0.714827 -4.949699 -1.422999 0
M  V30 52 H -0.677756 -6.642708 -0.200111 0
M  V30 53 H -3.905820 -4.043646 0.127923 0
M  V30 54 H 0.158394 0.104080 1.022757 0
M  V30 55 H 1.362149 -3.602756 7.288987 0
M  V30 56 H 0.151020 -5.613959 6.668553 0
M  V30 57 H -0.393510 -6.041617 4.240249 0
M  V30 END ATOM
M  V30 BEGIN BOND
M  V30 1 2 1 2
M  V30 2 1 2 3
M  V30 3 1 3 4
M  V30 4 2 4 5
M  V30 5 1 5 6
M  V30 6 2 6 7
M  V30 7 1 7 8
M  V30 8 1 8 9
M  V30 9 2 9 10
M  V30 10 1 10 11
M  V30 11 1 11 12
M  V30 12 2 12 13
M  V30 13 1 13 14
M  V30 14 2 14 15
M  V30 15 1 15 16
M  V30 16 2 16 17
M  V30 17 1 17 18
M  V30 18 2 18 19
M  V30 19 1 19 20
M  V30 20 2 20 21
M  V30 21 1 21 22
M  V30 22 1 22 23
M  V30 23 1 23 24
M  V30 24 2 24 25
M  V30 25 1 25 26
M  V30 26 2 26 27
M  V30 27 1 27 28
M  V30 28 2 28 29
M  V30 29 2 22 30
M  V30 30 2 8 31
M  V30 31 1 2 32
M  V30 32 2 32 33
M  V30 33 1 33 34
M  V30 34 1 33 35
M  V30 35 2 35 36
M  V30 36 1 36 37
M  V30 37 2 37 38
M  V30 38 1 38 39
M  V30 39 1 31 4
M  V30 40 1 38 32
M  V30 41 1 17 9
M  V30 42 1 30 18
M  V30 43 1 16 11
M  V30 44 1 29 24
M  V30 45 1 3 40
M  V30 46 1 5 41
M  V30 47 1 6 42
M  V30 48 1 7 43
M  V30 49 1 13 44
M  V30 50 1 14 45
M  V30 51 1 15 46
M  V30 52 1 19 47
M  V30 53 1 20 48
M  V30 54 1 23 49
M  V30 55 1 25 50
M  V30 56 1 26 51
M  V30 57 1 27 52
M  V30 58 1 29 53
M  V30 59 1 31 54
M  V30 60 1 35 55
M  V30 61 1 36 56
M  V30 62 1 37 57
M  V30 END BOND
M  V30 END CTAB
M  END
>  <Dataset>  (929) 
ChEMBL_Kinases

>  <Ligand_Instance>  (929) 
nan

>  <PDB_ID>  (929) 
nan

>  <Standardized_SMILES>  (929) 
O=C(Nc1cccc(-c2nn3ncccc3c2-c2ccnc(Nc3cccnc3)n2)c1)c1c(F)cccc1F

>  <Name>  (929) 
nan

>  <Pocket>  (929) 
nan

>  <ATP_Site>  (929) 
nan

>  <Peripheral>  (929) 
nan

>  <Num_H_Atoms_ProtBoundConf>  (929) 
nan

>  <Num_Resolved_Atoms>  (929) 
nan

>  <Num_Not_Resolved_Atoms>  (929) 
nan

$$$$
CHEMBL374762
     RDKit          3D

  0  0  0  0  0  0  0  0  0  0999 V3000
M  V30 BEGIN CTAB
M  V30 COUNTS 64 67 0 0 0
M  V30 BEGIN ATOM
M  V30 1 C 1.146337 -0.252411 4.763344 0
M  V30 2 O 1.606337 -1.296800 3.986633 0
M  V30 3 C 1.884830 -0.861934 2.718721 0
M  V30 4 C 0.646642 -0.425638 1.984505 0
M  V30 5 N -0.276747 -1.512008 1.817220 0
M  V30 6 C -1.329776 -2.061862 2.429083 0
M  V30 7 S -2.016044 -1.394528 3.931705 0
M  V30 8 C -3.307638 -0.148881 3.546853 0
M  V30 9 C -2.699864 1.034900 2.884996 0
M  V30 10 C -2.590700 1.076054 1.489123 0
M  V30 11 C -2.044333 2.119988 0.768736 0
M  V30 12 C -1.574094 3.197500 1.488652 0
M  V30 13 S -0.887614 4.496906 0.502796 0 CHG=1 VAL=3
M  V30 14 C 0.853070 4.078240 0.342750 0
M  V30 15 O -1.044253 5.934048 1.373009 0 CHG=-1 VAL=1
M  V30 16 C -1.655207 3.212402 2.864290 0
M  V30 17 C -2.207740 2.149845 3.541532 0
M  V30 18 N -1.794692 -3.135387 1.781562 0
M  V30 19 C -1.038553 -3.352849 0.664444 0
M  V30 20 C -1.222682 -4.425398 -0.303529 0
M  V30 21 C -1.524584 -4.005994 -1.595795 0
M  V30 22 C -1.733752 -4.870774 -2.650203 0
M  V30 23 C -1.626525 -6.230292 -2.357855 0
M  V30 24 F -1.828384 -7.108421 -3.383177 0
M  V30 25 C -1.325483 -6.681904 -1.072492 0
M  V30 26 C -1.124832 -5.765067 -0.048688 0
M  V30 27 C -0.119789 -2.329143 0.730873 0
M  V30 28 C 0.881892 -2.264499 -0.361086 0
M  V30 29 C 1.885648 -3.182767 -0.577063 0
M  V30 30 C 2.746782 -2.992031 -1.648337 0
M  V30 31 N 2.626826 -1.950842 -2.466333 0
M  V30 32 C 1.652726 -1.028749 -2.285063 0
M  V30 33 N 1.538214 0.081870 -3.171561 0
M  V30 34 C 2.036421 1.411158 -3.264194 0
M  V30 35 C 1.587105 2.189382 -4.448866 0
M  V30 36 O 2.802274 1.834937 -2.367818 0
M  V30 37 C 0.772003 -1.174861 -1.233609 0
M  V30 38 H 0.932876 -0.679429 5.769575 0
M  V30 39 H 2.017972 0.453181 4.873630 0
M  V30 40 H 0.316770 0.331316 4.364656 0
M  V30 41 H 2.377529 -1.650347 2.093467 0
M  V30 42 H 2.617963 0.002045 2.735195 0
M  V30 43 H 0.155341 0.476197 2.406690 0
M  V30 44 H 1.020351 -0.058940 0.978694 0
M  V30 45 H -3.907088 0.084072 4.427601 0
M  V30 46 H -3.979408 -0.620537 2.801103 0
M  V30 47 H -2.964462 0.222731 0.942433 0
M  V30 48 H -2.007303 2.052036 -0.312775 0
M  V30 49 H 1.247193 3.915068 1.362362 0
M  V30 50 H 1.397566 4.858935 -0.187943 0
M  V30 51 H 0.895840 3.086786 -0.160657 0
M  V30 52 H -1.276145 4.070184 3.363377 0
M  V30 53 H -2.274814 2.151238 4.614277 0
M  V30 54 H -1.621286 -2.950692 -1.885081 0
M  V30 55 H -1.967341 -4.544676 -3.648730 0
M  V30 56 H -1.251039 -7.733763 -0.884764 0
M  V30 57 H -0.891258 -6.061821 0.955049 0
M  V30 58 H 1.923252 -3.998372 0.121801 0
M  V30 59 H 3.493874 -3.785017 -1.708160 0
M  V30 60 H 0.895031 -0.334806 -3.885633 0
M  V30 61 H 1.383167 1.513857 -5.303894 0
M  V30 62 H 2.361036 2.934053 -4.669746 0
M  V30 63 H 0.615741 2.704155 -4.252394 0
M  V30 64 H 0.005289 -0.387027 -1.151575 0
M  V30 END ATOM
M  V30 BEGIN BOND
M  V30 1 1 1 2
M  V30 2 1 2 3
M  V30 3 1 3 4
M  V30 4 1 4 5
M  V30 5 1 5 6
M  V30 6 1 6 7
M  V30 7 1 7 8
M  V30 8 1 8 9
M  V30 9 2 9 10
M  V30 10 1 10 11
M  V30 11 2 11 12
M  V30 12 1 12 13
M  V30 13 1 13 14
M  V30 14 1 13 15
M  V30 15 1 12 16
M  V30 16 2 16 17
M  V30 17 2 6 18
M  V30 18 1 18 19
M  V30 19 1 19 20
M  V30 20 2 20 21
M  V30 21 1 21 22
M  V30 22 2 22 23
M  V30 23 1 23 24
M  V30 24 1 23 25
M  V30 25 2 25 26
M  V30 26 2 19 27
M  V30 27 1 27 28
M  V30 28 2 28 29
M  V30 29 1 29 30
M  V30 30 2 30 31
M  V30 31 1 31 32
M  V30 32 1 32 33
M  V30 33 1 33 34
M  V30 34 1 34 35
M  V30 35 2 34 36
M  V30 36 2 32 37
M  V30 37 1 27 5
M  V30 38 1 37 28
M  V30 39 1 17 9
M  V30 40 1 26 20
M  V30 41 1 1 38
M  V30 42 1 1 39
M  V30 43 1 1 40
M  V30 44 1 3 41
M  V30 45 1 3 42
M  V30 46 1 4 43
M  V30 47 1 4 44
M  V30 48 1 8 45
M  V30 49 1 8 46
M  V30 50 1 10 47
M  V30 51 1 11 48
M  V30 52 1 14 49
M  V30 53 1 14 50
M  V30 54 1 14 51
M  V30 55 1 16 52
M  V30 56 1 17 53
M  V30 57 1 21 54
M  V30 58 1 22 55
M  V30 59 1 25 56
M  V30 60 1 26 57
M  V30 61 1 29 58
M  V30 62 1 30 59
M  V30 63 1 33 60
M  V30 64 1 35 61
M  V30 65 1 35 62
M  V30 66 1 35 63
M  V30 67 1 37 64
M  V30 END BOND
M  V30 END CTAB
M  END
>  <Dataset>  (930) 
ChEMBL_Kinases

>  <Ligand_Instance>  (930) 
nan

>  <PDB_ID>  (930) 
nan

>  <Standardized_SMILES>  (930) 
COCCn1c(SCc2ccc([S+](C)[O-])cc2)nc(-c2ccc(F)cc2)c1-c1ccnc(NC(C)=O)c1

>  <Name>  (930) 
nan

>  <Pocket>  (930) 
nan

>  <ATP_Site>  (930) 
nan

>  <Peripheral>  (930) 
nan

>  <Num_H_Atoms_ProtBoundConf>  (930) 
nan

>  <Num_Resolved_Atoms>  (930) 
nan

>  <Num_Not_Resolved_Atoms>  (930) 
nan

$$$$
CHEMBL579387
     RDKit          3D

  0  0  0  0  0  0  0  0  0  0999 V3000
M  V30 BEGIN CTAB
M  V30 COUNTS 29 31 0 0 0
M  V30 BEGIN ATOM
M  V30 1 O -1.007104 -3.556399 3.577562 0
M  V30 2 C -0.359510 -2.726520 2.890076 0
M  V30 3 O 0.981009 -2.379660 2.837875 0
M  V30 4 C 1.126728 -1.378330 1.870489 0
M  V30 5 C 2.406314 -0.770020 1.543150 0
M  V30 6 C 3.600958 -1.092948 2.151214 0
M  V30 7 C 4.826298 -0.512772 1.856798 0
M  V30 8 C 4.823001 0.471811 0.865410 0
M  V30 9 C 3.641265 0.825381 0.228874 0
M  V30 10 C 2.447566 0.222223 0.554023 0
M  V30 11 N -0.015904 -1.096697 1.334925 0
M  V30 12 C -1.034721 -1.908130 1.921723 0
M  V30 13 C -2.300885 -1.734187 1.527782 0
M  V30 14 C -2.740689 -0.809474 0.481713 0
M  V30 15 C -1.944634 -0.912723 -0.676238 0
M  V30 16 C -2.217174 -0.108078 -1.777794 0
M  V30 17 C -3.280388 0.755350 -1.638897 0
M  V30 18 N -4.066412 0.875534 -0.528879 0
M  V30 19 C -3.807145 0.090127 0.556024 0
M  V30 20 H 3.565618 -1.861752 2.923727 0
M  V30 21 H 5.734231 -0.818534 2.384461 0
M  V30 22 H 5.753988 0.957176 0.597213 0
M  V30 23 H 3.671568 1.606163 -0.549156 0
M  V30 24 H 1.507816 0.473031 0.079439 0
M  V30 25 H -3.009447 -2.366620 2.083535 0
M  V30 26 H -1.109120 -1.586046 -0.796962 0
M  V30 27 H -1.616708 -0.178506 -2.675293 0
M  V30 28 H -3.506370 1.389010 -2.489162 0
M  V30 29 H -4.347251 0.079194 1.515061 0
M  V30 END ATOM
M  V30 BEGIN BOND
M  V30 1 2 1 2
M  V30 2 1 2 3
M  V30 3 1 3 4
M  V30 4 1 4 5
M  V30 5 2 5 6
M  V30 6 1 6 7
M  V30 7 2 7 8
M  V30 8 1 8 9
M  V30 9 2 9 10
M  V30 10 2 4 11
M  V30 11 1 11 12
M  V30 12 2 12 13
M  V30 13 1 13 14
M  V30 14 2 14 15
M  V30 15 1 15 16
M  V30 16 2 16 17
M  V30 17 1 17 18
M  V30 18 2 18 19
M  V30 19 1 12 2
M  V30 20 1 19 14
M  V30 21 1 10 5
M  V30 22 1 6 20
M  V30 23 1 7 21
M  V30 24 1 8 22
M  V30 25 1 9 23
M  V30 26 1 10 24
M  V30 27 1 13 25
M  V30 28 1 15 26
M  V30 29 1 16 27
M  V30 30 1 17 28
M  V30 31 1 19 29
M  V30 END BOND
M  V30 END CTAB
M  END
>  <Dataset>  (931) 
ChEMBL_Kinases

>  <Ligand_Instance>  (931) 
nan

>  <PDB_ID>  (931) 
nan

>  <Standardized_SMILES>  (931) 
O=C1OC(c2ccccc2)=N/C1=C\c1cccnc1

>  <Name>  (931) 
nan

>  <Pocket>  (931) 
nan

>  <ATP_Site>  (931) 
nan

>  <Peripheral>  (931) 
nan

>  <Num_H_Atoms_ProtBoundConf>  (931) 
nan

>  <Num_Resolved_Atoms>  (931) 
nan

>  <Num_Not_Resolved_Atoms>  (931) 
nan

$$$$
CHEMBL3747610
     RDKit          3D

  0  0  0  0  0  0  0  0  0  0999 V3000
M  V30 BEGIN CTAB
M  V30 COUNTS 49 51 0 0 0
M  V30 BEGIN ATOM
M  V30 1 C 1.982956 -5.463924 -0.922620 0
M  V30 2 C 1.310794 -4.534729 0.026155 0
M  V30 3 C 1.952319 -3.981890 1.100982 0
M  V30 4 C 1.249197 -3.116379 1.947101 0
M  V30 5 C -0.095420 -2.813933 1.703723 0
M  V30 6 O -0.503540 -1.953769 2.690105 0
M  V30 7 C -0.267272 -0.622572 2.834615 0
M  V30 8 C 0.414434 -0.450110 4.053534 0
M  V30 9 C 0.801073 0.819117 4.489333 0
M  V30 10 F 1.458276 1.036768 5.658457 0
M  V30 11 C 0.490037 1.914573 3.672084 0
M  V30 12 C -0.185961 1.795205 2.446500 0
M  V30 13 N -0.363015 3.039621 1.820262 0
M  V30 14 C 0.174362 3.724842 0.702342 0
M  V30 15 C 0.699002 4.906134 1.271952 0
M  V30 16 C 1.361329 5.914223 0.554757 0
M  V30 17 C 1.512700 5.742953 -0.803800 0
M  V30 18 I 2.470464 7.114444 -2.078189 0
M  V30 19 C 1.015354 4.607626 -1.391095 0
M  V30 20 C 0.385980 3.672649 -0.638661 0
M  V30 21 F -0.082566 2.548565 -1.198648 0
M  V30 22 C -0.508999 0.520747 2.139715 0
M  V30 23 C -1.342256 0.288705 1.014782 0
M  V30 24 N -1.998021 -0.419561 0.022184 0
M  V30 25 O -1.932999 1.231473 0.441495 0
M  V30 26 C -0.701375 -3.391059 0.613754 0
M  V30 27 C -0.031786 -4.245585 -0.233526 0
M  V30 28 N -0.762650 -4.786909 -1.325310 0
M  V30 29 S -2.439930 -4.626556 -1.602992 0
M  V30 30 N -3.366663 -5.336775 -0.307430 0
M  V30 31 O -2.802946 -5.390742 -2.856431 0
M  V30 32 O -2.850576 -3.206438 -1.762649 0
M  V30 33 H 2.177001 -4.958926 -1.904457 0
M  V30 34 H 2.972743 -5.750563 -0.545159 0
M  V30 35 H 1.396626 -6.380953 -1.083104 0
M  V30 36 H 2.986509 -4.273924 1.206429 0
M  V30 37 H 1.914390 -2.775776 2.741422 0
M  V30 38 H 0.719392 -1.211658 4.779798 0
M  V30 39 H 0.819887 2.889647 4.068305 0
M  V30 40 H -1.121294 3.497515 2.391090 0
M  V30 41 H 0.703666 5.264739 2.313257 0
M  V30 42 H 1.787123 6.832540 0.897847 0
M  V30 43 H 1.090984 4.401587 -2.430690 0
M  V30 44 H -1.581495 -0.993209 -0.754370 0
M  V30 45 H -1.585775 -0.996974 -0.759680 0
M  V30 46 H -1.721149 -3.095204 0.538265 0
M  V30 47 H -0.162320 -5.332134 -2.000296 0
M  V30 48 H -4.134079 -5.928362 -0.643293 0
M  V30 49 H -2.711612 -5.832506 0.347755 0
M  V30 END ATOM
M  V30 BEGIN BOND
M  V30 1 1 1 2
M  V30 2 2 2 3
M  V30 3 1 3 4
M  V30 4 2 4 5
M  V30 5 1 5 6
M  V30 6 1 6 7
M  V30 7 2 7 8
M  V30 8 1 8 9
M  V30 9 1 9 10
M  V30 10 2 9 11
M  V30 11 1 11 12
M  V30 12 1 12 13
M  V30 13 1 13 14
M  V30 14 2 14 15
M  V30 15 1 15 16
M  V30 16 2 16 17
M  V30 17 1 17 18
M  V30 18 1 17 19
M  V30 19 2 19 20
M  V30 20 1 20 21
M  V30 21 2 12 22
M  V30 22 1 22 23
M  V30 23 1 23 24
M  V30 24 2 23 25
M  V30 25 1 5 26
M  V30 26 2 26 27
M  V30 27 1 27 28
M  V30 28 1 28 29
M  V30 29 1 29 30
M  V30 30 2 29 31
M  V30 31 2 29 32
M  V30 32 1 27 2
M  V30 33 1 22 7
M  V30 34 1 20 14
M  V30 35 1 1 33
M  V30 36 1 1 34
M  V30 37 1 1 35
M  V30 38 1 3 36
M  V30 39 1 4 37
M  V30 40 1 8 38
M  V30 41 1 11 39
M  V30 42 1 13 40
M  V30 43 1 15 41
M  V30 44 1 16 42
M  V30 45 1 19 43
M  V30 46 1 24 44
M  V30 47 1 24 45
M  V30 48 1 26 46
M  V30 49 1 28 47
M  V30 50 1 30 48
M  V30 51 1 30 49
M  V30 END BOND
M  V30 END CTAB
M  END
>  <Dataset>  (932) 
ChEMBL_Kinases

>  <Ligand_Instance>  (932) 
nan

>  <PDB_ID>  (932) 
nan

>  <Standardized_SMILES>  (932) 
Cc1ccc(Oc2cc(F)cc(Nc3ccc(I)cc3F)c2C(N)=O)cc1NS(N)(=O)=O

>  <Name>  (932) 
nan

>  <Pocket>  (932) 
nan

>  <ATP_Site>  (932) 
nan

>  <Peripheral>  (932) 
nan

>  <Num_H_Atoms_ProtBoundConf>  (932) 
nan

>  <Num_Resolved_Atoms>  (932) 
nan

>  <Num_Not_Resolved_Atoms>  (932) 
nan

$$$$
CHEMBL3747595
     RDKit          3D

  0  0  0  0  0  0  0  0  0  0999 V3000
M  V30 BEGIN CTAB
M  V30 COUNTS 52 56 0 0 0
M  V30 BEGIN ATOM
M  V30 1 C 7.761089 -4.721586 1.685148 0
M  V30 2 O 7.167430 -3.837611 2.616643 0
M  V30 3 C 6.436185 -2.755185 2.148293 0
M  V30 4 C 6.261188 -2.501696 0.784942 0
M  V30 5 C 5.510546 -1.390006 0.432612 0
M  V30 6 C 4.944026 -0.545897 1.340375 0
M  V30 7 S 3.988652 0.868245 0.979498 0
M  V30 8 O 4.430323 1.485028 -0.331382 0
M  V30 9 O 4.125890 1.828278 2.109277 0
M  V30 10 C 2.282314 0.410059 0.861723 0
M  V30 11 C 1.334610 0.947013 1.716495 0
M  V30 12 C 0.003813 0.591764 1.634497 0
M  V30 13 C -0.971201 1.099334 2.469242 0
M  V30 14 N -2.276158 0.717538 2.356887 0
M  V30 15 C -2.657058 -0.172459 1.421700 0
M  V30 16 N -3.966669 -0.671875 1.189892 0
M  V30 17 C -4.958911 -0.048611 0.363177 0
M  V30 18 C -4.618409 1.141658 -0.235837 0
M  V30 19 C -5.615074 1.690766 -1.015147 0
M  V30 20 C -6.861219 1.130586 -1.206921 0
M  V30 21 N -7.975953 1.443848 -1.889441 0
M  V30 22 C -8.900348 0.488423 -1.692555 0
M  V30 23 C -8.392349 -0.484575 -0.860360 0
M  V30 24 C -7.094393 -0.082737 -0.546904 0
M  V30 25 C -6.158446 -0.718472 0.260495 0
M  V30 26 N -1.720462 -0.683879 0.591807 0
M  V30 27 C -0.406777 -0.329652 0.670373 0
M  V30 28 N 0.521720 -0.847563 -0.157965 0
M  V30 29 C 0.129047 -1.817421 -1.183556 0
M  V30 30 C 1.826726 -0.496248 -0.073813 0
M  V30 31 O 2.631123 -1.020212 -0.878171 0
M  V30 32 C 5.156838 -0.855350 2.690033 0
M  V30 33 C 5.890830 -1.941892 3.116060 0
M  V30 34 H 8.559996 -5.266012 2.234531 0
M  V30 35 H 7.069118 -5.508678 1.321578 0
M  V30 36 H 8.261490 -4.197909 0.845025 0
M  V30 37 H 6.697292 -3.152319 0.057845 0
M  V30 38 H 5.357644 -1.167084 -0.595903 0
M  V30 39 H 1.645651 1.665978 2.470349 0
M  V30 40 H -0.699092 1.812010 3.226019 0
M  V30 41 H -4.108867 -1.564782 1.710064 0
M  V30 42 H -3.649191 1.597885 -0.099816 0
M  V30 43 H -5.407706 2.637814 -1.519281 0
M  V30 44 H -8.025535 2.312265 -2.455991 0
M  V30 45 H -9.879126 0.551624 -2.158321 0
M  V30 46 H -8.923305 -1.385144 -0.526321 0
M  V30 47 H -6.363325 -1.647303 0.754233 0
M  V30 48 H -0.859679 -2.229525 -0.950959 0
M  V30 49 H 0.917503 -2.626643 -1.177966 0
M  V30 50 H 0.206730 -1.322750 -2.152619 0
M  V30 51 H 4.726042 -0.212904 3.445880 0
M  V30 52 H 6.009775 -2.112679 4.188226 0
M  V30 END ATOM
M  V30 BEGIN BOND
M  V30 1 1 1 2
M  V30 2 1 2 3
M  V30 3 2 3 4
M  V30 4 1 4 5
M  V30 5 2 5 6
M  V30 6 1 6 7
M  V30 7 2 7 8
M  V30 8 2 7 9
M  V30 9 1 7 10
M  V30 10 2 10 11
M  V30 11 1 11 12
M  V30 12 2 12 13
M  V30 13 1 13 14
M  V30 14 2 14 15
M  V30 15 1 15 16
M  V30 16 1 16 17
M  V30 17 2 17 18
M  V30 18 1 18 19
M  V30 19 2 19 20
M  V30 20 1 20 21
M  V30 21 1 21 22
M  V30 22 2 22 23
M  V30 23 1 23 24
M  V30 24 2 24 25
M  V30 25 1 15 26
M  V30 26 2 26 27
M  V30 27 1 27 28
M  V30 28 1 28 29
M  V30 29 1 28 30
M  V30 30 2 30 31
M  V30 31 1 6 32
M  V30 32 2 32 33
M  V30 33 1 33 3
M  V30 34 1 30 10
M  V30 35 1 27 12
M  V30 36 1 25 17
M  V30 37 1 24 20
M  V30 38 1 1 34
M  V30 39 1 1 35
M  V30 40 1 1 36
M  V30 41 1 4 37
M  V30 42 1 5 38
M  V30 43 1 11 39
M  V30 44 1 13 40
M  V30 45 1 16 41
M  V30 46 1 18 42
M  V30 47 1 19 43
M  V30 48 1 21 44
M  V30 49 1 22 45
M  V30 50 1 23 46
M  V30 51 1 25 47
M  V30 52 1 29 48
M  V30 53 1 29 49
M  V30 54 1 29 50
M  V30 55 1 32 51
M  V30 56 1 33 52
M  V30 END BOND
M  V30 END CTAB
M  END
>  <Dataset>  (933) 
ChEMBL_Kinases

>  <Ligand_Instance>  (933) 
nan

>  <PDB_ID>  (933) 
nan

>  <Standardized_SMILES>  (933) 
COc1ccc(S(=O)(=O)c2cc3cnc(Nc4ccc5[nH]ccc5c4)nc3n(C)c2=O)cc1

>  <Name>  (933) 
nan

>  <Pocket>  (933) 
nan

>  <ATP_Site>  (933) 
nan

>  <Peripheral>  (933) 
nan

>  <Num_H_Atoms_ProtBoundConf>  (933) 
nan

>  <Num_Resolved_Atoms>  (933) 
nan

>  <Num_Not_Resolved_Atoms>  (933) 
nan

$$$$
CHEMBL374756
     RDKit          3D

  0  0  0  0  0  0  0  0  0  0999 V3000
M  V30 BEGIN CTAB
M  V30 COUNTS 53 55 0 0 0
M  V30 BEGIN ATOM
M  V30 1 C -1.747850 -0.150209 3.404442 0
M  V30 2 O -1.608641 -1.356416 2.713049 0
M  V30 3 C -0.581783 -2.138896 3.209092 0
M  V30 4 C 0.478402 -2.393575 2.162709 0
M  V30 5 N 1.093812 -1.181299 1.665909 0
M  V30 6 C 2.190904 -0.594978 2.191223 0
M  V30 7 S 3.180467 -1.109760 3.602142 0
M  V30 8 C 2.453780 -0.324780 5.056653 0
M  V30 9 N 2.474458 0.520224 1.462350 0
M  V30 10 C 1.568184 0.659129 0.469353 0
M  V30 11 C 1.555840 1.739394 -0.511235 0
M  V30 12 C 1.703573 1.604139 -1.881437 0
M  V30 13 C 1.671548 2.715422 -2.691107 0
M  V30 14 C 1.489850 3.942756 -2.091410 0
M  V30 15 F 1.454359 5.061266 -2.879366 0
M  V30 16 C 1.337639 4.131933 -0.731444 0
M  V30 17 C 1.375560 2.987345 0.052549 0
M  V30 18 C 0.713413 -0.424117 0.622137 0
M  V30 19 C -0.422283 -0.649700 -0.262184 0
M  V30 20 C -1.389427 0.353903 -0.223655 0
M  V30 21 C -2.540586 0.283608 -1.016209 0
M  V30 22 N -2.671608 -0.802783 -1.821027 0
M  V30 23 C -1.737048 -1.770283 -1.856699 0
M  V30 24 N -1.964474 -2.874961 -2.735732 0
M  V30 25 C -1.591381 -3.058804 -4.116798 0
M  V30 26 C -2.081618 -4.397450 -4.537514 0
M  V30 27 O -0.986641 -2.008409 -4.448197 0
M  V30 28 C -0.601640 -1.733217 -1.096481 0
M  V30 29 O -1.043375 -3.396778 3.612630 0
M  V30 30 C -0.792810 -3.627912 4.957951 0
M  V30 31 H -0.860505 0.487053 3.372812 0
M  V30 32 H -2.077126 -0.371576 4.455266 0
M  V30 33 H -2.589462 0.405879 2.946565 0
M  V30 34 H -0.114642 -1.596499 4.053323 0
M  V30 35 H 1.273462 -3.051809 2.523139 0
M  V30 36 H -0.043996 -2.950921 1.342678 0
M  V30 37 H 1.940218 -1.057731 5.700271 0
M  V30 38 H 1.705873 0.461814 4.812092 0
M  V30 39 H 3.271086 0.230427 5.596612 0
M  V30 40 H 1.839899 0.585346 -2.233680 0
M  V30 41 H 1.789104 2.590585 -3.760666 0
M  V30 42 H 1.198110 5.130995 -0.327892 0
M  V30 43 H 1.253704 3.167163 1.114595 0
M  V30 44 H -1.307043 1.221156 0.404934 0
M  V30 45 H -3.306769 1.045361 -1.008298 0
M  V30 46 H -2.485334 -3.495534 -2.048351 0
M  V30 47 H -1.984249 -4.455260 -5.647372 0
M  V30 48 H -3.191195 -4.445668 -4.363591 0
M  V30 49 H -1.555260 -5.218150 -4.050969 0
M  V30 50 H 0.157880 -2.475058 -1.096191 0
M  V30 51 H -1.188576 -4.649212 5.203263 0
M  V30 52 H -1.403521 -2.938969 5.579005 0
M  V30 53 H 0.283783 -3.638163 5.218361 0
M  V30 END ATOM
M  V30 BEGIN BOND
M  V30 1 1 1 2
M  V30 2 1 2 3
M  V30 3 1 3 4
M  V30 4 1 4 5
M  V30 5 1 5 6
M  V30 6 1 6 7
M  V30 7 1 7 8
M  V30 8 2 6 9
M  V30 9 1 9 10
M  V30 10 1 10 11
M  V30 11 2 11 12
M  V30 12 1 12 13
M  V30 13 2 13 14
M  V30 14 1 14 15
M  V30 15 1 14 16
M  V30 16 2 16 17
M  V30 17 2 10 18
M  V30 18 1 18 19
M  V30 19 2 19 20
M  V30 20 1 20 21
M  V30 21 2 21 22
M  V30 22 1 22 23
M  V30 23 1 23 24
M  V30 24 1 24 25
M  V30 25 1 25 26
M  V30 26 2 25 27
M  V30 27 2 23 28
M  V30 28 1 3 29
M  V30 29 1 29 30
M  V30 30 1 18 5
M  V30 31 1 28 19
M  V30 32 1 17 11
M  V30 33 1 1 31
M  V30 34 1 1 32
M  V30 35 1 1 33
M  V30 36 1 3 34
M  V30 37 1 4 35
M  V30 38 1 4 36
M  V30 39 1 8 37
M  V30 40 1 8 38
M  V30 41 1 8 39
M  V30 42 1 12 40
M  V30 43 1 13 41
M  V30 44 1 16 42
M  V30 45 1 17 43
M  V30 46 1 20 44
M  V30 47 1 21 45
M  V30 48 1 24 46
M  V30 49 1 26 47
M  V30 50 1 26 48
M  V30 51 1 26 49
M  V30 52 1 28 50
M  V30 53 1 30 51
M  V30 54 1 30 52
M  V30 55 1 30 53
M  V30 END BOND
M  V30 END CTAB
M  END
>  <Dataset>  (934) 
ChEMBL_Kinases

>  <Ligand_Instance>  (934) 
nan

>  <PDB_ID>  (934) 
nan

>  <Standardized_SMILES>  (934) 
COC(Cn1c(SC)nc(-c2ccc(F)cc2)c1-c1ccnc(NC(C)=O)c1)OC

>  <Name>  (934) 
nan

>  <Pocket>  (934) 
nan

>  <ATP_Site>  (934) 
nan

>  <Peripheral>  (934) 
nan

>  <Num_H_Atoms_ProtBoundConf>  (934) 
nan

>  <Num_Resolved_Atoms>  (934) 
nan

>  <Num_Not_Resolved_Atoms>  (934) 
nan

$$$$
CHEMBL3747516
     RDKit          3D

  0  0  0  0  0  0  0  0  0  0999 V3000
M  V30 BEGIN CTAB
M  V30 COUNTS 52 54 0 0 0
M  V30 BEGIN ATOM
M  V30 1 C 4.534616 2.658837 1.823623 0
M  V30 2 C 3.947324 1.284628 1.722703 0
M  V30 3 N 4.956649 0.287684 1.764427 0
M  V30 4 S 4.918774 -0.745563 3.131131 0
M  V30 5 N 5.133814 0.068123 4.606269 0
M  V30 6 O 3.650301 -1.525447 3.145593 0
M  V30 7 O 6.039907 -1.738126 2.971111 0
M  V30 8 C 2.996138 1.186477 0.602824 0
M  V30 9 C 3.592393 0.939013 -0.617693 0
M  V30 10 C 2.783819 0.830189 -1.731403 0
M  V30 11 C 1.417341 0.962338 -1.644352 0
M  V30 12 C 0.773756 1.208505 -0.452817 0
M  V30 13 O -0.511091 1.387281 -0.009696 0
M  V30 14 C -1.279756 0.462362 0.626440 0
M  V30 15 C -1.563277 1.010028 1.890990 0
M  V30 16 C -2.347862 0.289291 2.802223 0
M  V30 17 F -2.684697 0.708232 4.039383 0
M  V30 18 C -2.835653 -0.951598 2.448405 0
M  V30 19 C -2.586486 -1.529877 1.220764 0
M  V30 20 N -3.120144 -2.797660 0.941807 0
M  V30 21 C -4.059221 -3.279967 0.026177 0
M  V30 22 C -4.790515 -2.569697 -0.891932 0
M  V30 23 C -5.712113 -3.065907 -1.786434 0
M  V30 24 C -5.923248 -4.424730 -1.756432 0
M  V30 25 I -7.307503 -5.317523 -3.072036 0
M  V30 26 C -5.216882 -5.189673 -0.854752 0
M  V30 27 C -4.306726 -4.636631 0.016771 0
M  V30 28 F -3.671326 -5.496165 0.860223 0
M  V30 29 C -1.816633 -0.767913 0.394605 0
M  V30 30 C -1.437532 -1.274702 -0.885156 0
M  V30 31 N -0.888731 -1.319671 -2.172864 0
M  V30 32 O -1.679806 -2.436654 -1.290441 0
M  V30 33 C 1.603958 1.318581 0.677969 0
M  V30 34 H 4.646322 2.962676 2.883965 0
M  V30 35 H 3.752169 3.357430 1.407343 0
M  V30 36 H 5.427675 2.789706 1.207252 0
M  V30 37 H 3.323712 1.150519 2.655193 0
M  V30 38 H 5.175900 -0.199162 0.893130 0
M  V30 39 H 6.074758 0.421744 4.795839 0
M  V30 40 H 4.352771 0.655420 4.926499 0
M  V30 41 H 4.635089 0.815064 -0.828288 0
M  V30 42 H 3.072490 0.639477 -2.764474 0
M  V30 43 H 0.679501 0.914825 -2.430006 0
M  V30 44 H -1.273632 1.967320 2.354511 0
M  V30 45 H -3.454404 -1.531307 3.154907 0
M  V30 46 H -2.646709 -3.439596 1.614171 0
M  V30 47 H -4.611186 -1.484680 -0.904384 0
M  V30 48 H -6.236123 -2.413253 -2.471441 0
M  V30 49 H -5.410182 -6.273394 -0.857543 0
M  V30 50 H -1.052555 -0.631366 -2.967012 0
M  V30 51 H -1.045472 -0.642356 -2.965447 0
M  V30 52 H 1.344630 1.510328 1.732042 0
M  V30 END ATOM
M  V30 BEGIN BOND
M  V30 1 1 1 2
M  V30 2 1 2 3
M  V30 3 1 3 4
M  V30 4 1 4 5
M  V30 5 2 4 6
M  V30 6 2 4 7
M  V30 7 1 2 8
M  V30 8 2 8 9
M  V30 9 1 9 10
M  V30 10 2 10 11
M  V30 11 1 11 12
M  V30 12 1 12 13
M  V30 13 1 13 14
M  V30 14 2 14 15
M  V30 15 1 15 16
M  V30 16 1 16 17
M  V30 17 2 16 18
M  V30 18 1 18 19
M  V30 19 1 19 20
M  V30 20 1 20 21
M  V30 21 2 21 22
M  V30 22 1 22 23
M  V30 23 2 23 24
M  V30 24 1 24 25
M  V30 25 1 24 26
M  V30 26 2 26 27
M  V30 27 1 27 28
M  V30 28 2 19 29
M  V30 29 1 29 30
M  V30 30 1 30 31
M  V30 31 2 30 32
M  V30 32 2 12 33
M  V30 33 1 33 8
M  V30 34 1 29 14
M  V30 35 1 27 21
M  V30 36 1 1 34
M  V30 37 1 1 35
M  V30 38 1 1 36
M  V30 39 1 2 37
M  V30 40 1 3 38
M  V30 41 1 5 39
M  V30 42 1 5 40
M  V30 43 1 9 41
M  V30 44 1 10 42
M  V30 45 1 11 43
M  V30 46 1 15 44
M  V30 47 1 18 45
M  V30 48 1 20 46
M  V30 49 1 22 47
M  V30 50 1 23 48
M  V30 51 1 26 49
M  V30 52 1 31 50
M  V30 53 1 31 51
M  V30 54 1 33 52
M  V30 END BOND
M  V30 END CTAB
M  END
>  <Dataset>  (935) 
ChEMBL_Kinases

>  <Ligand_Instance>  (935) 
nan

>  <PDB_ID>  (935) 
nan

>  <Standardized_SMILES>  (935) 
CC(NS(N)(=O)=O)c1cccc(Oc2cc(F)cc(Nc3ccc(I)cc3F)c2C(N)=O)c1

>  <Name>  (935) 
nan

>  <Pocket>  (935) 
nan

>  <ATP_Site>  (935) 
nan

>  <Peripheral>  (935) 
nan

>  <Num_H_Atoms_ProtBoundConf>  (935) 
nan

>  <Num_Resolved_Atoms>  (935) 
nan

>  <Num_Not_Resolved_Atoms>  (935) 
nan

$$$$
CHEMBL3747496
     RDKit          3D

  0  0  0  0  0  0  0  0  0  0999 V3000
M  V30 BEGIN CTAB
M  V30 COUNTS 49 51 0 0 0
M  V30 BEGIN ATOM
M  V30 1 C 1.016743 0.642024 3.560646 0
M  V30 2 C 2.095093 0.182069 2.658614 0
M  V30 3 C 3.119478 -0.612651 3.188375 0
M  V30 4 C 4.135292 -1.063315 2.408769 0
M  V30 5 C 4.178578 -0.744604 1.068666 0
M  V30 6 N 5.206860 -1.176850 0.187087 0
M  V30 7 S 5.979569 -0.134586 -0.957241 0
M  V30 8 N 4.884424 0.500793 -2.114271 0
M  V30 9 O 6.717075 0.966271 -0.241155 0
M  V30 10 O 7.014268 -0.977290 -1.679368 0
M  V30 11 C 3.145373 0.037704 0.608740 0
M  V30 12 C 2.066280 0.550252 1.306084 0
M  V30 13 O 1.064840 1.320030 0.815849 0
M  V30 14 C -0.279281 1.148243 0.782884 0
M  V30 15 C -0.926613 2.176037 1.486651 0
M  V30 16 C -2.298333 2.240775 1.608504 0
M  V30 17 F -2.932403 3.228891 2.282784 0
M  V30 18 C -3.020901 1.213834 0.988218 0
M  V30 19 C -2.456226 0.143152 0.264583 0
M  V30 20 N -3.434148 -0.716968 -0.222384 0
M  V30 21 C -3.932302 -2.015867 0.038547 0
M  V30 22 C -5.302094 -1.783136 0.328615 0
M  V30 23 C -6.237848 -2.770566 0.672531 0
M  V30 24 C -5.793871 -4.072683 0.734322 0
M  V30 25 I -7.005715 -5.702180 1.226730 0
M  V30 26 C -4.489035 -4.346379 0.464618 0
M  V30 27 C -3.623924 -3.340991 0.135338 0
M  V30 28 F -2.327897 -3.582428 -0.112153 0
M  V30 29 C -1.100481 0.215559 0.226227 0
M  V30 30 C -0.436631 -0.724574 -0.628795 0
M  V30 31 N 0.748918 -1.309532 -1.065447 0
M  V30 32 O -1.089962 -1.438764 -1.421467 0
M  V30 33 H 1.229382 0.301881 4.595579 0
M  V30 34 H 0.102610 0.134996 3.256946 0
M  V30 35 H 0.965277 1.745012 3.628723 0
M  V30 36 H 3.106292 -0.877481 4.245390 0
M  V30 37 H 4.923829 -1.673954 2.812272 0
M  V30 38 H 5.449183 -2.188035 0.299842 0
M  V30 39 H 5.306294 0.414415 -3.084610 0
M  V30 40 H 4.648895 1.507048 -1.923069 0
M  V30 41 H 3.179865 0.291935 -0.460119 0
M  V30 42 H -0.421256 3.006032 1.995762 0
M  V30 43 H -4.112267 1.322053 1.121523 0
M  V30 44 H -3.864832 -0.167908 -1.032008 0
M  V30 45 H -5.881544 -0.835109 0.343175 0
M  V30 46 H -7.284514 -2.665278 0.903488 0
M  V30 47 H -4.044845 -5.320724 0.484499 0
M  V30 48 H 1.367444 -0.983907 -1.867957 0
M  V30 49 H 1.237962 -2.170700 -0.674940 0
M  V30 END ATOM
M  V30 BEGIN BOND
M  V30 1 1 1 2
M  V30 2 2 2 3
M  V30 3 1 3 4
M  V30 4 2 4 5
M  V30 5 1 5 6
M  V30 6 1 6 7
M  V30 7 1 7 8
M  V30 8 2 7 9
M  V30 9 2 7 10
M  V30 10 1 5 11
M  V30 11 2 11 12
M  V30 12 1 12 13
M  V30 13 1 13 14
M  V30 14 2 14 15
M  V30 15 1 15 16
M  V30 16 1 16 17
M  V30 17 2 16 18
M  V30 18 1 18 19
M  V30 19 1 19 20
M  V30 20 1 20 21
M  V30 21 2 21 22
M  V30 22 1 22 23
M  V30 23 2 23 24
M  V30 24 1 24 25
M  V30 25 1 24 26
M  V30 26 2 26 27
M  V30 27 1 27 28
M  V30 28 2 19 29
M  V30 29 1 29 30
M  V30 30 1 30 31
M  V30 31 2 30 32
M  V30 32 1 12 2
M  V30 33 1 29 14
M  V30 34 1 27 21
M  V30 35 1 1 33
M  V30 36 1 1 34
M  V30 37 1 1 35
M  V30 38 1 3 36
M  V30 39 1 4 37
M  V30 40 1 6 38
M  V30 41 1 8 39
M  V30 42 1 8 40
M  V30 43 1 11 41
M  V30 44 1 15 42
M  V30 45 1 18 43
M  V30 46 1 20 44
M  V30 47 1 22 45
M  V30 48 1 23 46
M  V30 49 1 26 47
M  V30 50 1 31 48
M  V30 51 1 31 49
M  V30 END BOND
M  V30 END CTAB
M  END
>  <Dataset>  (936) 
ChEMBL_Kinases

>  <Ligand_Instance>  (936) 
nan

>  <PDB_ID>  (936) 
nan

>  <Standardized_SMILES>  (936) 
Cc1ccc(NS(N)(=O)=O)cc1Oc1cc(F)cc(Nc2ccc(I)cc2F)c1C(N)=O

>  <Name>  (936) 
nan

>  <Pocket>  (936) 
nan

>  <ATP_Site>  (936) 
nan

>  <Peripheral>  (936) 
nan

>  <Num_H_Atoms_ProtBoundConf>  (936) 
nan

>  <Num_Resolved_Atoms>  (936) 
nan

>  <Num_Not_Resolved_Atoms>  (936) 
nan

$$$$
CHEMBL3747489
     RDKit          3D

  0  0  0  0  0  0  0  0  0  0999 V3000
M  V30 BEGIN CTAB
M  V30 COUNTS 52 55 0 0 0
M  V30 BEGIN ATOM
M  V30 1 C -0.085256 -1.252753 2.593985 0
M  V30 2 N 0.709290 -0.378594 1.753678 0
M  V30 3 C 1.787674 0.264781 2.276294 0
M  V30 4 O 2.028685 0.042788 3.505414 0
M  V30 5 C 2.589490 1.121763 1.513965 0
M  V30 6 O 3.639853 1.687031 2.212295 0
M  V30 7 C 4.540388 2.572903 1.644006 0
M  V30 8 C 5.886535 2.241187 1.601213 0
M  V30 9 C 6.862306 3.044443 1.062393 0
M  V30 10 C 6.487505 4.261956 0.526794 0
M  V30 11 F 7.412160 5.091973 -0.017624 0
M  V30 12 C 5.161091 4.633590 0.547253 0
M  V30 13 C 4.192553 3.793948 1.102855 0
M  V30 14 F 2.900202 4.180016 1.117182 0
M  V30 15 C 2.231851 1.283602 0.199504 0
M  V30 16 C 1.137247 0.609766 -0.268094 0
M  V30 17 C 0.798200 0.788106 -1.586264 0
M  V30 18 N -0.256424 0.176305 -2.146890 0
M  V30 19 C -1.031922 -0.657781 -1.393831 0
M  V30 20 N -2.168561 -1.316601 -1.985155 0
M  V30 21 C -3.052941 -2.229436 -1.267670 0
M  V30 22 C -3.643344 -1.484667 -0.119557 0
M  V30 23 C -4.038679 -2.321127 1.043008 0
M  V30 24 N -3.303648 -3.491128 1.289956 0
M  V30 25 S -4.138009 -4.815368 1.945181 0
M  V30 26 N -5.400214 -5.429029 0.971510 0
M  V30 27 O -3.165879 -5.873963 2.311238 0
M  V30 28 O -4.775170 -4.336891 3.242338 0
M  V30 29 C -2.164450 -3.778934 0.508154 0
M  V30 30 C -2.292123 -3.462379 -0.940734 0
M  V30 31 N -0.694779 -0.823168 -0.119758 0
M  V30 32 C 0.344047 -0.231551 0.466591 0
M  V30 33 H 0.326481 -2.291347 2.547437 0
M  V30 34 H -1.151907 -1.296644 2.238161 0
M  V30 35 H -0.032051 -0.883243 3.625520 0
M  V30 36 H 6.187592 1.277626 2.023896 0
M  V30 37 H 7.895241 2.740554 1.053626 0
M  V30 38 H 4.794467 5.589029 0.138080 0
M  V30 39 H 2.865777 1.944052 -0.361890 0
M  V30 40 H 1.367014 1.438340 -2.256107 0
M  V30 41 H -2.344399 -1.100601 -3.013172 0
M  V30 42 H -3.856266 -2.530661 -1.996262 0
M  V30 43 H -4.580649 -0.992202 -0.518560 0
M  V30 44 H -3.033082 -0.622943 0.218164 0
M  V30 45 H -5.134678 -2.585676 0.970600 0
M  V30 46 H -3.993282 -1.688792 1.964703 0
M  V30 47 H -5.116192 -6.018385 0.183276 0
M  V30 48 H -6.152122 -4.753078 0.811203 0
M  V30 49 H -1.985629 -4.891958 0.600985 0
M  V30 50 H -1.242876 -3.343350 0.971983 0
M  V30 51 H -1.236666 -3.421391 -1.348622 0
M  V30 52 H -2.710110 -4.376663 -1.458567 0
M  V30 END ATOM
M  V30 BEGIN BOND
M  V30 1 1 1 2
M  V30 2 1 2 3
M  V30 3 2 3 4
M  V30 4 1 3 5
M  V30 5 1 5 6
M  V30 6 1 6 7
M  V30 7 2 7 8
M  V30 8 1 8 9
M  V30 9 2 9 10
M  V30 10 1 10 11
M  V30 11 1 10 12
M  V30 12 2 12 13
M  V30 13 1 13 14
M  V30 14 2 5 15
M  V30 15 1 15 16
M  V30 16 2 16 17
M  V30 17 1 17 18
M  V30 18 2 18 19
M  V30 19 1 19 20
M  V30 20 1 20 21
M  V30 21 1 21 22
M  V30 22 1 22 23
M  V30 23 1 23 24
M  V30 24 1 24 25
M  V30 25 1 25 26
M  V30 26 2 25 27
M  V30 27 2 25 28
M  V30 28 1 24 29
M  V30 29 1 29 30
M  V30 30 1 19 31
M  V30 31 2 31 32
M  V30 32 1 32 2
M  V30 33 1 13 7
M  V30 34 1 32 16
M  V30 35 1 30 21
M  V30 36 1 1 33
M  V30 37 1 1 34
M  V30 38 1 1 35
M  V30 39 1 8 36
M  V30 40 1 9 37
M  V30 41 1 12 38
M  V30 42 1 15 39
M  V30 43 1 17 40
M  V30 44 1 20 41
M  V30 45 1 21 42
M  V30 46 1 22 43
M  V30 47 1 22 44
M  V30 48 1 23 45
M  V30 49 1 23 46
M  V30 50 1 26 47
M  V30 51 1 26 48
M  V30 52 1 29 49
M  V30 53 1 29 50
M  V30 54 1 30 51
M  V30 55 1 30 52
M  V30 END BOND
M  V30 END CTAB
M  END
>  <Dataset>  (937) 
ChEMBL_Kinases

>  <Ligand_Instance>  (937) 
nan

>  <PDB_ID>  (937) 
nan

>  <Standardized_SMILES>  (937) 
Cn1c(=O)c(Oc2ccc(F)cc2F)cc2cnc(NC3CCN(S(N)(=O)=O)CC3)nc21

>  <Name>  (937) 
nan

>  <Pocket>  (937) 
nan

>  <ATP_Site>  (937) 
nan

>  <Peripheral>  (937) 
nan

>  <Num_H_Atoms_ProtBoundConf>  (937) 
nan

>  <Num_Resolved_Atoms>  (937) 
nan

>  <Num_Not_Resolved_Atoms>  (937) 
nan

$$$$
CHEMBL3747443
     RDKit          3D

  0  0  0  0  0  0  0  0  0  0999 V3000
M  V30 BEGIN CTAB
M  V30 COUNTS 26 27 0 0 0
M  V30 BEGIN ATOM
M  V30 1 N -0.872995 -1.260186 4.004493 0
M  V30 2 C -0.047059 -2.095594 3.221254 0
M  V30 3 O 0.260323 -3.129293 3.833738 0
M  V30 4 C 0.376041 -1.764280 1.870440 0
M  V30 5 N -0.055511 -0.596033 1.364468 0
M  V30 6 C 0.287403 -0.209252 0.121754 0
M  V30 7 C -0.171423 1.055031 -0.443924 0
M  V30 8 C 0.125899 1.535028 -1.702311 0
M  V30 9 C -0.368083 2.734468 -2.109068 0
M  V30 10 N -1.144764 3.507680 -1.357037 0
M  V30 11 C -1.474120 3.087178 -0.102150 0
M  V30 12 C -0.977880 1.860535 0.333626 0
M  V30 13 C 1.096213 -1.077199 -0.582841 0
M  V30 14 C 1.553724 -2.286505 -0.082973 0
M  V30 15 C 1.184135 -2.656321 1.197566 0
M  V30 16 N 1.629344 -3.887167 1.751625 0
M  V30 17 H -1.882108 -1.471427 3.809711 0
M  V30 18 H -0.185607 -0.680239 4.544839 0
M  V30 19 H 0.755407 0.916456 -2.322004 0
M  V30 20 H -0.116895 3.085642 -3.104241 0
M  V30 21 H -2.108694 3.712388 0.520458 0
M  V30 22 H -1.280337 1.592038 1.338841 0
M  V30 23 H 1.418664 -0.858093 -1.570555 0
M  V30 24 H 2.182917 -2.962005 -0.630712 0
M  V30 25 H 1.570737 -4.746421 1.135564 0
M  V30 26 H 2.020626 -4.143358 2.677587 0
M  V30 END ATOM
M  V30 BEGIN BOND
M  V30 1 1 1 2
M  V30 2 2 2 3
M  V30 3 1 2 4
M  V30 4 2 4 5
M  V30 5 1 5 6
M  V30 6 1 6 7
M  V30 7 2 7 8
M  V30 8 1 8 9
M  V30 9 2 9 10
M  V30 10 1 10 11
M  V30 11 2 11 12
M  V30 12 2 6 13
M  V30 13 1 13 14
M  V30 14 2 14 15
M  V30 15 1 15 16
M  V30 16 1 15 4
M  V30 17 1 12 7
M  V30 18 1 1 17
M  V30 19 1 1 18
M  V30 20 1 8 19
M  V30 21 1 9 20
M  V30 22 1 11 21
M  V30 23 1 12 22
M  V30 24 1 13 23
M  V30 25 1 14 24
M  V30 26 1 16 25
M  V30 27 1 16 26
M  V30 END BOND
M  V30 END CTAB
M  END
>  <Dataset>  (938) 
ChEMBL_Kinases

>  <Ligand_Instance>  (938) 
nan

>  <PDB_ID>  (938) 
nan

>  <Standardized_SMILES>  (938) 
NC(=O)c1nc(-c2ccncc2)ccc1N

>  <Name>  (938) 
nan

>  <Pocket>  (938) 
nan

>  <ATP_Site>  (938) 
nan

>  <Peripheral>  (938) 
nan

>  <Num_H_Atoms_ProtBoundConf>  (938) 
nan

>  <Num_Resolved_Atoms>  (938) 
nan

>  <Num_Not_Resolved_Atoms>  (938) 
nan

$$$$
CHEMBL5093888
     RDKit          3D

  0  0  0  0  0  0  0  0  0  0999 V3000
M  V30 BEGIN CTAB
M  V30 COUNTS 66 70 0 0 0
M  V30 BEGIN ATOM
M  V30 1 C 2.727367 7.827145 -0.110274 0
M  V30 2 O 2.845502 6.723544 0.795431 0
M  V30 3 C 2.354723 5.479445 0.505976 0
M  V30 4 O 1.767202 5.268292 -0.602092 0
M  V30 5 C 2.508484 4.379577 1.484152 0 CFG=2
M  V30 6 C 3.975016 4.104314 1.778114 0
M  V30 7 C 4.732202 3.713989 0.564521 0
M  V30 8 C 4.861701 2.397407 0.158176 0
M  V30 9 C 5.566494 2.017813 -0.973847 0
M  V30 10 C 6.175171 2.990574 -1.744586 0
M  V30 11 C 6.068592 4.321307 -1.370863 0
M  V30 12 C 5.357250 4.660774 -0.235281 0
M  V30 13 N 1.933709 3.142313 1.013953 0
M  V30 14 C 0.919596 2.355552 1.617541 0
M  V30 15 O 0.470668 2.809471 2.708269 0
M  V30 16 C 0.444880 1.125516 1.015456 0
M  V30 17 C 0.911122 0.600430 -0.172664 0
M  V30 18 C 0.440997 -0.575031 -0.725232 0
M  V30 19 C -0.547642 -1.277035 -0.069949 0
M  V30 20 C -1.024179 -0.748220 1.136293 0
M  V30 21 C -0.557683 0.433108 1.699944 0
M  V30 22 C -2.071676 -1.317643 2.009512 0
M  V30 23 O -2.401262 -0.718303 3.058933 0
M  V30 24 C -2.792343 -2.578784 1.745148 0
M  V30 25 C -4.000445 -2.635311 2.436865 0
M  V30 26 C -4.832404 -3.731498 2.329907 0
M  V30 27 C -4.396780 -4.750208 1.507178 0
M  V30 28 N -5.221954 -5.902322 1.364908 0
M  V30 29 C -5.046262 -7.094798 0.605537 0
M  V30 30 C -5.996825 -7.406987 -0.372938 0
M  V30 31 C -5.838434 -8.559152 -1.115162 0
M  V30 32 C -4.770277 -9.408681 -0.918007 0
M  V30 33 F -4.659837 -10.533378 -1.677141 0
M  V30 34 C -3.847248 -9.089016 0.044561 0
M  V30 35 C -3.969226 -7.939699 0.813141 0
M  V30 36 F -3.037820 -7.657062 1.754765 0
M  V30 37 C -3.202330 -4.705553 0.817085 0
M  V30 38 C -2.372606 -3.607745 0.926287 0
M  V30 39 C -1.123411 -3.698736 0.128675 0
M  V30 40 C -0.929373 -2.497505 -0.792018 0
M  V30 41 H 3.573741 8.516282 -0.040093 0
M  V30 42 H 2.712317 7.420161 -1.158110 0
M  V30 43 H 1.742817 8.337201 -0.000946 0
M  V30 44 H 2.066934 4.714916 2.442260 0
M  V30 45 H 3.990950 3.224894 2.453246 0
M  V30 46 H 4.454428 4.954046 2.319011 0
M  V30 47 H 4.375580 1.653635 0.779066 0
M  V30 48 H 5.628401 0.951328 -1.237555 0
M  V30 49 H 6.732208 2.729898 -2.633037 0
M  V30 50 H 6.538742 5.100356 -1.961779 0
M  V30 51 H 5.286982 5.707886 0.038022 0
M  V30 52 H 2.379916 2.869773 0.113285 0
M  V30 53 H 1.680235 1.131444 -0.698026 0
M  V30 54 H 0.847752 -0.934144 -1.660057 0
M  V30 55 H -0.956428 0.793871 2.625375 0
M  V30 56 H -4.265346 -1.791559 3.060891 0
M  V30 57 H -5.766137 -3.790197 2.856250 0
M  V30 58 H -6.135419 -5.988888 1.860360 0
M  V30 59 H -6.844943 -6.753844 -0.545539 0
M  V30 60 H -6.606670 -8.768230 -1.873470 0
M  V30 61 H -2.991472 -9.747939 0.218796 0
M  V30 62 H -2.832299 -5.485261 0.165312 0
M  V30 63 H -0.275323 -3.633216 0.869291 0
M  V30 64 H -1.073900 -4.631132 -0.429886 0
M  V30 65 H -0.180751 -2.746458 -1.544121 0
M  V30 66 H -1.946192 -2.327030 -1.241584 0
M  V30 END ATOM
M  V30 BEGIN BOND
M  V30 1 1 1 2
M  V30 2 1 2 3
M  V30 3 2 3 4
M  V30 4 1 3 5
M  V30 5 1 5 6
M  V30 6 1 6 7
M  V30 7 2 7 8
M  V30 8 1 8 9
M  V30 9 2 9 10
M  V30 10 1 10 11
M  V30 11 2 11 12
M  V30 12 1 5 13
M  V30 13 1 13 14
M  V30 14 2 14 15
M  V30 15 1 14 16
M  V30 16 2 16 17
M  V30 17 1 17 18
M  V30 18 2 18 19
M  V30 19 1 19 20
M  V30 20 2 20 21
M  V30 21 1 20 22
M  V30 22 2 22 23
M  V30 23 1 22 24
M  V30 24 2 24 25
M  V30 25 1 25 26
M  V30 26 2 26 27
M  V30 27 1 27 28
M  V30 28 1 28 29
M  V30 29 2 29 30
M  V30 30 1 30 31
M  V30 31 2 31 32
M  V30 32 1 32 33
M  V30 33 1 32 34
M  V30 34 2 34 35
M  V30 35 1 35 36
M  V30 36 1 27 37
M  V30 37 2 37 38
M  V30 38 1 38 39
M  V30 39 1 39 40
M  V30 40 1 12 7
M  V30 41 1 21 16
M  V30 42 1 38 24
M  V30 43 1 40 19
M  V30 44 1 35 29
M  V30 45 1 1 41
M  V30 46 1 1 42
M  V30 47 1 1 43
M  V30 48 1 5 44 CFG=1
M  V30 49 1 6 45
M  V30 50 1 6 46
M  V30 51 1 8 47
M  V30 52 1 9 48
M  V30 53 1 10 49
M  V30 54 1 11 50
M  V30 55 1 12 51
M  V30 56 1 13 52
M  V30 57 1 17 53
M  V30 58 1 18 54
M  V30 59 1 21 55
M  V30 60 1 25 56
M  V30 61 1 26 57
M  V30 62 1 28 58
M  V30 63 1 30 59
M  V30 64 1 31 60
M  V30 65 1 34 61
M  V30 66 1 37 62
M  V30 67 1 39 63
M  V30 68 1 39 64
M  V30 69 1 40 65
M  V30 70 1 40 66
M  V30 END BOND
M  V30 END CTAB
M  END
>  <Dataset>  (939) 
ChEMBL_Kinases

>  <Ligand_Instance>  (939) 
nan

>  <PDB_ID>  (939) 
nan

>  <Standardized_SMILES>  (939) 
COC(=O)[C@H](Cc1ccccc1)NC(=O)c1ccc2c(c1)C(=O)c1ccc(Nc3ccc(F)cc3F)cc1CC2

>  <Name>  (939) 
nan

>  <Pocket>  (939) 
nan

>  <ATP_Site>  (939) 
nan

>  <Peripheral>  (939) 
nan

>  <Num_H_Atoms_ProtBoundConf>  (939) 
nan

>  <Num_Resolved_Atoms>  (939) 
nan

>  <Num_Not_Resolved_Atoms>  (939) 
nan

$$$$
CHEMBL3747368
     RDKit          3D

  0  0  0  0  0  0  0  0  0  0999 V3000
M  V30 BEGIN CTAB
M  V30 COUNTS 46 48 0 0 0
M  V30 BEGIN ATOM
M  V30 1 N 2.001144 -2.577732 1.129571 0
M  V30 2 C 2.176481 -1.172490 1.185726 0
M  V30 3 O 3.422969 -1.192893 1.177704 0
M  V30 4 C 1.200655 -0.107357 1.234662 0
M  V30 5 C 1.793423 1.130990 1.265574 0
M  V30 6 N 3.138088 1.574757 1.248635 0
M  V30 7 C 4.332288 1.560722 0.476975 0
M  V30 8 C 5.603709 1.097140 0.728368 0
M  V30 9 C 6.538932 1.242871 -0.266864 0
M  V30 10 C 6.299420 1.817398 -1.495065 0
M  V30 11 I 7.866527 1.951195 -2.894949 0
M  V30 12 C 5.030367 2.279430 -1.743948 0
M  V30 13 C 4.041497 2.153395 -0.759933 0
M  V30 14 F 2.857688 2.668398 -1.195289 0
M  V30 15 C 0.964217 2.260324 1.323946 0
M  V30 16 C -0.428476 2.130504 1.349782 0
M  V30 17 F -1.282646 3.178417 1.405903 0
M  V30 18 C -0.889644 0.835773 1.313687 0
M  V30 19 C -0.158171 -0.327226 1.256361 0
M  V30 20 O -0.504036 -1.613409 1.218107 0
M  V30 21 C -1.600209 -2.361913 1.216649 0
M  V30 22 C -1.219735 -3.714247 1.150425 0
M  V30 23 C -2.156271 -4.758727 1.132510 0
M  V30 24 C -3.496386 -4.440111 1.181759 0
M  V30 25 F -4.483900 -5.382413 1.169338 0
M  V30 26 C -3.935557 -3.136549 1.247504 0
M  V30 27 N -5.293869 -2.720399 1.301157 0
M  V30 28 S -5.791875 -1.073017 1.385936 0
M  V30 29 N -5.286501 -0.168556 0.003084 0
M  V30 30 O -7.295880 -1.062263 1.466526 0
M  V30 31 O -5.264546 -0.416254 2.645636 0
M  V30 32 C -2.961010 -2.180017 1.260837 0
M  V30 33 H 1.520409 -2.825211 2.032795 0
M  V30 34 H 2.218196 -3.334544 0.465297 0
M  V30 35 H 3.493751 2.130838 2.060352 0
M  V30 36 H 5.665698 0.677703 1.702636 0
M  V30 37 H 7.527712 0.848435 0.010816 0
M  V30 38 H 4.890816 2.720967 -2.718229 0
M  V30 39 H 1.277017 3.318072 1.354823 0
M  V30 40 H -1.962484 0.733847 1.333114 0
M  V30 41 H -0.228756 -4.198132 1.103630 0
M  V30 42 H -1.982348 -5.805644 1.084411 0
M  V30 43 H -5.982427 -3.525102 1.284056 0
M  V30 44 H -4.694426 -0.805843 -0.578172 0
M  V30 45 H -4.825303 0.693642 0.320570 0
M  V30 46 H -3.248252 -1.151238 1.311489 0
M  V30 END ATOM
M  V30 BEGIN BOND
M  V30 1 1 1 2
M  V30 2 2 2 3
M  V30 3 1 2 4
M  V30 4 2 4 5
M  V30 5 1 5 6
M  V30 6 1 6 7
M  V30 7 2 7 8
M  V30 8 1 8 9
M  V30 9 2 9 10
M  V30 10 1 10 11
M  V30 11 1 10 12
M  V30 12 2 12 13
M  V30 13 1 13 14
M  V30 14 1 5 15
M  V30 15 2 15 16
M  V30 16 1 16 17
M  V30 17 1 16 18
M  V30 18 2 18 19
M  V30 19 1 19 20
M  V30 20 1 20 21
M  V30 21 2 21 22
M  V30 22 1 22 23
M  V30 23 2 23 24
M  V30 24 1 24 25
M  V30 25 1 24 26
M  V30 26 1 26 27
M  V30 27 1 27 28
M  V30 28 1 28 29
M  V30 29 2 28 30
M  V30 30 2 28 31
M  V30 31 2 26 32
M  V30 32 1 19 4
M  V30 33 1 32 21
M  V30 34 1 13 7
M  V30 35 1 1 33
M  V30 36 1 1 34
M  V30 37 1 6 35
M  V30 38 1 8 36
M  V30 39 1 9 37
M  V30 40 1 12 38
M  V30 41 1 15 39
M  V30 42 1 18 40
M  V30 43 1 22 41
M  V30 44 1 23 42
M  V30 45 1 27 43
M  V30 46 1 29 44
M  V30 47 1 29 45
M  V30 48 1 32 46
M  V30 END BOND
M  V30 END CTAB
M  END
>  <Dataset>  (940) 
ChEMBL_Kinases

>  <Ligand_Instance>  (940) 
nan

>  <PDB_ID>  (940) 
nan

>  <Standardized_SMILES>  (940) 
NC(=O)c1c(Nc2ccc(I)cc2F)cc(F)cc1Oc1ccc(F)c(NS(N)(=O)=O)c1

>  <Name>  (940) 
nan

>  <Pocket>  (940) 
nan

>  <ATP_Site>  (940) 
nan

>  <Peripheral>  (940) 
nan

>  <Num_H_Atoms_ProtBoundConf>  (940) 
nan

>  <Num_Resolved_Atoms>  (940) 
nan

>  <Num_Not_Resolved_Atoms>  (940) 
nan

$$$$
CHEMBL3747359
     RDKit          3D

  0  0  0  0  0  0  0  0  0  0999 V3000
M  V30 BEGIN CTAB
M  V30 COUNTS 46 48 0 0 0
M  V30 BEGIN ATOM
M  V30 1 N 1.420271 -2.620613 1.875710 0
M  V30 2 C 1.744828 -1.257745 1.893991 0
M  V30 3 O 2.644878 -1.803038 1.256909 0
M  V30 4 C 1.482781 0.103052 2.271595 0
M  V30 5 C 2.407040 1.021084 1.880216 0
M  V30 6 N 3.591796 0.861283 1.133722 0
M  V30 7 C 4.079936 0.432857 -0.127176 0
M  V30 8 C 4.969719 -0.542956 -0.514555 0
M  V30 9 C 5.219843 -0.696017 -1.856734 0
M  V30 10 C 4.645697 0.054429 -2.834615 0
M  V30 11 I 5.211950 -0.396722 -4.811644 0
M  V30 12 C 3.751578 1.038047 -2.474752 0
M  V30 13 C 3.475077 1.219609 -1.116889 0
M  V30 14 F 2.567571 2.236820 -0.940646 0
M  V30 15 C 2.177642 2.327517 2.252337 0
M  V30 16 C 1.059189 2.657301 2.983719 0
M  V30 17 F 0.847785 3.952109 3.343427 0
M  V30 18 C 0.173696 1.669621 3.338563 0
M  V30 19 C 0.354366 0.326190 2.988980 0
M  V30 20 O -0.646862 -0.476334 3.445627 0
M  V30 21 C -1.491104 -1.235739 2.670114 0
M  V30 22 C -1.716361 -2.596212 2.690406 0
M  V30 23 C -2.587108 -3.273377 1.868436 0
M  V30 24 C -3.293877 -2.530396 0.947610 0
M  V30 25 C -3.125029 -1.164530 0.864697 0
M  V30 26 N -3.907186 -0.507756 -0.121486 0
M  V30 27 S -5.006239 -1.320436 -1.167157 0
M  V30 28 N -6.235640 -2.081157 -0.261671 0
M  V30 29 O -5.494935 -0.396304 -2.224183 0
M  V30 30 O -4.245525 -2.418923 -1.894472 0
M  V30 31 C -2.228357 -0.516793 1.720621 0
M  V30 32 Cl -2.160500 1.209944 1.453800 0
M  V30 33 H 1.104216 -3.291585 2.631933 0
M  V30 34 H 1.102750 -3.304448 2.623977 0
M  V30 35 H 4.487447 1.121914 1.571849 0
M  V30 36 H 5.349041 -1.060057 0.350014 0
M  V30 37 H 5.942353 -1.499339 -2.060656 0
M  V30 38 H 3.324685 1.603645 -3.279587 0
M  V30 39 H 2.849287 3.154176 1.996907 0
M  V30 40 H -0.677464 2.023518 3.915480 0
M  V30 41 H -1.139513 -3.125497 3.433288 0
M  V30 42 H -2.651448 -4.329184 2.005051 0
M  V30 43 H -3.968338 -3.107332 0.321418 0
M  V30 44 H -3.803082 0.535405 -0.211604 0
M  V30 45 H -6.106772 -2.100523 0.756149 0
M  V30 46 H -6.611789 -2.941977 -0.700820 0
M  V30 END ATOM
M  V30 BEGIN BOND
M  V30 1 1 1 2
M  V30 2 2 2 3
M  V30 3 1 2 4
M  V30 4 2 4 5
M  V30 5 1 5 6
M  V30 6 1 6 7
M  V30 7 2 7 8
M  V30 8 1 8 9
M  V30 9 2 9 10
M  V30 10 1 10 11
M  V30 11 1 10 12
M  V30 12 2 12 13
M  V30 13 1 13 14
M  V30 14 1 5 15
M  V30 15 2 15 16
M  V30 16 1 16 17
M  V30 17 1 16 18
M  V30 18 2 18 19
M  V30 19 1 19 20
M  V30 20 1 20 21
M  V30 21 2 21 22
M  V30 22 1 22 23
M  V30 23 2 23 24
M  V30 24 1 24 25
M  V30 25 1 25 26
M  V30 26 1 26 27
M  V30 27 1 27 28
M  V30 28 2 27 29
M  V30 29 2 27 30
M  V30 30 2 25 31
M  V30 31 1 31 32
M  V30 32 1 19 4
M  V30 33 1 31 21
M  V30 34 1 13 7
M  V30 35 1 1 33
M  V30 36 1 1 34
M  V30 37 1 6 35
M  V30 38 1 8 36
M  V30 39 1 9 37
M  V30 40 1 12 38
M  V30 41 1 15 39
M  V30 42 1 18 40
M  V30 43 1 22 41
M  V30 44 1 23 42
M  V30 45 1 24 43
M  V30 46 1 26 44
M  V30 47 1 28 45
M  V30 48 1 28 46
M  V30 END BOND
M  V30 END CTAB
M  END
>  <Dataset>  (941) 
ChEMBL_Kinases

>  <Ligand_Instance>  (941) 
nan

>  <PDB_ID>  (941) 
nan

>  <Standardized_SMILES>  (941) 
NC(=O)c1c(Nc2ccc(I)cc2F)cc(F)cc1Oc1cccc(NS(N)(=O)=O)c1Cl

>  <Name>  (941) 
nan

>  <Pocket>  (941) 
nan

>  <ATP_Site>  (941) 
nan

>  <Peripheral>  (941) 
nan

>  <Num_H_Atoms_ProtBoundConf>  (941) 
nan

>  <Num_Resolved_Atoms>  (941) 
nan

>  <Num_Not_Resolved_Atoms>  (941) 
nan

$$$$
CHEMBL3747351
     RDKit          3D

  0  0  0  0  0  0  0  0  0  0999 V3000
M  V30 BEGIN CTAB
M  V30 COUNTS 46 49 0 0 0
M  V30 BEGIN ATOM
M  V30 1 C 1.924957 -3.254470 3.498009 0
M  V30 2 N 1.988454 -2.236365 2.468157 0
M  V30 3 C 3.218220 -1.859957 2.059243 0
M  V30 4 O 4.289020 -2.344184 2.523309 0
M  V30 5 C 3.307691 -0.892168 1.079640 0
M  V30 6 O 4.570537 -0.496436 0.650505 0
M  V30 7 C 4.737923 0.468872 -0.327685 0
M  V30 8 C 4.814784 0.204609 -1.695671 0
M  V30 9 Cl 4.687345 -1.471242 -2.175273 0
M  V30 10 C 4.984817 1.257425 -2.595069 0
M  V30 11 C 5.081889 2.572427 -2.181416 0
M  V30 12 C 5.003276 2.809282 -0.826315 0
M  V30 13 C 4.835547 1.789617 0.085854 0
M  V30 14 Cl 4.751963 2.229939 1.769044 0
M  V30 15 C 2.201484 -0.299458 0.506791 0
M  V30 16 C 0.966270 -0.717983 0.958380 0
M  V30 17 C -0.200893 -0.186479 0.448963 0
M  V30 18 N -1.379057 -0.629327 0.923960 0
M  V30 19 C -1.503816 -1.570571 1.877584 0
M  V30 20 N -2.781414 -2.002934 2.344300 0
M  V30 21 C -3.964936 -1.400993 1.765752 0
M  V30 22 C -4.040376 0.069676 1.968184 0
M  V30 23 C -4.724042 0.814256 0.843945 0
M  V30 24 O -4.308082 0.334393 -0.419544 0
M  V30 25 C -4.937216 -0.928572 -0.515755 0
M  V30 26 C -4.124951 -1.851855 0.351387 0
M  V30 27 N -0.354087 -2.076376 2.361447 0
M  V30 28 C 0.866665 -1.691893 1.944413 0
M  V30 29 H 2.352463 -2.901927 4.460016 0
M  V30 30 H 0.896440 -3.651437 3.627680 0
M  V30 31 H 2.572463 -4.084633 3.136235 0
M  V30 32 H 5.031350 0.933039 -3.637738 0
M  V30 33 H 5.213420 3.335625 -2.944781 0
M  V30 34 H 5.086984 3.868916 -0.566011 0
M  V30 35 H 2.249472 0.458677 -0.260046 0
M  V30 36 H -0.198646 0.560550 -0.305717 0
M  V30 37 H -2.789300 -2.741173 3.089089 0
M  V30 38 H -4.827921 -1.865646 2.328975 0
M  V30 39 H -3.057917 0.529832 2.142624 0
M  V30 40 H -4.633620 0.299789 2.896177 0
M  V30 41 H -4.544159 1.903680 0.897507 0
M  V30 42 H -5.830998 0.682282 0.857252 0
M  V30 43 H -5.980676 -0.899132 -0.123611 0
M  V30 44 H -4.893853 -1.300366 -1.552130 0
M  V30 45 H -3.105191 -1.937076 -0.125360 0
M  V30 46 H -4.563984 -2.876702 0.275603 0
M  V30 END ATOM
M  V30 BEGIN BOND
M  V30 1 1 1 2
M  V30 2 1 2 3
M  V30 3 2 3 4
M  V30 4 1 3 5
M  V30 5 1 5 6
M  V30 6 1 6 7
M  V30 7 2 7 8
M  V30 8 1 8 9
M  V30 9 1 8 10
M  V30 10 2 10 11
M  V30 11 1 11 12
M  V30 12 2 12 13
M  V30 13 1 13 14
M  V30 14 2 5 15
M  V30 15 1 15 16
M  V30 16 2 16 17
M  V30 17 1 17 18
M  V30 18 2 18 19
M  V30 19 1 19 20
M  V30 20 1 20 21
M  V30 21 1 21 22
M  V30 22 1 22 23
M  V30 23 1 23 24
M  V30 24 1 24 25
M  V30 25 1 25 26
M  V30 26 1 19 27
M  V30 27 2 27 28
M  V30 28 1 28 2
M  V30 29 1 13 7
M  V30 30 1 28 16
M  V30 31 1 26 21
M  V30 32 1 1 29
M  V30 33 1 1 30
M  V30 34 1 1 31
M  V30 35 1 10 32
M  V30 36 1 11 33
M  V30 37 1 12 34
M  V30 38 1 15 35
M  V30 39 1 17 36
M  V30 40 1 20 37
M  V30 41 1 21 38
M  V30 42 1 22 39
M  V30 43 1 22 40
M  V30 44 1 23 41
M  V30 45 1 23 42
M  V30 46 1 25 43
M  V30 47 1 25 44
M  V30 48 1 26 45
M  V30 49 1 26 46
M  V30 END BOND
M  V30 END CTAB
M  END
>  <Dataset>  (942) 
ChEMBL_Kinases

>  <Ligand_Instance>  (942) 
nan

>  <PDB_ID>  (942) 
nan

>  <Standardized_SMILES>  (942) 
Cn1c(=O)c(Oc2c(Cl)cccc2Cl)cc2cnc(NC3CCOCC3)nc21

>  <Name>  (942) 
nan

>  <Pocket>  (942) 
nan

>  <ATP_Site>  (942) 
nan

>  <Peripheral>  (942) 
nan

>  <Num_H_Atoms_ProtBoundConf>  (942) 
nan

>  <Num_Resolved_Atoms>  (942) 
nan

>  <Num_Not_Resolved_Atoms>  (942) 
nan

$$$$
CHEMBL3747305
     RDKit          3D

  0  0  0  0  0  0  0  0  0  0999 V3000
M  V30 BEGIN CTAB
M  V30 COUNTS 52 55 0 0 0
M  V30 BEGIN ATOM
M  V30 1 C 2.039613 -5.324888 4.280777 0
M  V30 2 O 1.467815 -5.838637 3.095164 0
M  V30 3 C 1.070308 -4.917539 2.135094 0
M  V30 4 C 1.249309 -3.562753 2.379342 0
M  V30 5 C 0.883898 -2.578912 1.482215 0
M  V30 6 C 0.316747 -3.005501 0.297437 0
M  V30 7 C -0.122375 -2.071169 -0.754340 0
M  V30 8 N -0.004935 -0.738944 -0.641480 0
M  V30 9 C -0.472576 -0.095081 -1.723927 0
M  V30 10 C -0.537528 1.249474 -2.023510 0
M  V30 11 N -0.122969 2.297436 -1.203236 0
M  V30 12 C 0.414995 2.371366 0.106677 0
M  V30 13 C -0.498249 2.077971 1.240018 0
M  V30 14 C 0.273310 2.211057 2.543853 0
M  V30 15 C 0.830099 3.603106 2.684526 0
M  V30 16 N -0.020485 4.636473 2.216683 0
M  V30 17 C -1.387514 4.296847 2.053183 0
M  V30 18 C -1.670969 3.023002 1.334595 0
M  V30 19 C -1.093717 1.477523 -3.272171 0
M  V30 20 Cl -1.269691 3.121117 -3.852009 0
M  V30 21 C -1.522889 0.479527 -4.097633 0
M  V30 22 N -1.421777 -0.806495 -3.724700 0
M  V30 23 C -0.896320 -1.125108 -2.533895 0
M  V30 24 N -0.685954 -2.317239 -1.950414 0
M  V30 25 C 0.129873 -4.337709 0.033713 0
M  V30 26 C 0.494677 -5.322437 0.929616 0
M  V30 27 O 0.357619 -6.691103 0.777810 0
M  V30 28 C -0.219588 -7.169111 -0.423355 0
M  V30 29 H 2.311574 -6.126136 4.996741 0
M  V30 30 H 2.981872 -4.761983 4.083134 0
M  V30 31 H 1.360083 -4.631510 4.826373 0
M  V30 32 H 1.696601 -3.183795 3.309206 0
M  V30 33 H 1.018658 -1.523728 1.662354 0
M  V30 34 H -0.231384 3.263376 -1.647484 0
M  V30 35 H 0.885393 3.362559 0.298727 0
M  V30 36 H 1.295555 1.661578 0.244605 0
M  V30 37 H -0.881891 1.050733 1.204313 0
M  V30 38 H 1.118261 1.487649 2.538223 0
M  V30 39 H -0.422303 2.001760 3.384534 0
M  V30 40 H 1.804147 3.632322 2.147970 0
M  V30 41 H 1.072088 3.742491 3.768504 0
M  V30 42 H 0.373602 5.329271 1.576450 0
M  V30 43 H -1.893353 4.370466 3.046796 0
M  V30 44 H -1.855616 5.120885 1.452447 0
M  V30 45 H -2.463254 2.495911 1.917818 0
M  V30 46 H -2.126630 3.180080 0.322698 0
M  V30 47 H -1.951533 0.699175 -5.064767 0
M  V30 48 H -0.894538 -3.268932 -2.301231 0
M  V30 49 H -0.308052 -4.683888 -0.879326 0
M  V30 50 H -1.345576 -7.198487 -0.374624 0
M  V30 51 H 0.092162 -8.235161 -0.601856 0
M  V30 52 H 0.147748 -6.623453 -1.317950 0
M  V30 END ATOM
M  V30 BEGIN BOND
M  V30 1 1 1 2
M  V30 2 1 2 3
M  V30 3 2 3 4
M  V30 4 1 4 5
M  V30 5 2 5 6
M  V30 6 1 6 7
M  V30 7 2 7 8
M  V30 8 1 8 9
M  V30 9 2 9 10
M  V30 10 1 10 11
M  V30 11 1 11 12
M  V30 12 1 12 13
M  V30 13 1 13 14
M  V30 14 1 14 15
M  V30 15 1 15 16
M  V30 16 1 16 17
M  V30 17 1 17 18
M  V30 18 1 10 19
M  V30 19 1 19 20
M  V30 20 2 19 21
M  V30 21 1 21 22
M  V30 22 2 22 23
M  V30 23 1 23 24
M  V30 24 1 6 25
M  V30 25 2 25 26
M  V30 26 1 26 27
M  V30 27 1 27 28
M  V30 28 1 26 3
M  V30 29 1 24 7
M  V30 30 1 23 9
M  V30 31 1 18 13
M  V30 32 1 1 29
M  V30 33 1 1 30
M  V30 34 1 1 31
M  V30 35 1 4 32
M  V30 36 1 5 33
M  V30 37 1 11 34
M  V30 38 1 12 35
M  V30 39 1 12 36
M  V30 40 1 13 37
M  V30 41 1 14 38
M  V30 42 1 14 39
M  V30 43 1 15 40
M  V30 44 1 15 41
M  V30 45 1 16 42
M  V30 46 1 17 43
M  V30 47 1 17 44
M  V30 48 1 18 45
M  V30 49 1 18 46
M  V30 50 1 21 47
M  V30 51 1 24 48
M  V30 52 1 25 49
M  V30 53 1 28 50
M  V30 54 1 28 51
M  V30 55 1 28 52
M  V30 END BOND
M  V30 END CTAB
M  END
>  <Dataset>  (943) 
ChEMBL_Kinases

>  <Ligand_Instance>  (943) 
nan

>  <PDB_ID>  (943) 
nan

>  <Standardized_SMILES>  (943) 
COc1ccc(-c2nc3c(NCC4CCNCC4)c(Cl)cnc3[nH]2)cc1OC

>  <Name>  (943) 
nan

>  <Pocket>  (943) 
nan

>  <ATP_Site>  (943) 
nan

>  <Peripheral>  (943) 
nan

>  <Num_H_Atoms_ProtBoundConf>  (943) 
nan

>  <Num_Resolved_Atoms>  (943) 
nan

>  <Num_Not_Resolved_Atoms>  (943) 
nan

$$$$
CHEMBL5093192
     RDKit          3D

  0  0  0  0  0  0  0  0  0  0999 V3000
M  V30 BEGIN CTAB
M  V30 COUNTS 30 32 0 0 0
M  V30 BEGIN ATOM
M  V30 1 C -0.966885 -2.966096 0.710469 0
M  V30 2 N -0.761706 -1.564956 1.015631 0
M  V30 3 C 0.327038 -0.847143 0.657614 0
M  V30 4 C 1.494826 -1.273678 -0.078594 0
M  V30 5 C 2.155260 -2.458065 0.184207 0
M  V30 6 C 3.265949 -2.895373 -0.493225 0
M  V30 7 C 3.778913 -2.132709 -1.500707 0
M  V30 8 C 3.163189 -0.937936 -1.810932 0
M  V30 9 F 3.658743 -0.178642 -2.800430 0
M  V30 10 C 2.048270 -0.533535 -1.106023 0
M  V30 11 F 1.494505 0.650293 -1.463724 0
M  V30 12 C 0.076097 0.418857 1.161515 0
M  V30 13 C 0.920596 1.587360 1.063898 0
M  V30 14 N 1.606972 2.523274 1.003900 0
M  V30 15 C -1.139699 0.474202 1.813568 0
M  V30 16 C -1.842352 1.463706 2.472283 0
M  V30 17 N -1.279207 2.767321 2.561556 0
M  V30 18 N -3.050361 1.146554 3.010611 0
M  V30 19 C -3.540153 -0.117482 2.894632 0
M  V30 20 N -2.851101 -1.098557 2.245508 0
M  V30 21 C -1.652213 -0.803583 1.705421 0
M  V30 22 H -0.485675 -3.657232 1.426512 0
M  V30 23 H -0.758902 -3.211902 -0.362798 0
M  V30 24 H -2.065859 -3.218752 0.802307 0
M  V30 25 H 1.807045 -3.115237 0.968526 0
M  V30 26 H 3.763393 -3.836934 -0.259655 0
M  V30 27 H 4.654578 -2.423526 -2.073642 0
M  V30 28 H -1.058081 2.988709 3.575063 0
M  V30 29 H -1.038814 3.530257 1.904269 0
M  V30 30 H -4.521490 -0.296336 3.355145 0
M  V30 END ATOM
M  V30 BEGIN BOND
M  V30 1 1 1 2
M  V30 2 1 2 3
M  V30 3 1 3 4
M  V30 4 2 4 5
M  V30 5 1 5 6
M  V30 6 2 6 7
M  V30 7 1 7 8
M  V30 8 1 8 9
M  V30 9 2 8 10
M  V30 10 1 10 11
M  V30 11 2 3 12
M  V30 12 1 12 13
M  V30 13 3 13 14
M  V30 14 1 12 15
M  V30 15 2 15 16
M  V30 16 1 16 17
M  V30 17 1 16 18
M  V30 18 2 18 19
M  V30 19 1 19 20
M  V30 20 2 20 21
M  V30 21 1 21 2
M  V30 22 1 10 4
M  V30 23 1 21 15
M  V30 24 1 1 22
M  V30 25 1 1 23
M  V30 26 1 1 24
M  V30 27 1 5 25
M  V30 28 1 6 26
M  V30 29 1 7 27
M  V30 30 1 17 28
M  V30 31 1 17 29
M  V30 32 1 19 30
M  V30 END BOND
M  V30 END CTAB
M  END
>  <Dataset>  (944) 
ChEMBL_Kinases

>  <Ligand_Instance>  (944) 
nan

>  <PDB_ID>  (944) 
nan

>  <Standardized_SMILES>  (944) 
Cn1c(-c2cccc(F)c2F)c(C#N)c2c(N)ncnc21

>  <Name>  (944) 
nan

>  <Pocket>  (944) 
nan

>  <ATP_Site>  (944) 
nan

>  <Peripheral>  (944) 
nan

>  <Num_H_Atoms_ProtBoundConf>  (944) 
nan

>  <Num_Resolved_Atoms>  (944) 
nan

>  <Num_Not_Resolved_Atoms>  (944) 
nan

$$$$
CHEMBL3747294
     RDKit          3D

  0  0  0  0  0  0  0  0  0  0999 V3000
M  V30 BEGIN CTAB
M  V30 COUNTS 52 54 0 0 0
M  V30 BEGIN ATOM
M  V30 1 C 1.415969 -2.682052 1.527989 0
M  V30 2 N 2.079209 -1.431091 1.644095 0
M  V30 3 C 2.014995 -0.773135 2.896940 0
M  V30 4 S 3.541443 -1.290508 0.803095 0
M  V30 5 O 4.518186 -0.442839 1.554297 0
M  V30 6 O 4.138928 -2.682577 0.673207 0
M  V30 7 N 3.378892 -0.706714 -0.800484 0
M  V30 8 C 2.856119 0.565422 -1.177420 0
M  V30 9 C 3.388037 1.430613 -2.108478 0
M  V30 10 C 2.757612 2.628579 -2.358258 0
M  V30 11 C 1.593735 2.935333 -1.659956 0
M  V30 12 C 1.044104 2.070607 -0.715708 0
M  V30 13 O -0.099116 2.633157 -0.185355 0
M  V30 14 C -0.891857 1.924872 0.685401 0
M  V30 15 C -0.972032 2.446396 1.958545 0
M  V30 16 C -1.738586 1.819126 2.918187 0
M  V30 17 F -1.785748 2.376561 4.167084 0
M  V30 18 C -2.423013 0.657432 2.574126 0
M  V30 19 F -3.141366 0.157503 3.597641 0
M  V30 20 C -2.360723 0.109097 1.298994 0
M  V30 21 N -3.112003 -1.063215 1.181919 0
M  V30 22 C -2.928111 -2.468887 1.211312 0
M  V30 23 C -3.288701 -3.277917 0.145455 0
M  V30 24 C -3.141560 -4.631051 0.072345 0
M  V30 25 C -2.578317 -5.241953 1.171940 0
M  V30 26 I -2.316089 -7.336684 1.134676 0
M  V30 27 C -2.182660 -4.534936 2.287411 0
M  V30 28 C -2.377522 -3.171298 2.254469 0
M  V30 29 F -1.967322 -2.531534 3.368501 0
M  V30 30 C -1.584778 0.784042 0.402144 0
M  V30 31 C -1.557279 0.238247 -0.938417 0
M  V30 32 N -0.996966 0.515280 -2.192836 0
M  V30 33 O -2.093321 -0.767232 -1.442460 0
M  V30 34 C 1.706623 0.859593 -0.482415 0
M  V30 35 H 2.193086 -3.482021 1.500053 0
M  V30 36 H 0.782570 -2.808513 0.629696 0
M  V30 37 H 0.830717 -2.843682 2.470605 0
M  V30 38 H 1.165268 -1.188735 3.488116 0
M  V30 39 H 2.939929 -1.026818 3.465146 0
M  V30 40 H 1.922413 0.329346 2.844685 0
M  V30 41 H 3.643877 -1.218700 -1.658043 0
M  V30 42 H 4.290861 1.062404 -2.570863 0
M  V30 43 H 3.227044 3.246100 -3.091046 0
M  V30 44 H 1.215185 3.917782 -1.970070 0
M  V30 45 H -0.437964 3.359431 2.241682 0
M  V30 46 H -4.145061 -0.870928 1.020197 0
M  V30 47 H -3.745407 -2.835029 -0.754911 0
M  V30 48 H -3.438713 -5.215086 -0.781441 0
M  V30 49 H -1.750630 -5.057028 3.115055 0
M  V30 50 H -1.306895 1.078522 -3.029985 0
M  V30 51 H -0.091223 0.241116 -2.669254 0
M  V30 52 H 1.172501 0.297061 0.266084 0
M  V30 END ATOM
M  V30 BEGIN BOND
M  V30 1 1 1 2
M  V30 2 1 2 3
M  V30 3 1 2 4
M  V30 4 2 4 5
M  V30 5 2 4 6
M  V30 6 1 4 7
M  V30 7 1 7 8
M  V30 8 2 8 9
M  V30 9 1 9 10
M  V30 10 2 10 11
M  V30 11 1 11 12
M  V30 12 1 12 13
M  V30 13 1 13 14
M  V30 14 2 14 15
M  V30 15 1 15 16
M  V30 16 1 16 17
M  V30 17 2 16 18
M  V30 18 1 18 19
M  V30 19 1 18 20
M  V30 20 1 20 21
M  V30 21 1 21 22
M  V30 22 2 22 23
M  V30 23 1 23 24
M  V30 24 2 24 25
M  V30 25 1 25 26
M  V30 26 1 25 27
M  V30 27 2 27 28
M  V30 28 1 28 29
M  V30 29 2 20 30
M  V30 30 1 30 31
M  V30 31 1 31 32
M  V30 32 2 31 33
M  V30 33 2 12 34
M  V30 34 1 34 8
M  V30 35 1 30 14
M  V30 36 1 28 22
M  V30 37 1 1 35
M  V30 38 1 1 36
M  V30 39 1 1 37
M  V30 40 1 3 38
M  V30 41 1 3 39
M  V30 42 1 3 40
M  V30 43 1 7 41
M  V30 44 1 9 42
M  V30 45 1 10 43
M  V30 46 1 11 44
M  V30 47 1 15 45
M  V30 48 1 21 46
M  V30 49 1 23 47
M  V30 50 1 24 48
M  V30 51 1 27 49
M  V30 52 1 32 50
M  V30 53 1 32 51
M  V30 54 1 34 52
M  V30 END BOND
M  V30 END CTAB
M  END
>  <Dataset>  (945) 
ChEMBL_Kinases

>  <Ligand_Instance>  (945) 
nan

>  <PDB_ID>  (945) 
nan

>  <Standardized_SMILES>  (945) 
CN(C)S(=O)(=O)Nc1cccc(Oc2cc(F)c(F)c(Nc3ccc(I)cc3F)c2C(N)=O)c1

>  <Name>  (945) 
nan

>  <Pocket>  (945) 
nan

>  <ATP_Site>  (945) 
nan

>  <Peripheral>  (945) 
nan

>  <Num_H_Atoms_ProtBoundConf>  (945) 
nan

>  <Num_Resolved_Atoms>  (945) 
nan

>  <Num_Not_Resolved_Atoms>  (945) 
nan

$$$$
CHEMBL5093245
     RDKit          3D

  0  0  0  0  0  0  0  0  0  0999 V3000
M  V30 BEGIN CTAB
M  V30 COUNTS 49 52 0 0 0
M  V30 BEGIN ATOM
M  V30 1 C 3.001834 -4.270218 1.895154 0
M  V30 2 N 3.889372 -3.908191 0.827778 0
M  V30 3 C 4.881887 -4.972320 0.673840 0
M  V30 4 C 3.976391 -2.793883 -0.032266 0
M  V30 5 O 4.946505 -2.945417 -0.829225 0
M  V30 6 C 3.299480 -1.546747 -0.274558 0
M  V30 7 C 3.757324 -0.769639 -1.314224 0
M  V30 8 N 4.837987 -1.110644 -2.163747 0
M  V30 9 C 3.170600 0.461136 -1.627125 0
M  V30 10 C 2.109611 0.898701 -0.871787 0
M  V30 11 C 1.597892 0.175436 0.182997 0
M  V30 12 C 0.470349 0.653147 0.976401 0
M  V30 13 C 0.701418 1.429045 2.095320 0
M  V30 14 N -0.324912 1.879998 2.841200 0
M  V30 15 C -1.597444 1.552773 2.466077 0
M  V30 16 C -1.949424 0.774120 1.353103 0
M  V30 17 C -0.837372 0.357219 0.650061 0
M  V30 18 Cl -1.116840 -0.626512 -0.771116 0
M  V30 19 C -3.405826 0.663547 1.310579 0
M  V30 20 C -4.081576 1.766946 0.505667 0
M  V30 21 C -5.507130 1.261311 0.469022 0
M  V30 22 C -5.440865 -0.246736 0.607176 0
M  V30 23 C -3.971746 -0.595774 0.774106 0
M  V30 24 C -3.784929 0.932420 2.755227 0
M  V30 25 N -2.800877 1.934884 3.124851 0
M  V30 26 C 2.235736 -1.020446 0.418292 0
M  V30 27 F 1.719659 -1.700945 1.455416 0
M  V30 28 H 3.154104 -5.318691 2.243932 0
M  V30 29 H 3.027597 -3.566007 2.755138 0
M  V30 30 H 1.947341 -4.292197 1.499226 0
M  V30 31 H 5.517256 -4.795647 -0.205250 0
M  V30 32 H 5.478750 -4.986987 1.585942 0
M  V30 33 H 4.329146 -5.921982 0.470558 0
M  V30 34 H 5.880874 -1.161293 -2.018736 0
M  V30 35 H 4.934849 -1.408874 -3.167362 0
M  V30 36 H 3.514654 1.069753 -2.426648 0
M  V30 37 H 1.663901 1.850649 -1.122180 0
M  V30 38 H 1.727934 1.657832 2.346345 0
M  V30 39 H -3.642699 1.889082 -0.487615 0
M  V30 40 H -3.998637 2.705722 1.097332 0
M  V30 41 H -6.066723 1.713360 1.319910 0
M  V30 42 H -6.031055 1.590821 -0.454916 0
M  V30 43 H -6.040391 -0.583483 1.464191 0
M  V30 44 H -5.842687 -0.669023 -0.339616 0
M  V30 45 H -3.592497 -0.783048 -0.229474 0
M  V30 46 H -3.799956 -1.472335 1.402812 0
M  V30 47 H -3.600023 0.050468 3.402135 0
M  V30 48 H -4.790613 1.331983 2.866710 0
M  V30 49 H -2.955330 2.759237 3.744948 0
M  V30 END ATOM
M  V30 BEGIN BOND
M  V30 1 1 1 2
M  V30 2 1 2 3
M  V30 3 1 2 4
M  V30 4 2 4 5
M  V30 5 1 4 6
M  V30 6 2 6 7
M  V30 7 1 7 8
M  V30 8 1 7 9
M  V30 9 2 9 10
M  V30 10 1 10 11
M  V30 11 1 11 12
M  V30 12 2 12 13
M  V30 13 1 13 14
M  V30 14 2 14 15
M  V30 15 1 15 16
M  V30 16 2 16 17
M  V30 17 1 17 18
M  V30 18 1 16 19
M  V30 19 1 19 20
M  V30 20 1 20 21
M  V30 21 1 21 22
M  V30 22 1 22 23
M  V30 23 1 19 24
M  V30 24 1 24 25
M  V30 25 2 11 26
M  V30 26 1 26 27
M  V30 27 1 26 6
M  V30 28 1 17 12
M  V30 29 1 23 19
M  V30 30 1 25 15
M  V30 31 1 1 28
M  V30 32 1 1 29
M  V30 33 1 1 30
M  V30 34 1 3 31
M  V30 35 1 3 32
M  V30 36 1 3 33
M  V30 37 1 8 34
M  V30 38 1 8 35
M  V30 39 1 9 36
M  V30 40 1 10 37
M  V30 41 1 13 38
M  V30 42 1 20 39
M  V30 43 1 20 40
M  V30 44 1 21 41
M  V30 45 1 21 42
M  V30 46 1 22 43
M  V30 47 1 22 44
M  V30 48 1 23 45
M  V30 49 1 23 46
M  V30 50 1 24 47
M  V30 51 1 24 48
M  V30 52 1 25 49
M  V30 END BOND
M  V30 END CTAB
M  END
>  <Dataset>  (946) 
ChEMBL_Kinases

>  <Ligand_Instance>  (946) 
nan

>  <PDB_ID>  (946) 
nan

>  <Standardized_SMILES>  (946) 
CN(C)C(=O)c1c(N)ccc(-c2cnc3c(c2Cl)C2(CCCC2)CN3)c1F

>  <Name>  (946) 
nan

>  <Pocket>  (946) 
nan

>  <ATP_Site>  (946) 
nan

>  <Peripheral>  (946) 
nan

>  <Num_H_Atoms_ProtBoundConf>  (946) 
nan

>  <Num_Resolved_Atoms>  (946) 
nan

>  <Num_Not_Resolved_Atoms>  (946) 
nan

$$$$
CHEMBL3747256
     RDKit          3D

  0  0  0  0  0  0  0  0  0  0999 V3000
M  V30 BEGIN CTAB
M  V30 COUNTS 49 51 0 0 0
M  V30 BEGIN ATOM
M  V30 1 C 1.749321 -0.090839 2.504471 0
M  V30 2 C 2.450531 0.530593 1.375239 0
M  V30 3 C 3.815288 0.343026 1.141528 0
M  V30 4 N 4.621439 -0.492984 1.967340 0
M  V30 5 S 6.331683 -0.414048 1.814601 0
M  V30 6 N 6.949795 1.159812 2.195274 0
M  V30 7 O 6.929656 -1.341101 2.837080 0
M  V30 8 O 6.816033 -0.909676 0.483871 0
M  V30 9 C 4.404490 0.980914 0.057836 0
M  V30 10 C 3.712187 1.796928 -0.809554 0
M  V30 11 C 2.374994 1.923381 -0.503470 0
M  V30 12 C 1.655693 1.342071 0.549370 0
M  V30 13 O 0.322601 1.564022 0.721638 0
M  V30 14 C -0.753716 0.758949 0.792694 0
M  V30 15 C -1.401310 0.899780 2.030876 0
M  V30 16 C -2.548070 0.191422 2.393513 0
M  V30 17 F -3.144090 0.362980 3.612327 0
M  V30 18 C -3.092994 -0.704522 1.497596 0
M  V30 19 C -2.483082 -0.865627 0.277262 0
M  V30 20 N -3.048509 -1.797639 -0.623329 0
M  V30 21 C -4.182220 -2.573529 -0.277570 0
M  V30 22 C -5.442402 -2.607494 -0.851112 0
M  V30 23 C -6.454430 -3.429984 -0.417585 0
M  V30 24 C -6.222958 -4.289076 0.660763 0
M  V30 25 I -7.845793 -5.493566 1.227097 0
M  V30 26 C -4.977608 -4.274083 1.248327 0
M  V30 27 C -3.977185 -3.444055 0.800396 0
M  V30 28 F -2.832655 -3.618234 1.538260 0
M  V30 29 C -1.361445 -0.143666 -0.023857 0
M  V30 30 C -0.806870 -0.361859 -1.319437 0
M  V30 31 N 0.272894 0.133128 -2.055610 0
M  V30 32 O -1.049044 -1.063990 -2.307189 0
M  V30 33 H 0.939019 -0.785976 2.228746 0
M  V30 34 H 1.248776 0.740286 3.093459 0
M  V30 35 H 2.472484 -0.505497 3.207960 0
M  V30 36 H 4.224759 -1.156163 2.655473 0
M  V30 37 H 6.474443 1.930728 1.719083 0
M  V30 38 H 6.776288 1.281588 3.233810 0
M  V30 39 H 5.475291 0.874225 -0.181600 0
M  V30 40 H 4.109759 2.317371 -1.663479 0
M  V30 41 H 1.776309 2.558656 -1.158207 0
M  V30 42 H -1.070060 1.580555 2.834218 0
M  V30 43 H -3.980070 -1.221080 1.820806 0
M  V30 44 H -2.926986 -2.174186 -1.563750 0
M  V30 45 H -5.542533 -1.913068 -1.679842 0
M  V30 46 H -7.399164 -3.352122 -0.964842 0
M  V30 47 H -4.917809 -4.974604 2.065848 0
M  V30 48 H 1.274473 -0.072255 -2.292708 0
M  V30 49 H 0.875700 0.693059 -2.648025 0
M  V30 END ATOM
M  V30 BEGIN BOND
M  V30 1 1 1 2
M  V30 2 2 2 3
M  V30 3 1 3 4
M  V30 4 1 4 5
M  V30 5 1 5 6
M  V30 6 2 5 7
M  V30 7 2 5 8
M  V30 8 1 3 9
M  V30 9 2 9 10
M  V30 10 1 10 11
M  V30 11 2 11 12
M  V30 12 1 12 13
M  V30 13 1 13 14
M  V30 14 2 14 15
M  V30 15 1 15 16
M  V30 16 1 16 17
M  V30 17 2 16 18
M  V30 18 1 18 19
M  V30 19 1 19 20
M  V30 20 1 20 21
M  V30 21 2 21 22
M  V30 22 1 22 23
M  V30 23 2 23 24
M  V30 24 1 24 25
M  V30 25 1 24 26
M  V30 26 2 26 27
M  V30 27 1 27 28
M  V30 28 2 19 29
M  V30 29 1 29 30
M  V30 30 1 30 31
M  V30 31 2 30 32
M  V30 32 1 12 2
M  V30 33 1 29 14
M  V30 34 1 27 21
M  V30 35 1 1 33
M  V30 36 1 1 34
M  V30 37 1 1 35
M  V30 38 1 4 36
M  V30 39 1 6 37
M  V30 40 1 6 38
M  V30 41 1 9 39
M  V30 42 1 10 40
M  V30 43 1 11 41
M  V30 44 1 15 42
M  V30 45 1 18 43
M  V30 46 1 20 44
M  V30 47 1 22 45
M  V30 48 1 23 46
M  V30 49 1 26 47
M  V30 50 1 31 48
M  V30 51 1 31 49
M  V30 END BOND
M  V30 END CTAB
M  END
>  <Dataset>  (947) 
ChEMBL_Kinases

>  <Ligand_Instance>  (947) 
nan

>  <PDB_ID>  (947) 
nan

>  <Standardized_SMILES>  (947) 
Cc1c(NS(N)(=O)=O)cccc1Oc1cc(F)cc(Nc2ccc(I)cc2F)c1C(N)=O

>  <Name>  (947) 
nan

>  <Pocket>  (947) 
nan

>  <ATP_Site>  (947) 
nan

>  <Peripheral>  (947) 
nan

>  <Num_H_Atoms_ProtBoundConf>  (947) 
nan

>  <Num_Resolved_Atoms>  (947) 
nan

>  <Num_Not_Resolved_Atoms>  (947) 
nan

$$$$
CHEMBL579353
     RDKit          3D

  0  0  0  0  0  0  0  0  0  0999 V3000
M  V30 BEGIN CTAB
M  V30 COUNTS 69 71 0 0 0
M  V30 BEGIN ATOM
M  V30 1 C 3.954007 -4.764807 2.014708 0
M  V30 2 C 3.857741 -3.536286 1.171209 0
M  V30 3 N 2.911708 -2.560137 1.596626 0
M  V30 4 C 3.233003 -1.879981 2.818292 0
M  V30 5 C 3.168983 -2.691671 4.066158 0
M  V30 6 C 2.620446 -1.627740 0.541058 0
M  V30 7 C 1.863363 -2.158987 -0.624663 0
M  V30 8 C 1.632367 -1.018474 -1.638368 0
M  V30 9 C 0.878338 -1.567001 -2.819902 0
M  V30 10 C 1.689841 -2.658130 -3.446314 0
M  V30 11 N 0.475848 -0.521737 -3.727797 0
M  V30 12 C -0.439943 0.474817 -3.300312 0
M  V30 13 N -0.951617 0.437859 -2.055558 0
M  V30 14 C -1.831732 1.332347 -1.571128 0
M  V30 15 C -2.348046 1.213208 -0.202580 0
M  V30 16 C -1.972584 0.215970 0.568418 0
M  V30 17 C -2.431074 0.031746 1.913718 0
M  V30 18 C -3.292877 0.871260 2.562985 0
M  V30 19 C -3.738828 0.674512 3.872776 0
M  V30 20 O -4.612859 1.542023 4.507360 0
M  V30 21 C -5.070002 2.672263 3.792255 0
M  V30 22 C -3.285581 -0.440937 4.569602 0
M  V30 23 O -3.732219 -0.633123 5.872380 0
M  V30 24 C -3.254303 -1.780781 6.558644 0
M  V30 25 C -2.415628 -1.306661 3.943833 0
M  V30 26 C -2.012766 -1.056367 2.648985 0
M  V30 27 Cl -0.915041 -2.233972 1.977491 0
M  V30 28 N -2.244628 2.341257 -2.362215 0
M  V30 29 C -1.781191 2.462627 -3.640604 0
M  V30 30 C -2.192226 3.499188 -4.483837 0
M  V30 31 C -1.718916 3.615710 -5.777647 0
M  V30 32 Cl -2.259631 4.931019 -6.815438 0
M  V30 33 C -0.815090 2.654088 -6.203234 0
M  V30 34 C -0.390782 1.619171 -5.394060 0
M  V30 35 C -0.866603 1.510687 -4.105930 0
M  V30 36 H 4.737458 -4.719582 2.808300 0
M  V30 37 H 4.334893 -5.596811 1.342375 0
M  V30 38 H 2.978670 -5.111183 2.401588 0
M  V30 39 H 3.587910 -3.886702 0.141635 0
M  V30 40 H 4.895493 -3.081413 1.145761 0
M  V30 41 H 4.226997 -1.348479 2.747926 0
M  V30 42 H 2.507356 -1.015271 2.912105 0
M  V30 43 H 2.862944 -1.991982 4.912190 0
M  V30 44 H 2.442471 -3.508119 4.054078 0
M  V30 45 H 4.184126 -3.049552 4.373071 0
M  V30 46 H 2.002864 -0.792879 0.993638 0
M  V30 47 H 3.556412 -1.080897 0.216861 0
M  V30 48 H 0.906506 -2.616783 -0.371857 0
M  V30 49 H 2.476486 -2.912506 -1.157882 0
M  V30 50 H 1.108863 -0.217007 -1.093898 0
M  V30 51 H 2.643497 -0.649045 -1.914981 0
M  V30 52 H -0.074933 -2.017166 -2.425673 0
M  V30 53 H 1.363537 -2.903347 -4.478799 0
M  V30 54 H 1.541827 -3.585698 -2.835845 0
M  V30 55 H 2.763910 -2.387395 -3.382551 0
M  V30 56 H 0.916787 -0.604488 -4.644258 0
M  V30 57 H -3.042839 1.959340 0.158485 0
M  V30 58 H -1.279473 -0.483226 0.125199 0
M  V30 59 H -3.678420 1.749544 2.073655 0
M  V30 60 H -5.706882 3.319344 4.443950 0
M  V30 61 H -5.664902 2.405938 2.888253 0
M  V30 62 H -4.216598 3.291568 3.438399 0
M  V30 63 H -3.744182 -1.887137 7.556172 0
M  V30 64 H -2.153820 -1.751685 6.703337 0
M  V30 65 H -3.460018 -2.707321 5.949888 0
M  V30 66 H -2.076813 -2.174466 4.520670 0
M  V30 67 H -2.906114 4.222657 -4.097558 0
M  V30 68 H -0.449713 2.751719 -7.223275 0
M  V30 69 H 0.313062 0.911294 -5.803547 0
M  V30 END ATOM
M  V30 BEGIN BOND
M  V30 1 1 1 2
M  V30 2 1 2 3
M  V30 3 1 3 4
M  V30 4 1 4 5
M  V30 5 1 3 6
M  V30 6 1 6 7
M  V30 7 1 7 8
M  V30 8 1 8 9
M  V30 9 1 9 10
M  V30 10 1 9 11
M  V30 11 1 11 12
M  V30 12 2 12 13
M  V30 13 1 13 14
M  V30 14 1 14 15
M  V30 15 2 15 16
M  V30 16 1 16 17
M  V30 17 2 17 18
M  V30 18 1 18 19
M  V30 19 1 19 20
M  V30 20 1 20 21
M  V30 21 2 19 22
M  V30 22 1 22 23
M  V30 23 1 23 24
M  V30 24 1 22 25
M  V30 25 2 25 26
M  V30 26 1 26 27
M  V30 27 2 14 28
M  V30 28 1 28 29
M  V30 29 2 29 30
M  V30 30 1 30 31
M  V30 31 1 31 32
M  V30 32 2 31 33
M  V30 33 1 33 34
M  V30 34 2 34 35
M  V30 35 1 35 12
M  V30 36 1 26 17
M  V30 37 1 35 29
M  V30 38 1 1 36
M  V30 39 1 1 37
M  V30 40 1 1 38
M  V30 41 1 2 39
M  V30 42 1 2 40
M  V30 43 1 4 41
M  V30 44 1 4 42
M  V30 45 1 5 43
M  V30 46 1 5 44
M  V30 47 1 5 45
M  V30 48 1 6 46
M  V30 49 1 6 47
M  V30 50 1 7 48
M  V30 51 1 7 49
M  V30 52 1 8 50
M  V30 53 1 8 51
M  V30 54 1 9 52
M  V30 55 1 10 53
M  V30 56 1 10 54
M  V30 57 1 10 55
M  V30 58 1 11 56
M  V30 59 1 15 57
M  V30 60 1 16 58
M  V30 61 1 18 59
M  V30 62 1 21 60
M  V30 63 1 21 61
M  V30 64 1 21 62
M  V30 65 1 24 63
M  V30 66 1 24 64
M  V30 67 1 24 65
M  V30 68 1 25 66
M  V30 69 1 30 67
M  V30 70 1 33 68
M  V30 71 1 34 69
M  V30 END BOND
M  V30 END CTAB
M  END
>  <Dataset>  (948) 
ChEMBL_Kinases

>  <Ligand_Instance>  (948) 
nan

>  <PDB_ID>  (948) 
nan

>  <Standardized_SMILES>  (948) 
CCN(CC)CCCC(C)Nc1nc(/C=C/c2cc(OC)c(OC)cc2Cl)nc2cc(Cl)ccc12

>  <Name>  (948) 
nan

>  <Pocket>  (948) 
nan

>  <ATP_Site>  (948) 
nan

>  <Peripheral>  (948) 
nan

>  <Num_H_Atoms_ProtBoundConf>  (948) 
nan

>  <Num_Resolved_Atoms>  (948) 
nan

>  <Num_Not_Resolved_Atoms>  (948) 
nan

$$$$
CHEMBL5093246
     RDKit          3D

  0  0  0  0  0  0  0  0  0  0999 V3000
M  V30 BEGIN CTAB
M  V30 COUNTS 71 75 0 0 0
M  V30 BEGIN ATOM
M  V30 1 C 3.571833 -0.798698 6.296615 0
M  V30 2 C 2.306837 0.039225 6.272012 0
M  V30 3 N 2.171811 0.581338 4.937474 0
M  V30 4 C 0.999923 1.426802 4.810192 0
M  V30 5 C 1.014547 2.059533 3.430012 0
M  V30 6 N 1.243810 1.108602 2.390404 0
M  V30 7 C 0.493401 0.948741 1.194003 0
M  V30 8 C -0.491000 1.851209 0.882515 0
M  V30 9 C -1.176637 1.644402 -0.269328 0
M  V30 10 N -2.235959 2.421393 -0.834705 0
M  V30 11 C -1.835651 3.411258 -1.774135 0
M  V30 12 C -0.545352 3.675506 -2.171855 0
M  V30 13 C -0.566837 4.699104 -3.095487 0
M  V30 14 C 0.521085 5.377386 -3.844402 0
M  V30 15 N -1.877066 5.027835 -3.231805 0
M  V30 16 N -2.629173 4.259449 -2.443877 0
M  V30 17 N -0.909853 0.604146 -1.074734 0
M  V30 18 C 0.068128 -0.301691 -0.775662 0
M  V30 19 N 0.382628 -1.416531 -1.605741 0
M  V30 20 C 1.391588 -2.399623 -1.334259 0 CFG=1
M  V30 21 C 1.150950 -3.139833 -0.011669 0
M  V30 22 C -0.045906 -3.998067 -0.336191 0
M  V30 23 N -0.172676 -3.978568 -1.786340 0
M  V30 24 C -1.297915 -4.272871 -2.600776 0
M  V30 25 O -1.404600 -4.250853 -3.852867 0
M  V30 26 C -2.596472 -4.673125 -2.140759 0
M  V30 27 C -2.775674 -6.052951 -2.016748 0
M  V30 28 C -3.961304 -6.582042 -1.593482 0
M  V30 29 C -5.026307 -5.778873 -1.272326 0
M  V30 30 Cl -6.545853 -6.445503 -0.730507 0
M  V30 31 C -4.887070 -4.411834 -1.382338 0
M  V30 32 C -3.688119 -3.901757 -1.809229 0
M  V30 33 C -3.495413 -2.446743 -1.939571 0
M  V30 34 C 1.133211 -3.586826 -2.277761 0
M  V30 35 N 0.711032 -0.056430 0.361367 0
M  V30 36 C 2.372385 0.227651 2.594606 0
M  V30 37 C 2.182655 -0.462536 3.928081 0
M  V30 38 H 4.287222 -0.406893 5.520377 0
M  V30 39 H 4.105696 -0.700082 7.265978 0
M  V30 40 H 3.358174 -1.841053 6.039085 0
M  V30 41 H 2.321883 0.801042 7.048398 0
M  V30 42 H 1.483024 -0.679715 6.519319 0
M  V30 43 H 1.120426 2.256763 5.537714 0
M  V30 44 H 0.056299 0.922758 5.015944 0
M  V30 45 H 1.733579 2.931146 3.398556 0
M  V30 46 H 0.006914 2.510718 3.297041 0
M  V30 47 H -0.778493 2.700870 1.445312 0
M  V30 48 H -3.240033 2.289916 -0.591225 0
M  V30 49 H 0.386802 3.199824 -1.855624 0
M  V30 50 H 0.658860 4.817092 -4.812777 0
M  V30 51 H 1.491248 5.324742 -3.326981 0
M  V30 52 H 0.304177 6.441201 -4.029475 0
M  V30 53 H -2.300862 5.770110 -3.851878 0
M  V30 54 H -0.207641 -1.475558 -2.488735 0
M  V30 55 H 2.407395 -2.022485 -1.438260 0
M  V30 56 H 1.029295 -2.477622 0.840292 0
M  V30 57 H 2.029371 -3.802355 0.136315 0
M  V30 58 H -0.001963 -5.017624 0.050208 0
M  V30 59 H -0.918514 -3.473393 0.142361 0
M  V30 60 H -1.984709 -6.773736 -2.248988 0
M  V30 61 H -4.130838 -7.657232 -1.487400 0
M  V30 62 H -5.665916 -3.697713 -1.153137 0
M  V30 63 H -4.112364 -2.008979 -2.743291 0
M  V30 64 H -2.443240 -2.137134 -1.983118 0
M  V30 65 H -3.903065 -1.984161 -0.992306 0
M  V30 66 H 1.895326 -4.338296 -2.065439 0
M  V30 67 H 1.124521 -3.252202 -3.330816 0
M  V30 68 H 2.513665 -0.475707 1.749536 0
M  V30 69 H 3.265390 0.893272 2.727603 0
M  V30 70 H 1.212581 -1.005880 3.884703 0
M  V30 71 H 2.982082 -1.169288 4.159579 0
M  V30 END ATOM
M  V30 BEGIN BOND
M  V30 1 1 1 2
M  V30 2 1 2 3
M  V30 3 1 3 4
M  V30 4 1 4 5
M  V30 5 1 5 6
M  V30 6 1 6 7
M  V30 7 2 7 8
M  V30 8 1 8 9
M  V30 9 1 9 10
M  V30 10 1 10 11
M  V30 11 1 11 12
M  V30 12 2 12 13
M  V30 13 1 13 14
M  V30 14 1 13 15
M  V30 15 1 15 16
M  V30 16 2 9 17
M  V30 17 1 17 18
M  V30 18 1 18 19
M  V30 19 1 19 20
M  V30 20 1 20 21
M  V30 21 1 21 22
M  V30 22 1 22 23
M  V30 23 1 23 24
M  V30 24 2 24 25
M  V30 25 1 24 26
M  V30 26 2 26 27
M  V30 27 1 27 28
M  V30 28 2 28 29
M  V30 29 1 29 30
M  V30 30 1 29 31
M  V30 31 2 31 32
M  V30 32 1 32 33
M  V30 33 1 23 34
M  V30 34 2 18 35
M  V30 35 1 6 36
M  V30 36 1 36 37
M  V30 37 1 37 3
M  V30 38 1 35 7
M  V30 39 2 16 11
M  V30 40 1 34 20
M  V30 41 1 32 26
M  V30 42 1 1 38
M  V30 43 1 1 39
M  V30 44 1 1 40
M  V30 45 1 2 41
M  V30 46 1 2 42
M  V30 47 1 4 43
M  V30 48 1 4 44
M  V30 49 1 5 45
M  V30 50 1 5 46
M  V30 51 1 8 47
M  V30 52 1 10 48
M  V30 53 1 12 49
M  V30 54 1 14 50
M  V30 55 1 14 51
M  V30 56 1 14 52
M  V30 57 1 15 53
M  V30 58 1 19 54
M  V30 59 1 20 55 CFG=1
M  V30 60 1 21 56
M  V30 61 1 21 57
M  V30 62 1 22 58
M  V30 63 1 22 59
M  V30 64 1 27 60
M  V30 65 1 28 61
M  V30 66 1 31 62
M  V30 67 1 33 63
M  V30 68 1 33 64
M  V30 69 1 33 65
M  V30 70 1 34 66
M  V30 71 1 34 67
M  V30 72 1 36 68
M  V30 73 1 36 69
M  V30 74 1 37 70
M  V30 75 1 37 71
M  V30 END BOND
M  V30 END CTAB
M  END
>  <Dataset>  (949) 
ChEMBL_Kinases

>  <Ligand_Instance>  (949) 
nan

>  <PDB_ID>  (949) 
nan

>  <Standardized_SMILES>  (949) 
CCN1CCN(c2cc(Nc3cc(C)[nH]n3)nc(N[C@H]3CCN(C(=O)c4ccc(Cl)cc4C)C3)n2)CC1

>  <Name>  (949) 
nan

>  <Pocket>  (949) 
nan

>  <ATP_Site>  (949) 
nan

>  <Peripheral>  (949) 
nan

>  <Num_H_Atoms_ProtBoundConf>  (949) 
nan

>  <Num_Resolved_Atoms>  (949) 
nan

>  <Num_Not_Resolved_Atoms>  (949) 
nan

$$$$
CHEMBL3747136
     RDKit          3D

  0  0  0  0  0  0  0  0  0  0999 V3000
M  V30 BEGIN CTAB
M  V30 COUNTS 52 54 0 0 0
M  V30 BEGIN ATOM
M  V30 1 C 0.827178 0.423568 4.284944 0
M  V30 2 C -0.160312 1.447570 3.773979 0
M  V30 3 N 0.414084 2.759744 3.659990 0
M  V30 4 S -0.803851 3.835951 3.070186 0
M  V30 5 O -1.988459 3.767147 4.015335 0
M  V30 6 O -0.231309 5.205951 3.074528 0
M  V30 7 N -1.380452 3.395836 1.511855 0
M  V30 8 C -0.443975 3.384671 0.428069 0
M  V30 9 C 0.480543 4.377096 0.184722 0
M  V30 10 C 1.333944 4.257828 -0.892577 0
M  V30 11 C 1.247028 3.131687 -1.720207 0
M  V30 12 C 0.305092 2.124805 -1.468777 0
M  V30 13 O 0.449616 1.147367 -2.444106 0
M  V30 14 C -0.264720 -0.025561 -2.371135 0
M  V30 15 C -1.175775 -0.201596 -3.384025 0
M  V30 16 C -1.969230 -1.313442 -3.458158 0
M  V30 17 F -2.853288 -1.447354 -4.468241 0
M  V30 18 C -1.816187 -2.276878 -2.454624 0
M  V30 19 C -0.899723 -2.159964 -1.391216 0
M  V30 20 N -1.003074 -3.293896 -0.573680 0
M  V30 21 C -0.295697 -4.443698 -0.224527 0
M  V30 22 C -1.132099 -5.524077 -0.606886 0
M  V30 23 C -0.824859 -6.884788 -0.460223 0
M  V30 24 C 0.393713 -7.186469 0.103719 0
M  V30 25 I 1.036999 -9.161383 0.403330 0
M  V30 26 C 1.246811 -6.206933 0.494633 0
M  V30 27 C 0.870288 -4.906216 0.315962 0
M  V30 28 F 1.679224 -3.899185 0.676275 0
M  V30 29 C -0.175982 -1.008753 -1.434039 0
M  V30 30 C 0.713463 -0.830560 -0.327783 0
M  V30 31 N 1.765760 0.078394 -0.039888 0
M  V30 32 O 1.165738 -1.115162 0.769859 0
M  V30 33 C -0.545160 2.271781 -0.372346 0
M  V30 34 H 0.615436 -0.592780 3.894605 0
M  V30 35 H 0.768088 0.356954 5.391580 0
M  V30 36 H 1.873838 0.688061 4.022035 0
M  V30 37 H -0.554197 1.109871 2.798314 0
M  V30 38 H -1.038441 1.526297 4.457312 0
M  V30 39 H 1.215428 2.698147 3.012173 0
M  V30 40 H -2.391004 3.134983 1.321953 0
M  V30 41 H 0.504991 5.225693 0.855538 0
M  V30 42 H 2.026396 5.069312 -1.018836 0
M  V30 43 H 1.982562 3.195076 -2.511852 0
M  V30 44 H -1.307396 0.540779 -4.178990 0
M  V30 45 H -2.506787 -3.125458 -2.616914 0
M  V30 46 H -1.934154 -3.171516 -0.051388 0
M  V30 47 H -2.133331 -5.491221 -1.069190 0
M  V30 48 H -1.413948 -7.734474 -0.729223 0
M  V30 49 H 2.203901 -6.353434 0.937547 0
M  V30 50 H 2.492454 0.386484 -0.755726 0
M  V30 51 H 2.494192 0.388879 -0.752713 0
M  V30 52 H -1.198944 1.415800 -0.327106 0
M  V30 END ATOM
M  V30 BEGIN BOND
M  V30 1 1 1 2
M  V30 2 1 2 3
M  V30 3 1 3 4
M  V30 4 2 4 5
M  V30 5 2 4 6
M  V30 6 1 4 7
M  V30 7 1 7 8
M  V30 8 2 8 9
M  V30 9 1 9 10
M  V30 10 2 10 11
M  V30 11 1 11 12
M  V30 12 1 12 13
M  V30 13 1 13 14
M  V30 14 2 14 15
M  V30 15 1 15 16
M  V30 16 1 16 17
M  V30 17 2 16 18
M  V30 18 1 18 19
M  V30 19 1 19 20
M  V30 20 1 20 21
M  V30 21 2 21 22
M  V30 22 1 22 23
M  V30 23 2 23 24
M  V30 24 1 24 25
M  V30 25 1 24 26
M  V30 26 2 26 27
M  V30 27 1 27 28
M  V30 28 2 19 29
M  V30 29 1 29 30
M  V30 30 1 30 31
M  V30 31 2 30 32
M  V30 32 2 12 33
M  V30 33 1 33 8
M  V30 34 1 29 14
M  V30 35 1 27 21
M  V30 36 1 1 34
M  V30 37 1 1 35
M  V30 38 1 1 36
M  V30 39 1 2 37
M  V30 40 1 2 38
M  V30 41 1 3 39
M  V30 42 1 7 40
M  V30 43 1 9 41
M  V30 44 1 10 42
M  V30 45 1 11 43
M  V30 46 1 15 44
M  V30 47 1 18 45
M  V30 48 1 20 46
M  V30 49 1 22 47
M  V30 50 1 23 48
M  V30 51 1 26 49
M  V30 52 1 31 50
M  V30 53 1 31 51
M  V30 54 1 33 52
M  V30 END BOND
M  V30 END CTAB
M  END
>  <Dataset>  (950) 
ChEMBL_Kinases

>  <Ligand_Instance>  (950) 
nan

>  <PDB_ID>  (950) 
nan

>  <Standardized_SMILES>  (950) 
CCNS(=O)(=O)Nc1cccc(Oc2cc(F)cc(Nc3ccc(I)cc3F)c2C(N)=O)c1

>  <Name>  (950) 
nan

>  <Pocket>  (950) 
nan

>  <ATP_Site>  (950) 
nan

>  <Peripheral>  (950) 
nan

>  <Num_H_Atoms_ProtBoundConf>  (950) 
nan

>  <Num_Resolved_Atoms>  (950) 
nan

>  <Num_Not_Resolved_Atoms>  (950) 
nan

$$$$
CHEMBL374742
     RDKit          3D

  0  0  0  0  0  0  0  0  0  0999 V3000
M  V30 BEGIN CTAB
M  V30 COUNTS 44 47 0 0 0
M  V30 BEGIN ATOM
M  V30 1 C -2.116820 -4.180104 0.828304 0
M  V30 2 C -0.889527 -4.437302 1.402430 0
M  V30 3 C -0.113028 -3.331328 1.726978 0
M  V30 4 C -0.534553 -2.018051 1.492637 0
M  V30 5 C 0.329502 -0.871302 1.855056 0
M  V30 6 C 0.698338 -0.106486 0.631161 0
M  V30 7 C 1.214873 1.169142 0.892838 0
M  V30 8 C 1.596828 1.991070 -0.174812 0
M  V30 9 C 1.470778 1.560274 -1.480723 0
M  V30 10 C 1.851064 2.354730 -2.642366 0
M  V30 11 C 1.217384 2.278370 -3.889442 0
M  V30 12 N 1.795417 3.130783 -4.758800 0
M  V30 13 N 2.776782 3.757680 -4.132035 0
M  V30 14 C 2.829230 3.310569 -2.866602 0
M  V30 15 C 0.952216 0.281189 -1.727305 0
M  V30 16 C 0.574875 -0.530885 -0.676341 0
M  V30 17 C -0.536730 0.005041 2.772887 0
M  V30 18 C -1.204079 -0.911623 3.760691 0
M  V30 19 N -0.302562 -1.947553 4.159633 0
M  V30 20 C 1.065921 -1.537347 4.085476 0
M  V30 21 C 1.518405 -1.251334 2.682935 0
M  V30 22 C -1.765512 -1.790961 0.917612 0
M  V30 23 C -2.546487 -2.892900 0.590822 0
M  V30 24 H -2.786276 -4.980749 0.543724 0
M  V30 25 H -0.552516 -5.442800 1.588495 0
M  V30 26 H 0.845351 -3.557873 2.176966 0
M  V30 27 H 1.354751 1.603001 1.894873 0
M  V30 28 H 1.997790 2.977064 -0.000001 0
M  V30 29 H 0.387950 1.672929 -4.228493 0
M  V30 30 H 3.385982 4.474643 -4.584381 0
M  V30 31 H 3.509542 3.606650 -2.077333 0
M  V30 32 H 0.850540 -0.061833 -2.743436 0
M  V30 33 H 0.175091 -1.510911 -0.809965 0
M  V30 34 H 0.159578 0.698535 3.278108 0
M  V30 35 H -1.239995 0.620250 2.194336 0
M  V30 36 H -2.125382 -1.376611 3.351742 0
M  V30 37 H -1.531951 -0.309186 4.629031 0
M  V30 38 H -0.520627 -2.385900 5.067532 0
M  V30 39 H 1.685365 -2.375239 4.510982 0
M  V30 40 H 1.169577 -0.636847 4.758678 0
M  V30 41 H 2.149585 -0.315354 2.743278 0
M  V30 42 H 2.171207 -2.020870 2.243366 0
M  V30 43 H -2.061387 -0.761698 0.749994 0
M  V30 44 H -3.508604 -2.619691 0.139054 0
M  V30 END ATOM
M  V30 BEGIN BOND
M  V30 1 2 1 2
M  V30 2 1 2 3
M  V30 3 2 3 4
M  V30 4 1 4 5
M  V30 5 1 5 6
M  V30 6 2 6 7
M  V30 7 1 7 8
M  V30 8 2 8 9
M  V30 9 1 9 10
M  V30 10 1 10 11
M  V30 11 2 11 12
M  V30 12 1 12 13
M  V30 13 1 13 14
M  V30 14 1 9 15
M  V30 15 2 15 16
M  V30 16 1 5 17
M  V30 17 1 17 18
M  V30 18 1 18 19
M  V30 19 1 19 20
M  V30 20 1 20 21
M  V30 21 1 4 22
M  V30 22 2 22 23
M  V30 23 1 23 1
M  V30 24 1 21 5
M  V30 25 1 16 6
M  V30 26 2 14 10
M  V30 27 1 1 24
M  V30 28 1 2 25
M  V30 29 1 3 26
M  V30 30 1 7 27
M  V30 31 1 8 28
M  V30 32 1 11 29
M  V30 33 1 13 30
M  V30 34 1 14 31
M  V30 35 1 15 32
M  V30 36 1 16 33
M  V30 37 1 17 34
M  V30 38 1 17 35
M  V30 39 1 18 36
M  V30 40 1 18 37
M  V30 41 1 19 38
M  V30 42 1 20 39
M  V30 43 1 20 40
M  V30 44 1 21 41
M  V30 45 1 21 42
M  V30 46 1 22 43
M  V30 47 1 23 44
M  V30 END BOND
M  V30 END CTAB
M  END
>  <Dataset>  (951) 
ChEMBL_Kinases

>  <Ligand_Instance>  (951) 
nan

>  <PDB_ID>  (951) 
nan

>  <Standardized_SMILES>  (951) 
c1ccc(C2(c3ccc(-c4cn[nH]c4)cc3)CCNCC2)cc1

>  <Name>  (951) 
nan

>  <Pocket>  (951) 
nan

>  <ATP_Site>  (951) 
nan

>  <Peripheral>  (951) 
nan

>  <Num_H_Atoms_ProtBoundConf>  (951) 
nan

>  <Num_Resolved_Atoms>  (951) 
nan

>  <Num_Not_Resolved_Atoms>  (951) 
nan

$$$$
CHEMBL375011
     RDKit          3D

  0  0  0  0  0  0  0  0  0  0999 V3000
M  V30 BEGIN CTAB
M  V30 COUNTS 76 80 0 0 0
M  V30 BEGIN ATOM
M  V30 1 C -0.392649 1.115427 -6.695419 0
M  V30 2 C -1.288009 1.811683 -5.729657 0
M  V30 3 C -1.976878 2.907033 -6.132347 0
M  V30 4 C -2.820519 3.596068 -5.289844 0
M  V30 5 C -2.953077 3.134413 -3.990025 0
M  V30 6 C -3.838000 3.836935 -3.068704 0
M  V30 7 N -4.552887 4.980243 -3.497944 0
M  V30 8 O -3.987971 3.444999 -1.871577 0
M  V30 9 C -2.236588 2.028512 -3.639480 0
M  V30 10 C -1.378908 1.296537 -4.431654 0
M  V30 11 N -0.660679 0.150820 -4.016411 0
M  V30 12 C -0.648304 -0.462992 -2.742627 0
M  V30 13 N 0.086309 -1.550314 -2.593036 0
M  V30 14 C 0.248373 -2.287475 -1.490811 0
M  V30 15 N 1.061078 -3.451179 -1.552700 0
M  V30 16 C 1.523631 -4.384148 -0.571274 0
M  V30 17 C 2.700718 -3.854160 0.174125 0 CFG=2
M  V30 18 C 3.205591 -4.832827 1.222734 0
M  V30 19 C 4.036239 -4.181509 2.290611 0
M  V30 20 C 3.906002 -2.679067 2.281574 0 CFG=1
M  V30 21 C 4.166502 -2.107717 0.907398 0
M  V30 22 C 2.682317 -2.454642 0.625968 0 CFG=2
M  V30 23 C 2.476233 -2.214972 2.078738 0
M  V30 24 C 2.388049 -0.729600 2.355256 0
M  V30 25 C 1.433387 -2.959482 2.803045 0
M  V30 26 N -0.441851 -1.819307 -0.438680 0
M  V30 27 C -1.217710 -0.728678 -0.472378 0
M  V30 28 N -1.942468 -0.250593 0.653120 0
M  V30 29 C -1.777971 -0.951982 1.907131 0
M  V30 30 C -1.433294 -0.048438 3.053287 0
M  V30 31 C -1.007348 1.305231 2.565468 0
M  V30 32 N -2.136646 2.158635 2.343298 0
M  V30 33 C -2.581038 2.740688 3.591139 0
M  V30 34 C -3.242936 1.494179 1.722880 0
M  V30 35 C -2.777950 0.896536 0.406761 0
M  V30 36 N -1.288016 -0.092111 -1.633755 0
M  V30 37 H -0.813827 0.114879 -6.964227 0
M  V30 38 H 0.633513 0.987945 -6.293519 0
M  V30 39 H -0.307404 1.705355 -7.620506 0
M  V30 40 H -1.849613 3.247738 -7.169461 0
M  V30 41 H -3.364440 4.462329 -5.610394 0
M  V30 42 H -4.091122 5.766943 -2.988770 0
M  V30 43 H -5.323319 5.365765 -4.089819 0
M  V30 44 H -2.389970 1.723378 -2.611527 0
M  V30 45 H -0.068113 -0.270707 -4.790537 0
M  V30 46 H 1.415382 -3.699351 -2.531984 0
M  V30 47 H 1.879138 -5.317198 -1.094038 0
M  V30 48 H 0.684301 -4.687456 0.110760 0
M  V30 49 H 3.529682 -3.879586 -0.608388 0
M  V30 50 H 2.338752 -5.400497 1.676436 0
M  V30 51 H 3.820325 -5.635051 0.763135 0
M  V30 52 H 5.135740 -4.385206 2.165749 0
M  V30 53 H 3.786276 -4.523260 3.298108 0
M  V30 54 H 4.451158 -2.246588 3.114266 0
M  V30 55 H 4.278091 -1.024397 0.912325 0
M  V30 56 H 4.876826 -2.679409 0.281902 0
M  V30 57 H 2.235792 -1.773062 -0.105650 0
M  V30 58 H 1.766550 -0.513856 3.250812 0
M  V30 59 H 3.367492 -0.257060 2.564742 0
M  V30 60 H 1.922272 -0.161250 1.533412 0
M  V30 61 H 0.714661 -3.526623 2.216374 0
M  V30 62 H 0.875865 -2.281072 3.475651 0
M  V30 63 H 1.945325 -3.676327 3.512515 0
M  V30 64 H -0.967579 -1.699785 1.819255 0
M  V30 65 H -2.700182 -1.535514 2.148281 0
M  V30 66 H -0.622092 -0.441048 3.713223 0
M  V30 67 H -2.311423 0.054457 3.728307 0
M  V30 68 H -0.435628 1.190384 1.620410 0
M  V30 69 H -0.353137 1.806601 3.334890 0
M  V30 70 H -3.351081 3.532545 3.402332 0
M  V30 71 H -2.976322 2.004832 4.314165 0
M  V30 72 H -1.715890 3.259612 4.091915 0
M  V30 73 H -4.008947 2.265744 1.448686 0
M  V30 74 H -3.661967 0.702692 2.355081 0
M  V30 75 H -3.704243 0.527409 -0.109298 0
M  V30 76 H -2.318094 1.654104 -0.228733 0
M  V30 END ATOM
M  V30 BEGIN BOND
M  V30 1 1 1 2
M  V30 2 2 2 3
M  V30 3 1 3 4
M  V30 4 2 4 5
M  V30 5 1 5 6
M  V30 6 1 6 7
M  V30 7 2 6 8
M  V30 8 1 5 9
M  V30 9 2 9 10
M  V30 10 1 10 11
M  V30 11 1 11 12
M  V30 12 2 12 13
M  V30 13 1 13 14
M  V30 14 1 14 15
M  V30 15 1 15 16
M  V30 16 1 16 17
M  V30 17 1 17 18
M  V30 18 1 18 19
M  V30 19 1 19 20
M  V30 20 1 20 21
M  V30 21 1 21 22
M  V30 22 1 22 23
M  V30 23 1 23 24
M  V30 24 1 23 25
M  V30 25 2 14 26
M  V30 26 1 26 27
M  V30 27 1 27 28
M  V30 28 1 28 29
M  V30 29 1 29 30
M  V30 30 1 30 31
M  V30 31 1 31 32
M  V30 32 1 32 33
M  V30 33 1 32 34
M  V30 34 1 34 35
M  V30 35 2 27 36
M  V30 36 1 10 2
M  V30 37 1 36 12
M  V30 38 1 22 17
M  V30 39 1 35 28
M  V30 40 1 23 20
M  V30 41 1 1 37
M  V30 42 1 1 38
M  V30 43 1 1 39
M  V30 44 1 3 40
M  V30 45 1 4 41
M  V30 46 1 7 42
M  V30 47 1 7 43
M  V30 48 1 9 44
M  V30 49 1 11 45
M  V30 50 1 15 46
M  V30 51 1 16 47
M  V30 52 1 16 48
M  V30 53 1 17 49 CFG=3
M  V30 54 1 18 50
M  V30 55 1 18 51
M  V30 56 1 19 52
M  V30 57 1 19 53
M  V30 58 1 20 54 CFG=1
M  V30 59 1 21 55
M  V30 60 1 21 56
M  V30 61 1 22 57 CFG=3
M  V30 62 1 24 58
M  V30 63 1 24 59
M  V30 64 1 24 60
M  V30 65 1 25 61
M  V30 66 1 25 62
M  V30 67 1 25 63
M  V30 68 1 29 64
M  V30 69 1 29 65
M  V30 70 1 30 66
M  V30 71 1 30 67
M  V30 72 1 31 68
M  V30 73 1 31 69
M  V30 74 1 33 70
M  V30 75 1 33 71
M  V30 76 1 33 72
M  V30 77 1 34 73
M  V30 78 1 34 74
M  V30 79 1 35 75
M  V30 80 1 35 76
M  V30 END BOND
M  V30 END CTAB
M  END
>  <Dataset>  (952) 
ChEMBL_Kinases

>  <Ligand_Instance>  (952) 
nan

>  <PDB_ID>  (952) 
nan

>  <Standardized_SMILES>  (952) 
Cc1ccc(C(N)=O)cc1Nc1nc(NC[C@@H]2CC[C@H]3C[C@@H]2C3(C)C)nc(N2CCCN(C)CC2)n1

>  <Name>  (952) 
nan

>  <Pocket>  (952) 
nan

>  <ATP_Site>  (952) 
nan

>  <Peripheral>  (952) 
nan

>  <Num_H_Atoms_ProtBoundConf>  (952) 
nan

>  <Num_Resolved_Atoms>  (952) 
nan

>  <Num_Not_Resolved_Atoms>  (952) 
nan

$$$$
CHEMBL374940
     RDKit          3D

  0  0  0  0  0  0  0  0  0  0999 V3000
M  V30 BEGIN CTAB
M  V30 COUNTS 55 59 0 0 0
M  V30 BEGIN ATOM
M  V30 1 C 9.088044 0.411591 0.567307 0
M  V30 2 N 7.692152 0.081331 0.372539 0
M  V30 3 C 7.278277 -1.103472 1.139491 0
M  V30 4 C 6.769281 0.792437 -0.460070 0
M  V30 5 O 7.447730 1.750391 -0.970293 0
M  V30 6 C 5.407342 0.360851 -0.568418 0
M  V30 7 C 4.391596 0.484003 0.374875 0
M  V30 8 C 3.096071 0.024625 0.179364 0
M  V30 9 C 2.803174 -0.584112 -1.008981 0
M  V30 10 C 1.638109 -1.137249 -1.480276 0
M  V30 11 C 0.315889 -1.294291 -0.904011 0
M  V30 12 C -0.274736 -0.952950 0.280075 0
M  V30 13 C -1.588795 -1.363547 0.318789 0
M  V30 14 C -2.621051 -1.293208 1.243592 0
M  V30 15 C -3.899715 -1.822099 1.020943 0
M  V30 16 C -4.821352 -1.615136 2.145137 0
M  V30 17 N -5.641102 -0.460394 2.056651 0
M  V30 18 C -6.651549 -0.461306 1.045481 0
M  V30 19 C -8.035083 -0.257605 1.677838 0
M  V30 20 O -8.125183 0.909440 2.384979 0
M  V30 21 C -6.988639 1.277079 3.073501 0
M  V30 22 C -5.993123 0.153694 3.282948 0
M  V30 23 C -4.062760 -2.425004 -0.196456 0
M  V30 24 C -3.069664 -2.515930 -1.141015 0
M  V30 25 C -1.821986 -1.984491 -0.889568 0
M  V30 26 N -0.668304 -1.915109 -1.570570 0
M  V30 27 N 1.971785 -1.585696 -2.703983 0
M  V30 28 N 3.233777 -1.345258 -2.996234 0
M  V30 29 C 3.791726 -0.717096 -1.956258 0
M  V30 30 C 5.080671 -0.257641 -1.757740 0
M  V30 31 H 9.738866 -0.245502 -0.066079 0
M  V30 32 H 9.411297 0.280532 1.639229 0
M  V30 33 H 9.316346 1.468754 0.314416 0
M  V30 34 H 8.093851 -1.858410 1.187933 0
M  V30 35 H 7.008973 -0.869213 2.175524 0
M  V30 36 H 6.453038 -1.626023 0.574054 0
M  V30 37 H 4.706523 0.971877 1.273417 0
M  V30 38 H 2.357332 0.144045 0.930850 0
M  V30 39 H 0.182721 -0.439172 1.084100 0
M  V30 40 H -2.342643 -0.782001 2.172573 0
M  V30 41 H -5.519541 -2.509443 2.183193 0
M  V30 42 H -4.292845 -1.670285 3.124276 0
M  V30 43 H -6.430105 0.295779 0.282559 0
M  V30 44 H -6.721846 -1.489735 0.608984 0
M  V30 45 H -8.758832 -0.263460 0.840445 0
M  V30 46 H -8.200926 -1.164773 2.307471 0
M  V30 47 H -7.314753 1.623050 4.077606 0
M  V30 48 H -6.516147 2.139795 2.558985 0
M  V30 49 H -6.333658 -0.533627 4.079367 0
M  V30 50 H -5.064612 0.673438 3.664515 0
M  V30 51 H -5.049057 -2.834535 -0.359500 0
M  V30 52 H -3.266164 -3.002948 -2.081695 0
M  V30 53 H -0.659342 -2.344756 -2.535690 0
M  V30 54 H 3.602980 -1.648095 -3.916375 0
M  V30 55 H 5.801043 -0.410079 -2.572548 0
M  V30 END ATOM
M  V30 BEGIN BOND
M  V30 1 1 1 2
M  V30 2 1 2 3
M  V30 3 1 2 4
M  V30 4 2 4 5
M  V30 5 1 4 6
M  V30 6 2 6 7
M  V30 7 1 7 8
M  V30 8 2 8 9
M  V30 9 1 9 10
M  V30 10 1 10 11
M  V30 11 2 11 12
M  V30 12 1 12 13
M  V30 13 2 13 14
M  V30 14 1 14 15
M  V30 15 1 15 16
M  V30 16 1 16 17
M  V30 17 1 17 18
M  V30 18 1 18 19
M  V30 19 1 19 20
M  V30 20 1 20 21
M  V30 21 1 21 22
M  V30 22 2 15 23
M  V30 23 1 23 24
M  V30 24 2 24 25
M  V30 25 1 25 26
M  V30 26 2 10 27
M  V30 27 1 27 28
M  V30 28 1 28 29
M  V30 29 2 29 30
M  V30 30 1 30 6
M  V30 31 1 29 9
M  V30 32 1 26 11
M  V30 33 1 25 13
M  V30 34 1 22 17
M  V30 35 1 1 31
M  V30 36 1 1 32
M  V30 37 1 1 33
M  V30 38 1 3 34
M  V30 39 1 3 35
M  V30 40 1 3 36
M  V30 41 1 7 37
M  V30 42 1 8 38
M  V30 43 1 12 39
M  V30 44 1 14 40
M  V30 45 1 16 41
M  V30 46 1 16 42
M  V30 47 1 18 43
M  V30 48 1 18 44
M  V30 49 1 19 45
M  V30 50 1 19 46
M  V30 51 1 21 47
M  V30 52 1 21 48
M  V30 53 1 22 49
M  V30 54 1 22 50
M  V30 55 1 23 51
M  V30 56 1 24 52
M  V30 57 1 26 53
M  V30 58 1 28 54
M  V30 59 1 30 55
M  V30 END BOND
M  V30 END CTAB
M  END
>  <Dataset>  (953) 
ChEMBL_Kinases

>  <Ligand_Instance>  (953) 
nan

>  <PDB_ID>  (953) 
nan

>  <Standardized_SMILES>  (953) 
CN(C)C(=O)c1ccc2c(-c3cc4cc(CN5CCOCC5)ccc4[nH]3)n[nH]c2c1

>  <Name>  (953) 
nan

>  <Pocket>  (953) 
nan

>  <ATP_Site>  (953) 
nan

>  <Peripheral>  (953) 
nan

>  <Num_H_Atoms_ProtBoundConf>  (953) 
nan

>  <Num_Resolved_Atoms>  (953) 
nan

>  <Num_Not_Resolved_Atoms>  (953) 
nan

$$$$
CHEMBL374876
     RDKit          3D

  0  0  0  0  0  0  0  0  0  0999 V3000
M  V30 BEGIN CTAB
M  V30 COUNTS 42 45 0 0 0
M  V30 BEGIN ATOM
M  V30 1 O -1.733153 -3.462760 2.620765 0
M  V30 2 C -0.859046 -2.653658 2.209782 0
M  V30 3 C -0.714276 -2.113577 0.873426 0
M  V30 4 C 0.477087 -2.260995 0.185760 0
M  V30 5 C 0.302104 -1.648523 -1.039188 0
M  V30 6 C 1.073006 -1.400677 -2.257417 0
M  V30 7 N 1.609716 -2.274405 -3.134423 0
M  V30 8 N 2.232209 -1.625461 -4.107160 0
M  V30 9 C 2.126386 -0.300376 -3.903545 0
M  V30 10 C 1.390141 -0.123784 -2.727873 0
M  V30 11 C 1.009643 1.136101 -2.089183 0
M  V30 12 C 0.231493 2.170591 -2.564415 0
M  V30 13 C 0.016412 3.268213 -1.759515 0
M  V30 14 C 0.559127 3.359784 -0.490803 0
M  V30 15 C 1.337671 2.330897 -0.008312 0
M  V30 16 Cl 2.000706 2.499398 1.607026 0
M  V30 17 C 1.559565 1.225412 -0.807226 0
M  V30 18 C -1.006603 -1.151040 -1.036525 0
M  V30 19 N -1.610459 -1.441554 0.131610 0
M  V30 20 N 0.013949 -2.321716 3.286589 0
M  V30 21 C -0.250019 -2.939834 4.577228 0
M  V30 22 C -0.437330 -1.800243 5.558939 0
M  V30 23 O -0.440282 -0.556995 4.947739 0
M  V30 24 C 0.739550 -0.287637 4.261016 0
M  V30 25 C 1.190237 -1.442873 3.387611 0
M  V30 26 H 1.438211 -2.704976 0.361187 0
M  V30 27 H 1.506331 -3.301345 -2.997764 0
M  V30 28 H 2.505206 0.537047 -4.483720 0
M  V30 29 H -0.131031 1.984420 -3.557065 0
M  V30 30 H -0.608156 4.048765 -2.198574 0
M  V30 31 H 0.358526 4.253579 0.109570 0
M  V30 32 H 2.186876 0.482449 -0.318164 0
M  V30 33 H -1.595547 -0.599930 -1.769368 0
M  V30 34 H -2.560268 -1.239111 0.488162 0
M  V30 35 H -1.130487 -3.624970 4.538574 0
M  V30 36 H 0.655764 -3.514132 4.922088 0
M  V30 37 H -1.482282 -1.920302 5.971529 0
M  V30 38 H 0.260393 -1.862428 6.405558 0
M  V30 39 H 1.548844 0.013546 4.965286 0
M  V30 40 H 0.502768 0.571335 3.593189 0
M  V30 41 H 2.032789 -1.979134 3.874105 0
M  V30 42 H 1.559121 -1.121648 2.405216 0
M  V30 END ATOM
M  V30 BEGIN BOND
M  V30 1 2 1 2
M  V30 2 1 2 3
M  V30 3 2 3 4
M  V30 4 1 4 5
M  V30 5 1 5 6
M  V30 6 1 6 7
M  V30 7 1 7 8
M  V30 8 2 8 9
M  V30 9 1 9 10
M  V30 10 1 10 11
M  V30 11 2 11 12
M  V30 12 1 12 13
M  V30 13 2 13 14
M  V30 14 1 14 15
M  V30 15 1 15 16
M  V30 16 2 15 17
M  V30 17 2 5 18
M  V30 18 1 18 19
M  V30 19 1 2 20
M  V30 20 1 20 21
M  V30 21 1 21 22
M  V30 22 1 22 23
M  V30 23 1 23 24
M  V30 24 1 24 25
M  V30 25 1 19 3
M  V30 26 1 25 20
M  V30 27 2 10 6
M  V30 28 1 17 11
M  V30 29 1 4 26
M  V30 30 1 7 27
M  V30 31 1 9 28
M  V30 32 1 12 29
M  V30 33 1 13 30
M  V30 34 1 14 31
M  V30 35 1 17 32
M  V30 36 1 18 33
M  V30 37 1 19 34
M  V30 38 1 21 35
M  V30 39 1 21 36
M  V30 40 1 22 37
M  V30 41 1 22 38
M  V30 42 1 24 39
M  V30 43 1 24 40
M  V30 44 1 25 41
M  V30 45 1 25 42
M  V30 END BOND
M  V30 END CTAB
M  END
>  <Dataset>  (954) 
ChEMBL_Kinases

>  <Ligand_Instance>  (954) 
nan

>  <PDB_ID>  (954) 
nan

>  <Standardized_SMILES>  (954) 
O=C(c1cc(-c2[nH]ncc2-c2cccc(Cl)c2)c[nH]1)N1CCOCC1

>  <Name>  (954) 
nan

>  <Pocket>  (954) 
nan

>  <ATP_Site>  (954) 
nan

>  <Peripheral>  (954) 
nan

>  <Num_H_Atoms_ProtBoundConf>  (954) 
nan

>  <Num_Resolved_Atoms>  (954) 
nan

>  <Num_Not_Resolved_Atoms>  (954) 
nan

$$$$
CHEMBL5092882
     RDKit          3D

  0  0  0  0  0  0  0  0  0  0999 V3000
M  V30 BEGIN CTAB
M  V30 COUNTS 27 29 0 0 0
M  V30 BEGIN ATOM
M  V30 1 N -2.779077 -3.473486 -0.088654 0
M  V30 2 C -2.354980 -2.275817 0.548409 0
M  V30 3 C -1.053917 -1.882637 0.318908 0
M  V30 4 C -0.553273 -0.731097 0.896973 0
M  V30 5 C 0.807960 -0.264778 0.693594 0
M  V30 6 C 1.561605 0.440972 1.612168 0
M  V30 7 C 2.842829 0.903264 1.472512 0
M  V30 8 C 3.481991 0.646639 0.279043 0
M  V30 9 N 4.706197 1.001428 -0.054626 0
M  V30 10 C 5.268658 0.818238 -1.006755 0
M  V30 11 S 3.943564 -0.155619 -2.006128 0
M  V30 12 C 2.762062 -0.061846 -0.677811 0
M  V30 13 C 1.465621 -0.512245 -0.496152 0
M  V30 14 C -1.455615 -0.042062 1.696782 0
M  V30 15 C -2.740318 -0.427064 1.925566 0
M  V30 16 N -3.566327 0.383107 2.777586 0
M  V30 17 N -3.173932 -1.556446 1.336991 0
M  V30 18 H -3.059392 -3.689557 -1.055272 0
M  V30 19 H -2.990985 -4.487719 -0.012854 0
M  V30 20 H -0.360967 -2.434924 -0.310818 0
M  V30 21 H 1.033701 0.636779 2.560645 0
M  V30 22 H 3.259845 1.447789 2.336971 0
M  V30 23 H 6.158570 0.827400 -1.824408 0
M  V30 24 H 1.020098 -1.045678 -1.306899 0
M  V30 25 H -1.085060 0.866168 2.161695 0
M  V30 26 H -4.056373 0.924139 2.004906 0
M  V30 27 H -3.236825 0.000691 3.695865 0
M  V30 END ATOM
M  V30 BEGIN BOND
M  V30 1 1 1 2
M  V30 2 2 2 3
M  V30 3 1 3 4
M  V30 4 1 4 5
M  V30 5 2 5 6
M  V30 6 1 6 7
M  V30 7 2 7 8
M  V30 8 1 8 9
M  V30 9 2 9 10
M  V30 10 1 10 11
M  V30 11 1 11 12
M  V30 12 2 12 13
M  V30 13 2 4 14
M  V30 14 1 14 15
M  V30 15 1 15 16
M  V30 16 2 15 17
M  V30 17 1 17 2
M  V30 18 1 13 5
M  V30 19 1 12 8
M  V30 20 1 1 18
M  V30 21 1 1 19
M  V30 22 1 3 20
M  V30 23 1 6 21
M  V30 24 1 7 22
M  V30 25 1 10 23
M  V30 26 1 13 24
M  V30 27 1 14 25
M  V30 28 1 16 26
M  V30 29 1 16 27
M  V30 END BOND
M  V30 END CTAB
M  END
>  <Dataset>  (955) 
ChEMBL_Kinases

>  <Ligand_Instance>  (955) 
nan

>  <PDB_ID>  (955) 
nan

>  <Standardized_SMILES>  (955) 
Nc1cc(-c2ccc3ncsc3c2)cc(N)n1

>  <Name>  (955) 
nan

>  <Pocket>  (955) 
nan

>  <ATP_Site>  (955) 
nan

>  <Peripheral>  (955) 
nan

>  <Num_H_Atoms_ProtBoundConf>  (955) 
nan

>  <Num_Resolved_Atoms>  (955) 
nan

>  <Num_Not_Resolved_Atoms>  (955) 
nan

$$$$
CHEMBL5092990
     RDKit          3D

  0  0  0  0  0  0  0  0  0  0999 V3000
M  V30 BEGIN CTAB
M  V30 COUNTS 72 77 0 0 0
M  V30 BEGIN ATOM
M  V30 1 C 3.649705 -5.942292 -1.920631 0
M  V30 2 C 3.295649 -4.528958 -1.851353 0
M  V30 3 C 3.212090 -3.840577 -3.050228 0
M  V30 4 Br 3.541252 -4.709503 -4.720861 0
M  V30 5 C 2.886847 -2.505984 -3.035659 0
M  V30 6 C 2.641679 -1.833630 -1.855401 0
M  V30 7 C 2.309636 -0.426533 -1.966193 0
M  V30 8 O 2.248258 0.136775 -3.100963 0
M  V30 9 N 2.017251 0.506250 -0.942904 0
M  V30 10 C 1.691800 1.896871 -1.188880 0 CFG=1
M  V30 11 C 0.435456 2.284359 -0.507526 0
M  V30 12 O -0.228319 3.377059 -0.471644 0
M  V30 13 N -0.271325 1.349498 0.299371 0
M  V30 14 C -1.475007 1.521323 1.034235 0
M  V30 15 C -1.211939 1.973880 2.313730 0
M  V30 16 C -2.192542 2.223984 3.247675 0
M  V30 17 C -3.521021 2.019049 2.911343 0
M  V30 18 C -3.778582 1.566987 1.630798 0
M  V30 19 C -2.796861 1.319384 0.703651 0
M  V30 20 C -5.220227 1.420916 1.490877 0
M  V30 21 C -5.922816 0.998118 0.466889 0
M  V30 22 C -7.355461 0.860264 0.336773 0
M  V30 23 C -7.904747 -0.317532 -0.182350 0
M  V30 24 N -9.246868 -0.256590 -0.252398 0
M  V30 25 C -9.588852 0.974622 0.225136 0
M  V30 26 N -8.445527 1.599528 0.560696 0
M  V30 27 C -5.807289 1.805533 2.742244 0
M  V30 28 O -7.005514 1.829969 3.059990 0
M  V30 29 N -4.744715 2.172608 3.609948 0
M  V30 30 C 2.772147 2.795927 -0.691064 0
M  V30 31 C 2.759364 3.940668 0.062445 0
M  V30 32 C 3.939787 4.578304 0.369628 0
M  V30 33 C 5.173645 4.133417 -0.041167 0
M  V30 34 C 5.188947 2.966093 -0.809669 0
M  V30 35 C 4.000520 2.297784 -1.135356 0
M  V30 36 C 2.757047 -2.624143 -0.755999 0
M  V30 37 O 2.539089 -2.035365 0.350910 0
M  V30 38 N 3.066514 -3.925462 -0.666720 0
M  V30 39 C 3.131126 -4.592659 0.598849 0
M  V30 40 C 1.849900 -5.194994 1.041754 0
M  V30 41 C 1.519106 -6.497783 0.739080 0
M  V30 42 C 0.328165 -7.034922 1.160593 0
M  V30 43 C -0.603876 -6.354418 1.891815 0
M  V30 44 F -1.780235 -6.871235 2.314112 0
M  V30 45 C -0.294575 -5.041021 2.210123 0
M  V30 46 F -1.196068 -4.333554 2.936530 0
M  V30 47 C 0.905985 -4.516328 1.779011 0
M  V30 48 H 4.309599 -6.101659 -2.820338 0
M  V30 49 H 2.743713 -6.565539 -2.102967 0
M  V30 50 H 4.125163 -6.344569 -1.006103 0
M  V30 51 H 2.832615 -1.998025 -3.996369 0
M  V30 52 H 2.040496 0.159090 0.037871 0
M  V30 53 H 1.621173 2.085872 -2.263391 0
M  V30 54 H 0.057412 0.350227 0.444389 0
M  V30 55 H -0.219559 2.185496 2.743239 0
M  V30 56 H -2.038797 2.577592 4.255063 0
M  V30 57 H -2.931707 0.966870 -0.308299 0
M  V30 58 H -5.321071 0.713753 -0.407423 0
M  V30 59 H -7.397857 -1.234180 -0.520133 0
M  V30 60 H -10.576682 1.396930 0.328325 0
M  V30 61 H -8.408111 2.561388 0.940394 0
M  V30 62 H -4.869764 2.505396 4.610533 0
M  V30 63 H 1.757817 4.216089 0.341934 0
M  V30 64 H 3.819464 5.484045 0.978786 0
M  V30 65 H 6.073932 4.668060 0.222599 0
M  V30 66 H 6.189963 2.666707 -1.101864 0
M  V30 67 H 4.243303 1.425725 -1.732893 0
M  V30 68 H 3.348538 -3.788906 1.363206 0
M  V30 69 H 3.986597 -5.289823 0.721705 0
M  V30 70 H 2.135894 -7.153688 0.185523 0
M  V30 71 H 0.036119 -8.074628 0.935831 0
M  V30 72 H 1.055420 -3.496042 2.079773 0
M  V30 END ATOM
M  V30 BEGIN BOND
M  V30 1 1 1 2
M  V30 2 2 2 3
M  V30 3 1 3 4
M  V30 4 1 3 5
M  V30 5 2 5 6
M  V30 6 1 6 7
M  V30 7 2 7 8
M  V30 8 1 7 9
M  V30 9 1 9 10
M  V30 10 1 10 11
M  V30 11 2 11 12
M  V30 12 1 11 13
M  V30 13 1 13 14
M  V30 14 2 14 15
M  V30 15 1 15 16
M  V30 16 2 16 17
M  V30 17 1 17 18
M  V30 18 2 18 19
M  V30 19 1 18 20
M  V30 20 2 20 21
M  V30 21 1 21 22
M  V30 22 2 22 23
M  V30 23 1 23 24
M  V30 24 2 24 25
M  V30 25 1 25 26
M  V30 26 1 20 27
M  V30 27 2 27 28
M  V30 28 1 27 29
M  V30 29 1 10 30
M  V30 30 2 30 31
M  V30 31 1 31 32
M  V30 32 2 32 33
M  V30 33 1 33 34
M  V30 34 2 34 35
M  V30 35 1 6 36
M  V30 36 2 36 37
M  V30 37 1 36 38
M  V30 38 1 38 39
M  V30 39 1 39 40
M  V30 40 2 40 41
M  V30 41 1 41 42
M  V30 42 2 42 43
M  V30 43 1 43 44
M  V30 44 1 43 45
M  V30 45 1 45 46
M  V30 46 2 45 47
M  V30 47 1 38 2
M  V30 48 1 47 40
M  V30 49 1 19 14
M  V30 50 1 26 22
M  V30 51 1 35 30
M  V30 52 1 29 17
M  V30 53 1 1 48
M  V30 54 1 1 49
M  V30 55 1 1 50
M  V30 56 1 5 51
M  V30 57 1 9 52
M  V30 58 1 10 53 CFG=3
M  V30 59 1 13 54
M  V30 60 1 15 55
M  V30 61 1 16 56
M  V30 62 1 19 57
M  V30 63 1 21 58
M  V30 64 1 23 59
M  V30 65 1 25 60
M  V30 66 1 26 61
M  V30 67 1 29 62
M  V30 68 1 31 63
M  V30 69 1 32 64
M  V30 70 1 33 65
M  V30 71 1 34 66
M  V30 72 1 35 67
M  V30 73 1 39 68
M  V30 74 1 39 69
M  V30 75 1 41 70
M  V30 76 1 42 71
M  V30 77 1 47 72
M  V30 END BOND
M  V30 END CTAB
M  END
>  <Dataset>  (956) 
ChEMBL_Kinases

>  <Ligand_Instance>  (956) 
nan

>  <PDB_ID>  (956) 
nan

>  <Standardized_SMILES>  (956) 
Cc1c(Br)cc(C(=O)N[C@@H](C(=O)Nc2ccc3c(c2)/C(=C/c2cnc[nH]2)C(=O)N3)c2ccccc2)c(=O)n1Cc1ccc(F)c(F)c1

>  <Name>  (956) 
nan

>  <Pocket>  (956) 
nan

>  <ATP_Site>  (956) 
nan

>  <Peripheral>  (956) 
nan

>  <Num_H_Atoms_ProtBoundConf>  (956) 
nan

>  <Num_Resolved_Atoms>  (956) 
nan

>  <Num_Not_Resolved_Atoms>  (956) 
nan

$$$$
CHEMBL374855
     RDKit          3D

  0  0  0  0  0  0  0  0  0  0999 V3000
M  V30 BEGIN CTAB
M  V30 COUNTS 52 54 0 0 0
M  V30 BEGIN ATOM
M  V30 1 C 1.741962 -2.114534 -3.408828 0
M  V30 2 C 2.258271 -3.173135 -2.446992 0
M  V30 3 O 1.264370 -3.640710 -1.590523 0
M  V30 4 C 0.550494 -2.859793 -0.692575 0
M  V30 5 N 0.746471 -1.533377 -0.548130 0
M  V30 6 C 0.059841 -0.761806 0.321448 0
M  V30 7 C 0.334504 0.689650 0.419268 0
M  V30 8 O -0.307566 1.380124 1.236580 0
M  V30 9 N 1.331222 1.244848 -0.433051 0
M  V30 10 C 1.706901 2.649786 -0.446801 0
M  V30 11 C 1.019684 3.454925 0.570079 0
M  V30 12 C 1.674971 3.533081 1.790894 0
M  V30 13 C 1.201509 4.234749 2.874377 0
M  V30 14 C -0.009873 4.902461 2.723578 0
M  V30 15 S -0.637534 5.803144 4.085294 0
M  V30 16 C -1.668658 4.723709 5.079769 0
M  V30 17 O 0.456753 6.409472 4.877901 0
M  V30 18 O -1.559408 6.872256 3.553283 0
M  V30 19 C -0.661686 4.825295 1.510420 0
M  V30 20 C -0.180118 4.117171 0.422578 0
M  V30 21 C -0.908203 -1.331014 1.126806 0
M  V30 22 C -1.136481 -2.691196 1.005339 0
M  V30 23 N -2.147022 -3.283874 1.845302 0
M  V30 24 C -0.426410 -3.472617 0.110233 0
M  V30 25 C -0.690149 -4.887555 0.010385 0
M  V30 26 C -0.922684 -6.087133 -0.085298 0
M  V30 27 C -1.183664 -7.496990 -0.215336 0
M  V30 28 C -0.682677 -8.315318 -1.168878 0
M  V30 29 C -0.996781 -9.619327 -1.190113 0
M  V30 30 S -2.096039 -9.889206 0.198476 0
M  V30 31 C -2.041479 -8.100953 0.734246 0
M  V30 32 H 0.818304 -2.523310 -3.874378 0
M  V30 33 H 1.541177 -1.200458 -2.816327 0
M  V30 34 H 2.449526 -1.932523 -4.233853 0
M  V30 35 H 3.155143 -2.780140 -1.907350 0
M  V30 36 H 2.609742 -4.019677 -3.067390 0
M  V30 37 H 1.868260 0.667948 -1.118074 0
M  V30 38 H 2.808899 2.683950 -0.327595 0
M  V30 39 H 1.533469 3.089225 -1.473626 0
M  V30 40 H 2.622884 3.038184 1.979371 0
M  V30 41 H 1.700608 4.301168 3.822820 0
M  V30 42 H -2.263540 4.063528 4.435792 0
M  V30 43 H -2.258107 5.303014 5.803155 0
M  V30 44 H -0.957784 4.090485 5.684917 0
M  V30 45 H -1.606396 5.344775 1.388592 0
M  V30 46 H -0.661660 4.040248 -0.526313 0
M  V30 47 H -1.475674 -0.722849 1.837993 0
M  V30 48 H -3.072440 -2.792976 1.804087 0
M  V30 49 H -2.248671 -4.083317 2.510069 0
M  V30 50 H -0.015877 -7.957282 -1.944965 0
M  V30 51 H -0.717666 -10.431178 -1.842171 0
M  V30 52 H -2.556378 -7.657492 1.579205 0
M  V30 END ATOM
M  V30 BEGIN BOND
M  V30 1 1 1 2
M  V30 2 1 2 3
M  V30 3 1 3 4
M  V30 4 2 4 5
M  V30 5 1 5 6
M  V30 6 1 6 7
M  V30 7 2 7 8
M  V30 8 1 7 9
M  V30 9 1 9 10
M  V30 10 1 10 11
M  V30 11 2 11 12
M  V30 12 1 12 13
M  V30 13 2 13 14
M  V30 14 1 14 15
M  V30 15 1 15 16
M  V30 16 2 15 17
M  V30 17 2 15 18
M  V30 18 1 14 19
M  V30 19 2 19 20
M  V30 20 2 6 21
M  V30 21 1 21 22
M  V30 22 1 22 23
M  V30 23 2 22 24
M  V30 24 1 24 25
M  V30 25 3 25 26
M  V30 26 1 26 27
M  V30 27 1 27 28
M  V30 28 2 28 29
M  V30 29 1 29 30
M  V30 30 1 30 31
M  V30 31 1 24 4
M  V30 32 2 31 27
M  V30 33 1 20 11
M  V30 34 1 1 32
M  V30 35 1 1 33
M  V30 36 1 1 34
M  V30 37 1 2 35
M  V30 38 1 2 36
M  V30 39 1 9 37
M  V30 40 1 10 38
M  V30 41 1 10 39
M  V30 42 1 12 40
M  V30 43 1 13 41
M  V30 44 1 16 42
M  V30 45 1 16 43
M  V30 46 1 16 44
M  V30 47 1 19 45
M  V30 48 1 20 46
M  V30 49 1 21 47
M  V30 50 1 23 48
M  V30 51 1 23 49
M  V30 52 1 28 50
M  V30 53 1 29 51
M  V30 54 1 31 52
M  V30 END BOND
M  V30 END CTAB
M  END
>  <Dataset>  (957) 
ChEMBL_Kinases

>  <Ligand_Instance>  (957) 
nan

>  <PDB_ID>  (957) 
nan

>  <Standardized_SMILES>  (957) 
CCOc1nc(C(=O)NCc2ccc(S(C)(=O)=O)cc2)cc(N)c1C#Cc1ccsc1

>  <Name>  (957) 
nan

>  <Pocket>  (957) 
nan

>  <ATP_Site>  (957) 
nan

>  <Peripheral>  (957) 
nan

>  <Num_H_Atoms_ProtBoundConf>  (957) 
nan

>  <Num_Resolved_Atoms>  (957) 
nan

>  <Num_Not_Resolved_Atoms>  (957) 
nan

$$$$
CHEMBL582642
     RDKit          3D

  0  0  0  0  0  0  0  0  0  0999 V3000
M  V30 BEGIN CTAB
M  V30 COUNTS 44 47 0 0 0
M  V30 BEGIN ATOM
M  V30 1 C 2.730625 -6.526358 2.403115 0
M  V30 2 O 1.372993 -6.346991 2.077336 0
M  V30 3 C 0.975494 -5.116197 1.580916 0
M  V30 4 C 1.925398 -4.143088 1.434933 0
M  V30 5 C 1.490848 -2.923680 0.935078 0
M  V30 6 S 2.477333 -1.385736 0.603334 0
M  V30 7 C 1.090420 -0.442335 0.011590 0
M  V30 8 C 0.770272 0.792821 -0.471903 0
M  V30 9 N 1.677666 1.841297 -0.651142 0
M  V30 10 C 1.349786 3.150613 -1.163037 0
M  V30 11 C 0.343715 3.802541 -0.309143 0
M  V30 12 C 0.785280 4.247713 0.928558 0
M  V30 13 C 2.187423 4.098819 1.445218 0
M  V30 14 C -0.145713 4.877956 1.745715 0
M  V30 15 C -1.474227 5.104415 1.442253 0
M  V30 16 C -1.863580 4.644352 0.202644 0
M  V30 17 C -0.975532 4.010764 -0.648685 0
M  V30 18 Cl -1.544067 3.478973 -2.216061 0
M  V30 19 N -0.535500 0.679405 -0.687772 0
M  V30 20 N -0.977122 -0.516408 -0.366243 0
M  V30 21 C 0.019970 -1.289472 0.091611 0
M  V30 22 C 0.196046 -2.561716 0.559361 0
M  V30 23 C -0.694923 -3.597822 0.738376 0
M  V30 24 C -0.300726 -4.797366 1.223564 0
M  V30 25 O -1.228233 -5.838907 1.397216 0
M  V30 26 C -2.580920 -5.606607 1.053981 0
M  V30 27 H 3.337753 -6.464778 1.483066 0
M  V30 28 H 2.889794 -7.495360 2.951942 0
M  V30 29 H 3.116046 -5.725116 3.071502 0
M  V30 30 H 2.975243 -4.227730 1.668246 0
M  V30 31 H 2.695206 1.706313 -0.403779 0
M  V30 32 H 2.260572 3.779872 -1.278560 0
M  V30 33 H 0.893681 3.026783 -2.184293 0
M  V30 34 H 2.897728 4.222353 0.605721 0
M  V30 35 H 2.365360 4.920590 2.179921 0
M  V30 36 H 2.314389 3.147991 1.978246 0
M  V30 37 H 0.197591 5.232804 2.726947 0
M  V30 38 H -2.120937 5.598746 2.134219 0
M  V30 39 H -2.903331 4.784030 -0.116739 0
M  V30 40 H -2.001136 -0.718864 -0.496901 0
M  V30 41 H -1.744839 -3.500651 0.500960 0
M  V30 42 H -3.045545 -4.792717 1.650459 0
M  V30 43 H -2.622292 -5.264615 -0.021404 0
M  V30 44 H -3.180122 -6.537455 1.067223 0
M  V30 END ATOM
M  V30 BEGIN BOND
M  V30 1 1 1 2
M  V30 2 1 2 3
M  V30 3 2 3 4
M  V30 4 1 4 5
M  V30 5 1 5 6
M  V30 6 1 6 7
M  V30 7 1 7 8
M  V30 8 1 8 9
M  V30 9 1 9 10
M  V30 10 1 10 11
M  V30 11 2 11 12
M  V30 12 1 12 13
M  V30 13 1 12 14
M  V30 14 2 14 15
M  V30 15 1 15 16
M  V30 16 2 16 17
M  V30 17 1 17 18
M  V30 18 2 8 19
M  V30 19 1 19 20
M  V30 20 1 20 21
M  V30 21 1 21 22
M  V30 22 1 22 23
M  V30 23 2 23 24
M  V30 24 1 24 25
M  V30 25 1 25 26
M  V30 26 1 24 3
M  V30 27 2 22 5
M  V30 28 2 21 7
M  V30 29 1 17 11
M  V30 30 1 1 27
M  V30 31 1 1 28
M  V30 32 1 1 29
M  V30 33 1 4 30
M  V30 34 1 9 31
M  V30 35 1 10 32
M  V30 36 1 10 33
M  V30 37 1 13 34
M  V30 38 1 13 35
M  V30 39 1 13 36
M  V30 40 1 14 37
M  V30 41 1 15 38
M  V30 42 1 16 39
M  V30 43 1 20 40
M  V30 44 1 23 41
M  V30 45 1 26 42
M  V30 46 1 26 43
M  V30 47 1 26 44
M  V30 END BOND
M  V30 END CTAB
M  END
>  <Dataset>  (958) 
ChEMBL_Kinases

>  <Ligand_Instance>  (958) 
nan

>  <PDB_ID>  (958) 
nan

>  <Standardized_SMILES>  (958) 
COc1cc2sc3c(NCc4c(C)cccc4Cl)n[nH]c3c2cc1OC

>  <Name>  (958) 
nan

>  <Pocket>  (958) 
nan

>  <ATP_Site>  (958) 
nan

>  <Peripheral>  (958) 
nan

>  <Num_H_Atoms_ProtBoundConf>  (958) 
nan

>  <Num_Resolved_Atoms>  (958) 
nan

>  <Num_Not_Resolved_Atoms>  (958) 
nan

$$$$
CHEMBL374808
     RDKit          3D

  0  0  0  0  0  0  0  0  0  0999 V3000
M  V30 BEGIN CTAB
M  V30 COUNTS 53 57 0 0 0
M  V30 BEGIN ATOM
M  V30 1 N 1.143289 -4.820778 3.247564 0
M  V30 2 C 0.519242 -4.450511 1.984634 0 CFG=2
M  V30 3 C 0.611729 -2.985200 1.714688 0
M  V30 4 O 2.007460 -2.642385 1.687337 0
M  V30 5 C 2.472161 -1.366202 1.467696 0
M  V30 6 C 3.871058 -1.327085 1.491652 0
M  V30 7 N 4.548026 -0.166141 1.297942 0
M  V30 8 C 3.874428 0.990989 1.075216 0
M  V30 9 C 2.501939 0.966243 1.049708 0
M  V30 10 C 1.739408 2.187778 0.817782 0
M  V30 11 C 2.355732 3.325501 1.311503 0
M  V30 12 C 1.786777 4.595685 1.191569 0
M  V30 13 C 0.566045 4.743861 0.561290 0
M  V30 14 N -0.229933 5.795597 0.289050 0
M  V30 15 N -1.297938 5.345939 -0.346002 0
M  V30 16 C -1.222365 3.996864 -0.501258 0
M  V30 17 C -2.222310 3.104148 -1.164598 0
M  V30 18 F -2.682320 2.162383 -0.248248 0
M  V30 19 F -3.329432 3.817230 -1.557795 0
M  V30 20 F -1.621361 2.458640 -2.207026 0
M  V30 21 C -0.033545 3.599183 0.075432 0
M  V30 22 C 0.520984 2.338563 0.189044 0
M  V30 23 C 1.779427 -0.194215 1.241824 0
M  V30 24 C -0.862677 -4.980231 1.863900 0
M  V30 25 C -1.488363 -4.595864 0.596394 0
M  V30 26 C -1.453593 -5.452154 -0.512283 0
M  V30 27 N -2.056170 -4.889767 -1.577033 0
M  V30 28 C -2.496731 -3.678524 -1.216400 0
M  V30 29 C -3.189252 -2.687808 -1.910506 0
M  V30 30 C -3.518760 -1.520298 -1.224910 0
M  V30 31 C -3.168547 -1.358345 0.094485 0
M  V30 32 C -2.485782 -2.341453 0.767743 0
M  V30 33 C -2.155463 -3.501673 0.091589 0
M  V30 34 H 0.562073 -4.568501 4.077567 0
M  V30 35 H 2.092723 -4.390799 3.276221 0
M  V30 36 H 1.134947 -5.001702 1.209318 0
M  V30 37 H 0.288781 -2.780709 0.651438 0
M  V30 38 H 0.065069 -2.359150 2.411122 0
M  V30 39 H 4.528928 -2.169635 1.658192 0
M  V30 40 H 4.425833 1.884772 0.926597 0
M  V30 41 H 3.301430 3.335552 1.818138 0
M  V30 42 H 2.270717 5.489152 1.579133 0
M  V30 43 H 0.044498 6.763929 0.575957 0
M  V30 44 H 0.095315 1.422056 -0.171789 0
M  V30 45 H 0.707618 -0.318208 1.240693 0
M  V30 46 H -0.919726 -6.086973 2.004787 0
M  V30 47 H -1.455007 -4.568158 2.735961 0
M  V30 48 H -1.017506 -6.443718 -0.571496 0
M  V30 49 H -2.166837 -5.318684 -2.527417 0
M  V30 50 H -3.416946 -2.905189 -2.933379 0
M  V30 51 H -4.055131 -0.829825 -1.877575 0
M  V30 52 H -3.467068 -0.423602 0.540008 0
M  V30 53 H -2.216805 -2.214560 1.802145 0
M  V30 END ATOM
M  V30 BEGIN BOND
M  V30 1 1 1 2
M  V30 2 1 2 3
M  V30 3 1 3 4
M  V30 4 1 4 5
M  V30 5 2 5 6
M  V30 6 1 6 7
M  V30 7 2 7 8
M  V30 8 1 8 9
M  V30 9 1 9 10
M  V30 10 2 10 11
M  V30 11 1 11 12
M  V30 12 2 12 13
M  V30 13 1 13 14
M  V30 14 1 14 15
M  V30 15 2 15 16
M  V30 16 1 16 17
M  V30 17 1 17 18
M  V30 18 1 17 19
M  V30 19 1 17 20
M  V30 20 1 16 21
M  V30 21 2 21 22
M  V30 22 2 9 23
M  V30 23 1 2 24
M  V30 24 1 24 25
M  V30 25 2 25 26
M  V30 26 1 26 27
M  V30 27 1 27 28
M  V30 28 2 28 29
M  V30 29 1 29 30
M  V30 30 2 30 31
M  V30 31 1 31 32
M  V30 32 2 32 33
M  V30 33 1 23 5
M  V30 34 1 33 25
M  V30 35 1 22 10
M  V30 36 1 33 28
M  V30 37 1 21 13
M  V30 38 1 1 34
M  V30 39 1 1 35
M  V30 40 1 2 36 CFG=3
M  V30 41 1 3 37
M  V30 42 1 3 38
M  V30 43 1 6 39
M  V30 44 1 8 40
M  V30 45 1 11 41
M  V30 46 1 12 42
M  V30 47 1 14 43
M  V30 48 1 22 44
M  V30 49 1 23 45
M  V30 50 1 24 46
M  V30 51 1 24 47
M  V30 52 1 26 48
M  V30 53 1 27 49
M  V30 54 1 29 50
M  V30 55 1 30 51
M  V30 56 1 31 52
M  V30 57 1 32 53
M  V30 END BOND
M  V30 END CTAB
M  END
>  <Dataset>  (959) 
ChEMBL_Kinases

>  <Ligand_Instance>  (959) 
nan

>  <PDB_ID>  (959) 
nan

>  <Standardized_SMILES>  (959) 
N[C@H](COc1cncc(-c2ccc3[nH]nc(C(F)(F)F)c3c2)c1)Cc1c[nH]c2ccccc12

>  <Name>  (959) 
nan

>  <Pocket>  (959) 
nan

>  <ATP_Site>  (959) 
nan

>  <Peripheral>  (959) 
nan

>  <Num_H_Atoms_ProtBoundConf>  (959) 
nan

>  <Num_Resolved_Atoms>  (959) 
nan

>  <Num_Not_Resolved_Atoms>  (959) 
nan

$$$$
CHEMBL5093015
     RDKit          3D

  0  0  0  0  0  0  0  0  0  0999 V3000
M  V30 BEGIN CTAB
M  V30 COUNTS 100 106 0 0 0
M  V30 BEGIN ATOM
M  V30 1 C 2.523531 -3.414392 2.495370 0
M  V30 2 C 2.912446 -2.328122 1.548030 0
M  V30 3 C 3.687494 -1.204409 2.094339 0
M  V30 4 C 5.037938 -1.211601 1.732699 0
M  V30 5 C 5.969388 -0.238827 2.064580 0
M  V30 6 C 5.481267 0.804210 2.801493 0
M  V30 7 C 4.161003 0.851787 3.172446 0
M  V30 8 C 3.599935 2.032601 3.922188 0
M  V30 9 C 2.940132 2.902953 2.840483 0
M  V30 10 C 3.226006 -0.101066 2.858686 0
M  V30 11 N 1.846868 -0.252896 3.147173 0
M  V30 12 C 1.439243 -0.831657 4.401996 0
M  V30 13 O 2.471986 -1.101037 5.110416 0
M  V30 14 C 0.128998 -1.142511 4.965384 0
M  V30 15 C -0.148373 -1.558984 6.222566 0
M  V30 16 C -1.501278 -1.803647 6.197473 0
M  V30 17 N -2.090834 -1.577360 5.036285 0
M  V30 18 C -3.366704 -1.681939 4.420448 0
M  V30 19 N -3.471145 -1.664746 3.113752 0
M  V30 20 C -4.452119 -1.753474 2.242129 0
M  V30 21 N -4.195445 -1.776420 0.894924 0
M  V30 22 C -3.953972 -1.802619 -0.462743 0
M  V30 23 C -4.721171 -1.463713 -1.547357 0
M  V30 24 C -4.226055 -1.580206 -2.814390 0
M  V30 25 C -2.947199 -2.052313 -3.025131 0
M  V30 26 N -2.339655 -2.191053 -4.328529 0
M  V30 27 C -1.194783 -3.019095 -4.641253 0
M  V30 28 C -0.147931 -2.150486 -5.303222 0
M  V30 29 C -0.549951 -0.667462 -5.107723 0
M  V30 30 O -0.588964 -0.423338 -3.746582 0
M  V30 31 C 0.581536 0.136041 -5.654023 0
M  V30 32 N 0.432517 1.542968 -5.376460 0
M  V30 33 C 1.546862 2.291744 -5.884745 0
M  V30 34 C 1.856743 3.606154 -5.279107 0
M  V30 35 N 1.471721 3.779618 -3.921492 0
M  V30 36 C 2.383024 3.343387 -2.928089 0
M  V30 37 C 0.132208 3.394792 -3.759119 0
M  V30 38 C 0.005890 1.921091 -4.092649 0
M  V30 39 C -1.812303 -0.411537 -5.840524 0
M  V30 40 C -2.832845 -1.496984 -5.503622 0
M  V30 41 C -2.047196 -2.417475 -2.058253 0
M  V30 42 C -2.628249 -2.264574 -0.799136 0
M  V30 43 O -1.808224 -2.606592 0.283883 0
M  V30 44 C -0.525720 -3.080145 0.160786 0
M  V30 45 N -5.679141 -1.901780 2.839929 0
M  V30 46 C -5.763525 -1.944942 4.169508 0
M  V30 47 N -6.795976 -2.097263 5.007848 0
M  V30 48 C -6.351339 -2.089269 6.272551 0
M  V30 49 C -4.961470 -1.927575 6.223788 0
M  V30 50 C -4.633620 -1.838737 4.900671 0
M  V30 51 C -1.042642 -1.156210 4.278871 0
M  V30 52 H 2.413112 -4.346769 1.833455 0
M  V30 53 H 1.567253 -3.261860 3.047062 0
M  V30 54 H 3.336203 -3.665226 3.196112 0
M  V30 55 H 3.423580 -2.750003 0.657106 0
M  V30 56 H 1.951185 -1.883213 1.040168 0
M  V30 57 H 5.468971 -2.036387 1.132662 0
M  V30 58 H 6.998930 -0.314277 1.755279 0
M  V30 59 H 6.132770 1.635019 3.104878 0
M  V30 60 H 2.865004 1.747207 4.651464 0
M  V30 61 H 4.452910 2.629503 4.309868 0
M  V30 62 H 2.365866 3.731677 3.292110 0
M  V30 63 H 2.284554 2.303608 2.175837 0
M  V30 64 H 3.726758 3.303345 2.150127 0
M  V30 65 H 0.993666 0.011955 2.565411 0
M  V30 66 H 0.482275 -1.691063 7.062659 0
M  V30 67 H -2.099817 -2.166650 7.015532 0
M  V30 68 H -3.362364 -1.086077 0.949314 0
M  V30 69 H -5.694156 -1.136644 -1.259484 0
M  V30 70 H -4.848720 -1.308520 -3.650068 0
M  V30 71 H -0.839163 -3.663375 -3.852421 0
M  V30 72 H -1.549927 -3.733190 -5.451683 0
M  V30 73 H 0.840679 -2.246849 -4.822403 0
M  V30 74 H -0.102182 -2.309055 -6.394099 0
M  V30 75 H 0.150369 -0.962724 -3.318994 0
M  V30 76 H 1.565385 -0.181451 -5.183073 0
M  V30 77 H 0.601187 0.004582 -6.760168 0
M  V30 78 H 1.462095 2.311785 -6.977810 0
M  V30 79 H 2.464998 1.637034 -5.708503 0
M  V30 80 H 2.936636 3.894972 -5.404497 0
M  V30 81 H 1.305018 4.395046 -5.880063 0
M  V30 82 H 1.826822 3.003053 -2.023149 0
M  V30 83 H 2.911901 4.269011 -2.564017 0
M  V30 84 H 3.123997 2.615984 -3.279031 0
M  V30 85 H -0.580193 4.016428 -4.288787 0
M  V30 86 H -0.155890 3.463339 -2.665032 0
M  V30 87 H -1.096292 1.693904 -3.952600 0
M  V30 88 H 0.560642 1.412300 -3.285394 0
M  V30 89 H -1.684992 -0.446749 -6.951489 0
M  V30 90 H -2.279636 0.552359 -5.580588 0
M  V30 91 H -2.888570 -2.239674 -6.337613 0
M  V30 92 H -3.841727 -1.084143 -5.407692 0
M  V30 93 H -1.048503 -2.766963 -2.099464 0
M  V30 94 H -0.469105 -4.142345 -0.128881 0
M  V30 95 H 0.066942 -2.400408 -0.454120 0
M  V30 96 H -0.040984 -3.054404 1.177357 0
M  V30 97 H -7.803754 -2.210667 4.755247 0
M  V30 98 H -6.969743 -2.199164 7.149644 0
M  V30 99 H -4.357182 -1.875713 7.104377 0
M  V30 100 H -1.039506 -0.837128 3.229660 0
M  V30 END ATOM
M  V30 BEGIN BOND
M  V30 1 1 1 2
M  V30 2 1 2 3
M  V30 3 2 3 4
M  V30 4 1 4 5
M  V30 5 2 5 6
M  V30 6 1 6 7
M  V30 7 1 7 8
M  V30 8 1 8 9
M  V30 9 2 7 10
M  V30 10 1 10 11
M  V30 11 1 11 12
M  V30 12 2 12 13
M  V30 13 1 12 14
M  V30 14 1 14 15
M  V30 15 2 15 16
M  V30 16 1 16 17
M  V30 17 1 17 18
M  V30 18 2 18 19
M  V30 19 1 19 20
M  V30 20 1 20 21
M  V30 21 1 21 22
M  V30 22 2 22 23
M  V30 23 1 23 24
M  V30 24 2 24 25
M  V30 25 1 25 26
M  V30 26 1 26 27
M  V30 27 1 27 28
M  V30 28 1 28 29
M  V30 29 1 29 30
M  V30 30 1 29 31
M  V30 31 1 31 32
M  V30 32 1 32 33
M  V30 33 1 33 34
M  V30 34 1 34 35
M  V30 35 1 35 36
M  V30 36 1 35 37
M  V30 37 1 37 38
M  V30 38 1 29 39
M  V30 39 1 39 40
M  V30 40 1 25 41
M  V30 41 2 41 42
M  V30 42 1 42 43
M  V30 43 1 43 44
M  V30 44 2 20 45
M  V30 45 1 45 46
M  V30 46 1 46 47
M  V30 47 1 47 48
M  V30 48 2 48 49
M  V30 49 1 49 50
M  V30 50 1 17 51
M  V30 51 1 10 3
M  V30 52 2 51 14
M  V30 53 1 50 18
M  V30 54 1 42 22
M  V30 55 2 50 46
M  V30 56 1 40 26
M  V30 57 1 38 32
M  V30 58 1 1 52
M  V30 59 1 1 53
M  V30 60 1 1 54
M  V30 61 1 2 55
M  V30 62 1 2 56
M  V30 63 1 4 57
M  V30 64 1 5 58
M  V30 65 1 6 59
M  V30 66 1 8 60
M  V30 67 1 8 61
M  V30 68 1 9 62
M  V30 69 1 9 63
M  V30 70 1 9 64
M  V30 71 1 11 65
M  V30 72 1 15 66
M  V30 73 1 16 67
M  V30 74 1 21 68
M  V30 75 1 23 69
M  V30 76 1 24 70
M  V30 77 1 27 71
M  V30 78 1 27 72
M  V30 79 1 28 73
M  V30 80 1 28 74
M  V30 81 1 30 75
M  V30 82 1 31 76
M  V30 83 1 31 77
M  V30 84 1 33 78
M  V30 85 1 33 79
M  V30 86 1 34 80
M  V30 87 1 34 81
M  V30 88 1 36 82
M  V30 89 1 36 83
M  V30 90 1 36 84
M  V30 91 1 37 85
M  V30 92 1 37 86
M  V30 93 1 38 87
M  V30 94 1 38 88
M  V30 95 1 39 89
M  V30 96 1 39 90
M  V30 97 1 40 91
M  V30 98 1 40 92
M  V30 99 1 41 93
M  V30 100 1 44 94
M  V30 101 1 44 95
M  V30 102 1 44 96
M  V30 103 1 47 97
M  V30 104 1 48 98
M  V30 105 1 49 99
M  V30 106 1 51 100
M  V30 END BOND
M  V30 END CTAB
M  END
>  <Dataset>  (960) 
ChEMBL_Kinases

>  <Ligand_Instance>  (960) 
nan

>  <PDB_ID>  (960) 
nan

>  <Standardized_SMILES>  (960) 
CCc1cccc(CC)c1NC(=O)c1ccn(-c2nc(Nc3ccc(N4CCC(O)(CN5CCN(C)CC5)CC4)cc3OC)nc3[nH]ccc23)c1

>  <Name>  (960) 
nan

>  <Pocket>  (960) 
nan

>  <ATP_Site>  (960) 
nan

>  <Peripheral>  (960) 
nan

>  <Num_H_Atoms_ProtBoundConf>  (960) 
nan

>  <Num_Resolved_Atoms>  (960) 
nan

>  <Num_Not_Resolved_Atoms>  (960) 
nan

$$$$
CHEMBL5093029
     RDKit          3D

  0  0  0  0  0  0  0  0  0  0999 V3000
M  V30 BEGIN CTAB
M  V30 COUNTS 59 63 0 0 0
M  V30 BEGIN ATOM
M  V30 1 C 1.652011 1.709886 4.989643 0
M  V30 2 N 1.250274 2.331688 3.746971 0
M  V30 3 C 2.403916 2.702474 2.935957 0
M  V30 4 C 3.163378 1.534628 2.398620 0 CFG=2
M  V30 5 C 4.329920 1.875496 1.579147 0
M  V30 6 C 4.914203 3.108153 1.393785 0
M  V30 7 C 6.017790 3.304849 0.591000 0
M  V30 8 C 6.541832 2.190657 -0.046477 0
M  V30 9 C 5.988396 0.913833 0.106478 0
M  V30 10 Cl 6.745287 -0.409671 -0.751533 0
M  V30 11 C 4.868557 0.772200 0.933001 0
M  V30 12 N 2.231253 0.659529 1.718685 0
M  V30 13 C 1.835663 -0.693648 2.051077 0
M  V30 14 C 0.878408 -1.021508 0.976981 0
M  V30 15 C 0.062865 -2.075472 0.550322 0
M  V30 16 C -0.591265 -1.628432 -0.604124 0
M  V30 17 C -1.524730 -2.517310 -1.290836 0
M  V30 18 N -2.465447 -3.256691 -0.672284 0
M  V30 19 C -3.309298 -4.068372 -1.336883 0
M  V30 20 N -4.216406 -4.757418 -0.520058 0
M  V30 21 C -5.519711 -4.546406 -0.010041 0
M  V30 22 C -6.233474 -5.391709 0.802935 0
M  V30 23 C -7.415815 -4.715796 0.996087 0
M  V30 24 N -7.370594 -3.534377 0.317922 0
M  V30 25 N -6.205063 -3.448393 -0.290381 0
M  V30 26 C -5.965417 -2.258609 -1.067888 0
M  V30 27 N -3.232692 -4.166736 -2.688403 0
M  V30 28 C -2.300034 -3.441549 -3.366181 0
M  V30 29 C -1.444370 -2.615572 -2.668656 0
M  V30 30 C -0.466089 -1.874912 -3.508029 0
M  V30 31 C -0.169318 -0.336841 -0.852153 0
M  V30 32 N 0.718866 0.005971 0.118363 0
M  V30 33 C 1.555440 1.090799 0.548747 0
M  V30 34 O 1.624993 2.175873 -0.041362 0
M  V30 35 H 2.673293 1.957852 5.278715 0
M  V30 36 H 1.434513 0.624042 4.990581 0
M  V30 37 H 0.987405 2.137642 5.789865 0
M  V30 38 H 0.718883 3.202406 3.898929 0
M  V30 39 H 1.976602 3.323076 2.111207 0
M  V30 40 H 3.019975 3.394367 3.537562 0
M  V30 41 H 3.554464 0.962193 3.277081 0
M  V30 42 H 4.422074 3.922055 1.943680 0
M  V30 43 H 6.440896 4.292928 0.477215 0
M  V30 44 H 7.403100 2.368498 -0.668834 0
M  V30 45 H 4.535946 -0.259890 0.967604 0
M  V30 46 H 2.693204 -1.385410 2.094191 0
M  V30 47 H 1.255891 -0.720029 3.001526 0
M  V30 48 H -0.019948 -3.035954 1.043153 0
M  V30 49 H -3.675563 -5.624724 -0.299719 0
M  V30 50 H -5.860237 -6.348916 1.155021 0
M  V30 51 H -8.230904 -5.104959 1.604210 0
M  V30 52 H -4.956522 -2.253419 -1.536198 0
M  V30 53 H -6.695314 -2.261870 -1.912272 0
M  V30 54 H -6.049197 -1.329800 -0.464453 0
M  V30 55 H -2.267229 -3.544301 -4.440523 0
M  V30 56 H -0.892488 -1.014286 -4.035095 0
M  V30 57 H -0.051054 -2.545938 -4.294526 0
M  V30 58 H 0.419230 -1.618699 -2.871698 0
M  V30 59 H -0.521480 0.231583 -1.678108 0
M  V30 END ATOM
M  V30 BEGIN BOND
M  V30 1 1 1 2
M  V30 2 1 2 3
M  V30 3 1 3 4
M  V30 4 1 4 5
M  V30 5 2 5 6
M  V30 6 1 6 7
M  V30 7 2 7 8
M  V30 8 1 8 9
M  V30 9 1 9 10
M  V30 10 2 9 11
M  V30 11 1 4 12
M  V30 12 1 12 13
M  V30 13 1 13 14
M  V30 14 2 14 15
M  V30 15 1 15 16
M  V30 16 1 16 17
M  V30 17 2 17 18
M  V30 18 1 18 19
M  V30 19 1 19 20
M  V30 20 1 20 21
M  V30 21 2 21 22
M  V30 22 1 22 23
M  V30 23 2 23 24
M  V30 24 1 24 25
M  V30 25 1 25 26
M  V30 26 2 19 27
M  V30 27 1 27 28
M  V30 28 2 28 29
M  V30 29 1 29 30
M  V30 30 2 16 31
M  V30 31 1 31 32
M  V30 32 1 32 33
M  V30 33 2 33 34
M  V30 34 1 11 5
M  V30 35 1 33 12
M  V30 36 1 32 14
M  V30 37 1 29 17
M  V30 38 1 25 21
M  V30 39 1 1 35
M  V30 40 1 1 36
M  V30 41 1 1 37
M  V30 42 1 2 38
M  V30 43 1 3 39
M  V30 44 1 3 40
M  V30 45 1 4 41 CFG=1
M  V30 46 1 6 42
M  V30 47 1 7 43
M  V30 48 1 8 44
M  V30 49 1 11 45
M  V30 50 1 13 46
M  V30 51 1 13 47
M  V30 52 1 15 48
M  V30 53 1 20 49
M  V30 54 1 22 50
M  V30 55 1 23 51
M  V30 56 1 26 52
M  V30 57 1 26 53
M  V30 58 1 26 54
M  V30 59 1 28 55
M  V30 60 1 30 56
M  V30 61 1 30 57
M  V30 62 1 30 58
M  V30 63 1 31 59
M  V30 END BOND
M  V30 END CTAB
M  END
>  <Dataset>  (961) 
ChEMBL_Kinases

>  <Ligand_Instance>  (961) 
nan

>  <PDB_ID>  (961) 
nan

>  <Standardized_SMILES>  (961) 
CNC[C@H](c1cccc(Cl)c1)N1Cc2cc(-c3nc(Nc4ccnn4C)ncc3C)cn2C1=O

>  <Name>  (961) 
nan

>  <Pocket>  (961) 
nan

>  <ATP_Site>  (961) 
nan

>  <Peripheral>  (961) 
nan

>  <Num_H_Atoms_ProtBoundConf>  (961) 
nan

>  <Num_Resolved_Atoms>  (961) 
nan

>  <Num_Not_Resolved_Atoms>  (961) 
nan

$$$$
CHEMBL58
     RDKit          3D

  0  0  0  0  0  0  0  0  0  0999 V3000
M  V30 BEGIN CTAB
M  V30 COUNTS 60 62 0 0 0
M  V30 BEGIN ATOM
M  V30 1 O 2.102402 -2.407757 -1.515756 0
M  V30 2 C 2.103321 -1.418676 -0.763764 0
M  V30 3 C 3.358404 -0.744511 -0.555845 0
M  V30 4 C 4.497235 -1.249215 -1.208906 0
M  V30 5 O 4.473853 -2.356692 -2.043270 0
M  V30 6 C 5.637620 -0.533739 -0.934882 0
M  V30 7 C 5.747571 0.565775 -0.125978 0
M  V30 8 C 4.585521 1.017546 0.495301 0
M  V30 9 O 4.636177 2.132590 1.330715 0
M  V30 10 C 3.385799 0.358194 0.278188 0
M  V30 11 C 2.139759 0.801720 0.921274 0
M  V30 12 O 2.344555 1.799845 1.632440 0
M  V30 13 C 0.923812 0.080334 0.669255 0
M  V30 14 C -0.173680 0.555749 1.324159 0
M  V30 15 N -0.412294 1.653027 2.180779 0
M  V30 16 C -0.658872 2.719673 3.018417 0
M  V30 17 C -2.069020 3.274831 3.101956 0
M  V30 18 N -2.714697 3.761061 1.998811 0
M  V30 19 C -3.244010 3.057137 0.937087 0
M  V30 20 C -4.464393 2.208821 1.238844 0
M  V30 21 O -5.547461 2.999628 1.718718 0
M  V30 22 C -1.412991 -0.079646 1.163490 0
M  V30 23 C -1.539457 -1.207174 0.327842 0
M  V30 24 C -0.372171 -1.596559 -0.277056 0
M  V30 25 N -0.477665 -2.727479 -1.134825 0
M  V30 26 C -1.734137 -3.432171 -1.357796 0
M  V30 27 C -1.532411 -4.649545 -2.211106 0
M  V30 28 N -0.611517 -5.586221 -1.790873 0
M  V30 29 C -0.662844 -6.458679 -0.730317 0
M  V30 30 C -0.559105 -6.028169 0.686375 0
M  V30 31 O -1.513995 -5.177585 1.160090 0
M  V30 32 C 0.853334 -1.014671 -0.149285 0
M  V30 33 H 4.965097 -3.201495 -1.706266 0
M  V30 34 H 6.551289 -0.915541 -1.427734 0
M  V30 35 H 6.710357 1.038183 0.006740 0
M  V30 36 H 4.340651 3.009805 0.867206 0
M  V30 37 H 0.541678 1.999695 2.172664 0
M  V30 38 H -0.025923 3.674186 2.859672 0
M  V30 39 H -0.387687 2.501730 4.122435 0
M  V30 40 H -1.949172 4.159787 3.825847 0
M  V30 41 H -2.693088 2.589982 3.770068 0
M  V30 42 H -2.678719 4.778062 1.881891 0
M  V30 43 H -3.606839 3.792256 0.156598 0
M  V30 44 H -2.518819 2.430773 0.408167 0
M  V30 45 H -4.820378 1.819441 0.263904 0
M  V30 46 H -4.296482 1.353431 1.889642 0
M  V30 47 H -5.399741 3.281297 2.643781 0
M  V30 48 H -2.367921 0.166487 1.610436 0
M  V30 49 H -2.471532 -1.729893 0.163408 0
M  V30 50 H 0.232106 -3.218310 -1.699393 0
M  V30 51 H -2.361790 -3.623279 -0.513810 0
M  V30 52 H -2.297344 -2.668880 -2.048376 0
M  V30 53 H -2.588348 -5.113593 -2.305741 0
M  V30 54 H -1.336728 -4.290354 -3.290179 0
M  V30 55 H 0.292791 -5.581597 -2.359297 0
M  V30 56 H -1.569948 -7.175125 -0.843254 0
M  V30 57 H 0.194783 -7.237700 -0.844666 0
M  V30 58 H 0.418559 -5.450697 0.757985 0
M  V30 59 H -0.470774 -6.904705 1.390303 0
M  V30 60 H -1.538044 -5.146352 2.128756 0
M  V30 END ATOM
M  V30 BEGIN BOND
M  V30 1 2 1 2
M  V30 2 1 2 3
M  V30 3 2 3 4
M  V30 4 1 4 5
M  V30 5 1 4 6
M  V30 6 2 6 7
M  V30 7 1 7 8
M  V30 8 1 8 9
M  V30 9 2 8 10
M  V30 10 1 10 11
M  V30 11 2 11 12
M  V30 12 1 11 13
M  V30 13 2 13 14
M  V30 14 1 14 15
M  V30 15 1 15 16
M  V30 16 1 16 17
M  V30 17 1 17 18
M  V30 18 1 18 19
M  V30 19 1 19 20
M  V30 20 1 20 21
M  V30 21 1 14 22
M  V30 22 2 22 23
M  V30 23 1 23 24
M  V30 24 1 24 25
M  V30 25 1 25 26
M  V30 26 1 26 27
M  V30 27 1 27 28
M  V30 28 1 28 29
M  V30 29 1 29 30
M  V30 30 1 30 31
M  V30 31 2 24 32
M  V30 32 1 32 2
M  V30 33 1 10 3
M  V30 34 1 32 13
M  V30 35 1 5 33
M  V30 36 1 6 34
M  V30 37 1 7 35
M  V30 38 1 9 36
M  V30 39 1 15 37
M  V30 40 1 16 38
M  V30 41 1 16 39
M  V30 42 1 17 40
M  V30 43 1 17 41
M  V30 44 1 18 42
M  V30 45 1 19 43
M  V30 46 1 19 44
M  V30 47 1 20 45
M  V30 48 1 20 46
M  V30 49 1 21 47
M  V30 50 1 22 48
M  V30 51 1 23 49
M  V30 52 1 25 50
M  V30 53 1 26 51
M  V30 54 1 26 52
M  V30 55 1 27 53
M  V30 56 1 27 54
M  V30 57 1 28 55
M  V30 58 1 29 56
M  V30 59 1 29 57
M  V30 60 1 30 58
M  V30 61 1 30 59
M  V30 62 1 31 60
M  V30 END BOND
M  V30 END CTAB
M  END
>  <Dataset>  (962) 
ChEMBL_Kinases

>  <Ligand_Instance>  (962) 
nan

>  <PDB_ID>  (962) 
nan

>  <Standardized_SMILES>  (962) 
O=C1c2c(O)ccc(O)c2C(=O)c2c(NCCNCCO)ccc(NCCNCCO)c21

>  <Name>  (962) 
MITOXANTRONE

>  <Pocket>  (962) 
nan

>  <ATP_Site>  (962) 
nan

>  <Peripheral>  (962) 
nan

>  <Num_H_Atoms_ProtBoundConf>  (962) 
nan

>  <Num_Resolved_Atoms>  (962) 
nan

>  <Num_Not_Resolved_Atoms>  (962) 
nan

$$$$
CHEMBL374805
     RDKit          3D

  0  0  0  0  0  0  0  0  0  0999 V3000
M  V30 BEGIN CTAB
M  V30 COUNTS 50 54 0 0 0
M  V30 BEGIN ATOM
M  V30 1 N -0.718004 -1.052124 0.351486 0
M  V30 2 C -0.927343 -1.812892 -0.841465 0 CFG=2
M  V30 3 C -0.231179 -1.292554 -2.060546 0
M  V30 4 O 1.121109 -1.198716 -2.069354 0
M  V30 5 C 2.021374 -0.495886 -1.368591 0
M  V30 6 C 3.258275 -0.925219 -1.909105 0
M  V30 7 N 4.477137 -0.458737 -1.484137 0
M  V30 8 C 4.526976 0.469227 -0.488531 0
M  V30 9 C 3.362858 0.932102 0.082801 0
M  V30 10 C 3.228529 1.914647 1.150736 0
M  V30 11 C 2.169651 1.857494 2.063096 0
M  V30 12 C 2.007132 2.762767 3.082539 0
M  V30 13 C 2.938091 3.767775 3.199436 0
M  V30 14 N 3.048898 4.787031 4.079299 0
M  V30 15 N 4.121430 5.488121 3.774569 0
M  V30 16 C 4.769674 5.002128 2.714973 0
M  V30 17 C 4.026822 3.903613 2.336005 0
M  V30 18 C 4.107945 2.934927 1.329521 0
M  V30 19 C 2.173665 0.435703 -0.376686 0
M  V30 20 C -2.433877 -1.682568 -1.144837 0
M  V30 21 C -3.246168 -2.212990 -0.033989 0
M  V30 22 C -3.962219 -1.566229 0.947568 0
M  V30 23 N -4.574167 -2.403728 1.780941 0
M  V30 24 C -4.255888 -3.633437 1.341077 0
M  V30 25 C -4.623265 -4.875711 1.839419 0
M  V30 26 C -4.180341 -6.029270 1.229754 0
M  V30 27 C -3.370615 -5.968559 0.122691 0
M  V30 28 C -3.014935 -4.729667 -0.359238 0
M  V30 29 C -3.440345 -3.558973 0.226432 0
M  V30 30 H -1.600897 -0.856779 0.889511 0
M  V30 31 H -0.048817 -1.474185 1.019240 0
M  V30 32 H -0.683542 -2.878177 -0.632668 0
M  V30 33 H -0.645839 -1.836252 -2.953153 0
M  V30 34 H -0.675631 -0.247122 -2.207473 0
M  V30 35 H 3.538347 -1.645208 -2.701693 0
M  V30 36 H 5.431883 0.899643 -0.082074 0
M  V30 37 H 1.417430 1.062893 1.985608 0
M  V30 38 H 1.162335 2.668998 3.764155 0
M  V30 39 H 2.393920 4.990033 4.872880 0
M  V30 40 H 5.664184 5.310046 2.194849 0
M  V30 41 H 4.948103 3.030465 0.654465 0
M  V30 42 H 1.224936 0.732799 -0.021660 0
M  V30 43 H -2.683802 -2.148646 -2.119757 0
M  V30 44 H -2.703897 -0.610755 -1.243075 0
M  V30 45 H -3.992978 -0.480774 0.993540 0
M  V30 46 H -5.164589 -2.089652 2.589772 0
M  V30 47 H -5.264790 -4.960790 2.716562 0
M  V30 48 H -4.436668 -7.033285 1.577649 0
M  V30 49 H -2.978927 -6.826257 -0.416433 0
M  V30 50 H -2.380456 -4.606710 -1.226844 0
M  V30 END ATOM
M  V30 BEGIN BOND
M  V30 1 1 1 2
M  V30 2 1 2 3
M  V30 3 1 3 4
M  V30 4 1 4 5
M  V30 5 2 5 6
M  V30 6 1 6 7
M  V30 7 2 7 8
M  V30 8 1 8 9
M  V30 9 1 9 10
M  V30 10 2 10 11
M  V30 11 1 11 12
M  V30 12 2 12 13
M  V30 13 1 13 14
M  V30 14 1 14 15
M  V30 15 2 15 16
M  V30 16 1 16 17
M  V30 17 2 17 18
M  V30 18 2 9 19
M  V30 19 1 2 20
M  V30 20 1 20 21
M  V30 21 2 21 22
M  V30 22 1 22 23
M  V30 23 1 23 24
M  V30 24 2 24 25
M  V30 25 1 25 26
M  V30 26 2 26 27
M  V30 27 1 27 28
M  V30 28 2 28 29
M  V30 29 1 19 5
M  V30 30 1 29 21
M  V30 31 1 18 10
M  V30 32 1 29 24
M  V30 33 1 17 13
M  V30 34 1 1 30
M  V30 35 1 1 31
M  V30 36 1 2 32 CFG=1
M  V30 37 1 3 33
M  V30 38 1 3 34
M  V30 39 1 6 35
M  V30 40 1 8 36
M  V30 41 1 11 37
M  V30 42 1 12 38
M  V30 43 1 14 39
M  V30 44 1 16 40
M  V30 45 1 18 41
M  V30 46 1 19 42
M  V30 47 1 20 43
M  V30 48 1 20 44
M  V30 49 1 22 45
M  V30 50 1 23 46
M  V30 51 1 25 47
M  V30 52 1 26 48
M  V30 53 1 27 49
M  V30 54 1 28 50
M  V30 END BOND
M  V30 END CTAB
M  END
>  <Dataset>  (963) 
ChEMBL_Kinases

>  <Ligand_Instance>  (963) 
nan

>  <PDB_ID>  (963) 
nan

>  <Standardized_SMILES>  (963) 
N[C@H](COc1cncc(-c2ccc3[nH]ncc3c2)c1)Cc1c[nH]c2ccccc12

>  <Name>  (963) 
nan

>  <Pocket>  (963) 
nan

>  <ATP_Site>  (963) 
nan

>  <Peripheral>  (963) 
nan

>  <Num_H_Atoms_ProtBoundConf>  (963) 
nan

>  <Num_Resolved_Atoms>  (963) 
nan

>  <Num_Not_Resolved_Atoms>  (963) 
nan

$$$$
CHEMBL5093047
     RDKit          3D

  0  0  0  0  0  0  0  0  0  0999 V3000
M  V30 BEGIN CTAB
M  V30 COUNTS 35 37 0 0 0
M  V30 BEGIN ATOM
M  V30 1 C -1.465165 -2.629501 2.163180 0
M  V30 2 N -1.233345 -1.206402 2.070025 0
M  V30 3 C -0.090542 -0.576313 1.653590 0
M  V30 4 N 1.098680 -1.193143 1.259292 0
M  V30 5 C 2.406659 -1.136993 0.694672 0
M  V30 6 C 2.355936 -1.154118 -0.790760 0
M  V30 7 C 2.567148 -2.475951 -1.208381 0
M  V30 8 C 2.565385 -2.878020 -2.545910 0
M  V30 9 C 2.341748 -1.922756 -3.530172 0
M  V30 10 C 2.135735 -0.632871 -3.094671 0
M  V30 11 C 2.137248 -0.230237 -1.770387 0
M  V30 12 F 1.958704 1.002887 -1.292068 0
M  V30 13 C -0.256683 0.799954 1.705333 0
M  V30 14 C 0.642386 1.873124 1.401114 0
M  V30 15 N 1.356636 2.752444 1.163429 0
M  V30 16 C -1.530686 1.060245 2.163837 0
M  V30 17 C -2.277605 2.195488 2.428304 0
M  V30 18 N -1.721544 3.468572 2.216813 0
M  V30 19 N -3.529191 2.022167 2.883632 0
M  V30 20 C -4.029890 0.788280 3.072205 0
M  V30 21 N -3.305558 -0.336122 2.815233 0
M  V30 22 C -2.051419 -0.198791 2.359851 0
M  V30 23 H -0.586010 -3.176708 2.565194 0
M  V30 24 H -2.297852 -2.804313 2.907062 0
M  V30 25 H -1.825614 -3.084523 1.219172 0
M  V30 26 H 1.079766 -2.245649 1.429175 0
M  V30 27 H 3.142300 -1.821653 1.115453 0
M  V30 28 H 2.816647 -0.096198 1.011737 0
M  V30 29 H 2.757502 -3.373031 -0.590427 0
M  V30 30 H 2.717844 -3.869892 -2.917434 0
M  V30 31 H 2.314531 -2.083513 -4.594366 0
M  V30 32 H 1.954313 0.172562 -3.792606 0
M  V30 33 H -1.591045 3.785637 1.231524 0
M  V30 34 H -1.628440 3.701284 1.187130 0
M  V30 35 H -5.034419 0.632599 3.439518 0
M  V30 END ATOM
M  V30 BEGIN BOND
M  V30 1 1 1 2
M  V30 2 1 2 3
M  V30 3 1 3 4
M  V30 4 1 4 5
M  V30 5 1 5 6
M  V30 6 2 6 7
M  V30 7 1 7 8
M  V30 8 2 8 9
M  V30 9 1 9 10
M  V30 10 2 10 11
M  V30 11 1 11 12
M  V30 12 2 3 13
M  V30 13 1 13 14
M  V30 14 3 14 15
M  V30 15 1 13 16
M  V30 16 2 16 17
M  V30 17 1 17 18
M  V30 18 1 17 19
M  V30 19 2 19 20
M  V30 20 1 20 21
M  V30 21 2 21 22
M  V30 22 1 22 2
M  V30 23 1 11 6
M  V30 24 1 22 16
M  V30 25 1 1 23
M  V30 26 1 1 24
M  V30 27 1 1 25
M  V30 28 1 4 26
M  V30 29 1 5 27
M  V30 30 1 5 28
M  V30 31 1 7 29
M  V30 32 1 8 30
M  V30 33 1 9 31
M  V30 34 1 10 32
M  V30 35 1 18 33
M  V30 36 1 18 34
M  V30 37 1 20 35
M  V30 END BOND
M  V30 END CTAB
M  END
>  <Dataset>  (964) 
ChEMBL_Kinases

>  <Ligand_Instance>  (964) 
nan

>  <PDB_ID>  (964) 
nan

>  <Standardized_SMILES>  (964) 
Cn1c(NCc2ccccc2F)c(C#N)c2c(N)ncnc21

>  <Name>  (964) 
nan

>  <Pocket>  (964) 
nan

>  <ATP_Site>  (964) 
nan

>  <Peripheral>  (964) 
nan

>  <Num_H_Atoms_ProtBoundConf>  (964) 
nan

>  <Num_Resolved_Atoms>  (964) 
nan

>  <Num_Not_Resolved_Atoms>  (964) 
nan

$$$$
CHEMBL582038
     RDKit          3D

  0  0  0  0  0  0  0  0  0  0999 V3000
M  V30 BEGIN CTAB
M  V30 COUNTS 39 42 0 0 0
M  V30 BEGIN ATOM
M  V30 1 O 2.773542 -4.257603 5.229574 0
M  V30 2 C 2.505848 -3.765221 3.959106 0
M  V30 3 C 1.937847 -4.648365 3.069128 0
M  V30 4 C 1.629198 -4.269941 1.781651 0
M  V30 5 C 1.931204 -2.961151 1.468842 0
M  V30 6 C 2.498564 -2.059632 2.339575 0
M  V30 7 N 2.807287 -0.712155 2.014665 0
M  V30 8 C 2.542395 0.084217 0.869775 0
M  V30 9 C 3.583496 0.619127 0.100249 0
M  V30 10 C 3.311510 1.391090 -1.007765 0
M  V30 11 N 2.055177 1.664753 -1.398382 0
M  V30 12 C 0.999846 1.172218 -0.688654 0
M  V30 13 C -0.289854 1.459829 -1.089520 0
M  V30 14 C -1.373890 0.976989 -0.383057 0
M  V30 15 C -2.760614 1.244612 -0.755899 0
M  V30 16 C -3.684454 1.314458 0.263741 0
M  V30 17 C -5.009590 1.562072 -0.007898 0
M  V30 18 N -5.438033 1.743370 -1.286250 0
M  V30 19 C -4.552040 1.680375 -2.310109 0
M  V30 20 C -3.225380 1.432811 -2.042444 0
M  V30 21 C -1.124029 0.193076 0.743635 0
M  V30 22 C 0.181466 -0.071609 1.111144 0
M  V30 23 C 1.277959 0.400060 0.419568 0
M  V30 24 C 2.797061 -2.460078 3.616937 0
M  V30 25 H 2.068085 -4.761800 5.762667 0
M  V30 26 H 1.718840 -5.666715 3.360881 0
M  V30 27 H 1.184890 -4.907511 1.036255 0
M  V30 28 H 1.742315 -2.517985 0.482323 0
M  V30 29 H 3.316622 -0.080840 2.639880 0
M  V30 30 H 4.616742 0.433029 0.365617 0
M  V30 31 H 4.134887 1.805492 -1.604133 0
M  V30 32 H -0.500630 2.060628 -1.952292 0
M  V30 33 H -3.469842 1.188096 1.322274 0
M  V30 34 H -5.779111 1.627124 0.761132 0
M  V30 35 H -4.887924 1.824104 -3.329981 0
M  V30 36 H -2.494889 1.376577 -2.837657 0
M  V30 37 H -1.967550 -0.204733 1.325476 0
M  V30 38 H 0.291832 -0.679360 1.997922 0
M  V30 39 H 3.238178 -1.870210 4.398137 0
M  V30 END ATOM
M  V30 BEGIN BOND
M  V30 1 1 1 2
M  V30 2 2 2 3
M  V30 3 1 3 4
M  V30 4 2 4 5
M  V30 5 1 5 6
M  V30 6 1 6 7
M  V30 7 1 7 8
M  V30 8 2 8 9
M  V30 9 1 9 10
M  V30 10 2 10 11
M  V30 11 1 11 12
M  V30 12 2 12 13
M  V30 13 1 13 14
M  V30 14 1 14 15
M  V30 15 2 15 16
M  V30 16 1 16 17
M  V30 17 2 17 18
M  V30 18 1 18 19
M  V30 19 2 19 20
M  V30 20 2 14 21
M  V30 21 1 21 22
M  V30 22 2 22 23
M  V30 23 2 6 24
M  V30 24 1 24 2
M  V30 25 1 23 8
M  V30 26 1 23 12
M  V30 27 1 20 15
M  V30 28 1 1 25
M  V30 29 1 3 26
M  V30 30 1 4 27
M  V30 31 1 5 28
M  V30 32 1 7 29
M  V30 33 1 9 30
M  V30 34 1 10 31
M  V30 35 1 13 32
M  V30 36 1 16 33
M  V30 37 1 17 34
M  V30 38 1 19 35
M  V30 39 1 20 36
M  V30 40 1 21 37
M  V30 41 1 22 38
M  V30 42 1 24 39
M  V30 END BOND
M  V30 END CTAB
M  END
>  <Dataset>  (965) 
ChEMBL_Kinases

>  <Ligand_Instance>  (965) 
nan

>  <PDB_ID>  (965) 
nan

>  <Standardized_SMILES>  (965) 
Oc1cccc(Nc2ccnc3cc(-c4ccncc4)ccc23)c1

>  <Name>  (965) 
nan

>  <Pocket>  (965) 
nan

>  <ATP_Site>  (965) 
nan

>  <Peripheral>  (965) 
nan

>  <Num_H_Atoms_ProtBoundConf>  (965) 
nan

>  <Num_Resolved_Atoms>  (965) 
nan

>  <Num_Not_Resolved_Atoms>  (965) 
nan

$$$$
CHEMBL58199
     RDKit          3D

  0  0  0  0  0  0  0  0  0  0999 V3000
M  V30 BEGIN CTAB
M  V30 COUNTS 21 22 0 0 0
M  V30 BEGIN ATOM
M  V30 1 O 1.476466 1.914520 3.534971 0
M  V30 2 C 0.874111 1.508055 2.507811 0
M  V30 3 C 1.176571 0.350778 1.680247 0
M  V30 4 C 2.255602 -0.432223 2.027068 0
M  V30 5 N 2.294664 -1.408553 1.104022 0
M  V30 6 C 1.317113 -1.310893 0.186122 0
M  V30 7 C 0.952409 -2.048789 -0.920398 0
M  V30 8 C -0.149632 -1.590612 -1.611500 0
M  V30 9 C -0.889089 -0.464483 -1.267295 0
M  V30 10 C -0.497749 0.264741 -0.141700 0
M  V30 11 C 0.602025 -0.189694 0.550719 0
M  V30 12 C -0.158553 2.539686 2.452397 0
M  V30 13 F 0.068173 3.396879 3.539861 0
M  V30 14 F -0.084459 3.365716 1.343221 0
M  V30 15 F -1.436508 2.049876 2.668379 0
M  V30 16 H 2.973467 -0.359787 2.843401 0
M  V30 17 H 3.003001 -2.195479 1.062339 0
M  V30 18 H 1.501540 -2.921883 -1.212325 0
M  V30 19 H -0.457000 -2.154827 -2.487159 0
M  V30 20 H -1.739878 -0.166484 -1.855815 0
M  V30 21 H -1.034433 1.138617 0.164190 0
M  V30 END ATOM
M  V30 BEGIN BOND
M  V30 1 2 1 2
M  V30 2 1 2 3
M  V30 3 2 3 4
M  V30 4 1 4 5
M  V30 5 1 5 6
M  V30 6 2 6 7
M  V30 7 1 7 8
M  V30 8 2 8 9
M  V30 9 1 9 10
M  V30 10 2 10 11
M  V30 11 1 2 12
M  V30 12 1 12 13
M  V30 13 1 12 14
M  V30 14 1 12 15
M  V30 15 1 11 3
M  V30 16 1 11 6
M  V30 17 1 4 16
M  V30 18 1 5 17
M  V30 19 1 7 18
M  V30 20 1 8 19
M  V30 21 1 9 20
M  V30 22 1 10 21
M  V30 END BOND
M  V30 END CTAB
M  END
>  <Dataset>  (966) 
ChEMBL_Kinases

>  <Ligand_Instance>  (966) 
nan

>  <PDB_ID>  (966) 
nan

>  <Standardized_SMILES>  (966) 
O=C(c1c[nH]c2ccccc12)C(F)(F)F

>  <Name>  (966) 
nan

>  <Pocket>  (966) 
nan

>  <ATP_Site>  (966) 
nan

>  <Peripheral>  (966) 
nan

>  <Num_H_Atoms_ProtBoundConf>  (966) 
nan

>  <Num_Resolved_Atoms>  (966) 
nan

>  <Num_Not_Resolved_Atoms>  (966) 
nan

$$$$
CHEMBL581880
     RDKit          3D

  0  0  0  0  0  0  0  0  0  0999 V3000
M  V30 BEGIN CTAB
M  V30 COUNTS 68 69 0 0 0
M  V30 BEGIN ATOM
M  V30 1 C -0.495724 -0.593410 4.823346 0
M  V30 2 C 0.525276 -1.696105 4.775876 0
M  V30 3 C 1.820265 -1.310616 4.125678 0
M  V30 4 C 2.712725 -2.537198 4.171049 0
M  V30 5 C 2.463962 -0.218742 4.954061 0
M  V30 6 C 1.653987 -0.808733 2.736919 0
M  V30 7 C 1.456404 0.549702 2.552691 0
M  V30 8 C 1.301966 1.001497 1.242740 0
M  V30 9 C 1.331850 0.197059 0.131097 0
M  V30 10 O 1.177782 0.652358 -1.138898 0
M  V30 11 C 0.978017 1.883378 -1.689478 0
M  V30 12 C -0.202274 2.707206 -1.387715 0
M  V30 13 C -1.557089 2.179144 -1.749626 0
M  V30 14 C -1.835434 0.891569 -1.035336 0
M  V30 15 N -3.174880 0.379614 -1.360113 0 CHG=1 VAL=4
M  V30 16 C -4.272829 0.699433 -0.653198 0
M  V30 17 C -5.496258 0.156605 -1.048866 0
M  V30 18 C -5.578177 -0.685726 -2.136056 0
M  V30 19 C -6.866029 -1.278677 -2.580895 0
M  V30 20 C -4.437743 -1.007763 -2.856959 0
M  V30 21 C -3.249220 -0.451204 -2.434130 0
M  V30 22 C 1.532028 -1.182243 0.296657 0
M  V30 23 C 1.608864 -2.150421 -0.791253 0
M  V30 24 C 1.844506 -3.533138 -0.169297 0
M  V30 25 C 0.335930 -2.285402 -1.562490 0
M  V30 26 C 2.783234 -1.955457 -1.716851 0
M  V30 27 C 4.083004 -2.062413 -0.984661 0
M  V30 28 C 1.683589 -1.602602 1.629909 0
M  V30 29 H -0.265292 0.065795 5.662076 0
M  V30 30 H -1.465868 -1.088816 5.080079 0
M  V30 31 H -0.630180 -0.064837 3.861221 0
M  V30 32 H 0.101867 -2.643151 4.360822 0
M  V30 33 H 0.767599 -1.940452 5.832369 0
M  V30 34 H 3.299698 -2.544052 5.096826 0
M  V30 35 H 3.376243 -2.607119 3.306282 0
M  V30 36 H 2.095304 -3.475865 4.190211 0
M  V30 37 H 2.960203 -0.756296 5.807060 0
M  V30 38 H 1.699004 0.486652 5.301412 0
M  V30 39 H 3.231447 0.331016 4.349779 0
M  V30 40 H 1.428325 1.205707 3.411496 0
M  V30 41 H 1.164812 2.060030 1.193542 0
M  V30 42 H 1.035801 1.807750 -2.824385 0
M  V30 43 H 1.886045 2.561616 -1.488413 0
M  V30 44 H -0.077210 3.682891 -1.988384 0
M  V30 45 H -0.232440 3.089506 -0.324296 0
M  V30 46 H -1.593662 2.069076 -2.857089 0
M  V30 47 H -2.319764 2.908806 -1.390031 0
M  V30 48 H -1.066783 0.172385 -1.389792 0
M  V30 49 H -1.778896 1.064151 0.034846 0
M  V30 50 H -4.180696 1.362248 0.195085 0
M  V30 51 H -6.399455 0.399021 -0.494563 0
M  V30 52 H -7.432174 -1.584571 -1.680918 0
M  V30 53 H -7.442289 -0.586251 -3.217174 0
M  V30 54 H -6.680138 -2.235086 -3.140540 0
M  V30 55 H -4.434479 -1.669081 -3.728158 0
M  V30 56 H -2.354713 -0.699452 -2.993873 0
M  V30 57 H 2.813932 -3.516465 0.357974 0
M  V30 58 H 1.950195 -4.289972 -0.981301 0
M  V30 59 H 0.992130 -3.805635 0.484496 0
M  V30 60 H 0.262550 -1.548696 -2.379239 0
M  V30 61 H 0.181153 -3.306168 -1.975039 0
M  V30 62 H -0.515316 -2.095355 -0.876988 0
M  V30 63 H 2.690812 -1.061121 -2.363759 0
M  V30 64 H 2.748988 -2.826830 -2.423473 0
M  V30 65 H 4.096839 -1.665229 0.032064 0
M  V30 66 H 4.865536 -1.586473 -1.642277 0
M  V30 67 H 4.429479 -3.129599 -0.910101 0
M  V30 68 H 1.846438 -2.658657 1.902719 0
M  V30 END ATOM
M  V30 BEGIN BOND
M  V30 1 1 1 2
M  V30 2 1 2 3
M  V30 3 1 3 4
M  V30 4 1 3 5
M  V30 5 1 3 6
M  V30 6 2 6 7
M  V30 7 1 7 8
M  V30 8 2 8 9
M  V30 9 1 9 10
M  V30 10 1 10 11
M  V30 11 1 11 12
M  V30 12 1 12 13
M  V30 13 1 13 14
M  V30 14 1 14 15
M  V30 15 2 15 16
M  V30 16 1 16 17
M  V30 17 2 17 18
M  V30 18 1 18 19
M  V30 19 1 18 20
M  V30 20 2 20 21
M  V30 21 1 9 22
M  V30 22 1 22 23
M  V30 23 1 23 24
M  V30 24 1 23 25
M  V30 25 1 23 26
M  V30 26 1 26 27
M  V30 27 2 22 28
M  V30 28 1 28 6
M  V30 29 1 21 15
M  V30 30 1 1 29
M  V30 31 1 1 30
M  V30 32 1 1 31
M  V30 33 1 2 32
M  V30 34 1 2 33
M  V30 35 1 4 34
M  V30 36 1 4 35
M  V30 37 1 4 36
M  V30 38 1 5 37
M  V30 39 1 5 38
M  V30 40 1 5 39
M  V30 41 1 7 40
M  V30 42 1 8 41
M  V30 43 1 11 42
M  V30 44 1 11 43
M  V30 45 1 12 44
M  V30 46 1 12 45
M  V30 47 1 13 46
M  V30 48 1 13 47
M  V30 49 1 14 48
M  V30 50 1 14 49
M  V30 51 1 16 50
M  V30 52 1 17 51
M  V30 53 1 19 52
M  V30 54 1 19 53
M  V30 55 1 19 54
M  V30 56 1 20 55
M  V30 57 1 21 56
M  V30 58 1 24 57
M  V30 59 1 24 58
M  V30 60 1 24 59
M  V30 61 1 25 60
M  V30 62 1 25 61
M  V30 63 1 25 62
M  V30 64 1 26 63
M  V30 65 1 26 64
M  V30 66 1 27 65
M  V30 67 1 27 66
M  V30 68 1 27 67
M  V30 69 1 28 68
M  V30 END BOND
M  V30 END CTAB
M  END
>  <Dataset>  (967) 
ChEMBL_Kinases

>  <Ligand_Instance>  (967) 
nan

>  <PDB_ID>  (967) 
nan

>  <Standardized_SMILES>  (967) 
CCC(C)(C)c1ccc(OCCCC[n+]2ccc(C)cc2)c(C(C)(C)CC)c1

>  <Name>  (967) 
nan

>  <Pocket>  (967) 
nan

>  <ATP_Site>  (967) 
nan

>  <Peripheral>  (967) 
nan

>  <Num_H_Atoms_ProtBoundConf>  (967) 
nan

>  <Num_Resolved_Atoms>  (967) 
nan

>  <Num_Not_Resolved_Atoms>  (967) 
nan

$$$$
CHEMBL581872
     RDKit          3D

  0  0  0  0  0  0  0  0  0  0999 V3000
M  V30 BEGIN CTAB
M  V30 COUNTS 67 70 0 0 0
M  V30 BEGIN ATOM
M  V30 1 C 2.428351 -4.776293 6.071497 0
M  V30 2 O 2.112261 -4.795016 4.691009 0
M  V30 3 C 2.060329 -3.575722 4.029650 0
M  V30 4 C 2.292090 -2.333222 4.605029 0
M  V30 5 C 2.209620 -1.181205 3.833557 0
M  V30 6 C 1.893208 -1.268060 2.475841 0
M  V30 7 C 1.814212 -0.047600 1.695201 0
M  V30 8 N 2.824586 0.373135 0.889497 0
M  V30 9 C 4.102171 -0.302546 0.683592 0
M  V30 10 C 2.408603 1.533784 0.323395 0
M  V30 11 C 3.100675 2.337247 -0.575304 0
M  V30 12 C 2.495176 3.487487 -1.036392 0
M  V30 13 C 1.224904 3.776457 -0.573986 0
M  V30 14 C 0.536192 2.984081 0.315515 0
M  V30 15 C 1.140287 1.825824 0.782727 0
M  V30 16 N 0.789694 0.822324 1.639483 0 CHG=1 VAL=4
M  V30 17 C -0.476073 0.748708 2.343637 0
M  V30 18 C -1.524629 0.019965 1.589530 0
M  V30 19 O -2.589576 0.015360 2.297067 0
M  V30 20 O -1.352416 -0.557671 0.316471 0
M  V30 21 C -2.417637 -1.236053 -0.325642 0
M  V30 22 C -2.134818 -2.636505 -0.704237 0
M  V30 23 C -1.352860 -2.874924 -1.944904 0
M  V30 24 C 0.053424 -3.386505 -1.623423 0
M  V30 25 C -1.271147 -1.754297 -2.917376 0
M  V30 26 C -1.558538 -0.388859 -2.397730 0
M  V30 27 C -2.811842 -0.473986 -1.571667 0
M  V30 28 C -3.435630 0.856062 -1.303288 0
M  V30 29 C -4.686694 0.646375 -0.483350 0
M  V30 30 C -3.845473 1.445202 -2.626873 0
M  V30 31 C 1.669735 -2.519552 1.940020 0
M  V30 32 C 1.743486 -3.697863 2.682588 0
M  V30 33 H 2.381450 -5.788643 6.520132 0
M  V30 34 H 1.728609 -4.052573 6.551154 0
M  V30 35 H 3.469349 -4.381970 6.142450 0
M  V30 36 H 2.531371 -2.342542 5.658423 0
M  V30 37 H 2.402823 -0.251240 4.350828 0
M  V30 38 H 4.747631 0.386177 0.095366 0
M  V30 39 H 4.649281 -0.427310 1.657978 0
M  V30 40 H 4.008079 -1.243315 0.135026 0
M  V30 41 H 4.108624 2.058510 -0.908919 0
M  V30 42 H 3.038770 4.109401 -1.736124 0
M  V30 43 H 0.772327 4.690960 -0.955474 0
M  V30 44 H -0.462538 3.225454 0.669530 0
M  V30 45 H -0.823651 1.771163 2.655711 0
M  V30 46 H -0.338009 0.219351 3.330533 0
M  V30 47 H -3.343482 -1.223847 0.321785 0
M  V30 48 H -3.099454 -3.223295 -0.690305 0
M  V30 49 H -1.561178 -3.093675 0.155125 0
M  V30 50 H -1.829022 -3.731382 -2.482141 0
M  V30 51 H -0.058796 -4.111417 -0.802647 0
M  V30 52 H 0.413377 -3.962674 -2.511630 0
M  V30 53 H 0.741192 -2.544637 -1.412742 0
M  V30 54 H -0.254090 -1.729909 -3.360339 0
M  V30 55 H -1.948938 -1.909109 -3.804288 0
M  V30 56 H -1.740014 0.272912 -3.264779 0
M  V30 57 H -0.734276 0.056823 -1.815745 0
M  V30 58 H -3.511848 -1.131167 -2.127653 0
M  V30 59 H -2.686962 1.495476 -0.792716 0
M  V30 60 H -4.510034 0.942423 0.560815 0
M  V30 61 H -5.553716 1.225347 -0.888548 0
M  V30 62 H -5.035566 -0.407794 -0.475675 0
M  V30 63 H -4.261030 0.605188 -3.254745 0
M  V30 64 H -2.979486 1.891671 -3.145464 0
M  V30 65 H -4.677044 2.166601 -2.459604 0
M  V30 66 H 1.431177 -2.497960 0.885410 0
M  V30 67 H 1.554166 -4.629344 2.182912 0
M  V30 END ATOM
M  V30 BEGIN BOND
M  V30 1 1 1 2
M  V30 2 1 2 3
M  V30 3 2 3 4
M  V30 4 1 4 5
M  V30 5 2 5 6
M  V30 6 1 6 7
M  V30 7 1 7 8
M  V30 8 1 8 9
M  V30 9 1 8 10
M  V30 10 2 10 11
M  V30 11 1 11 12
M  V30 12 2 12 13
M  V30 13 1 13 14
M  V30 14 2 14 15
M  V30 15 1 15 16
M  V30 16 1 16 17
M  V30 17 1 17 18
M  V30 18 2 18 19
M  V30 19 1 18 20
M  V30 20 1 20 21
M  V30 21 1 21 22
M  V30 22 1 22 23
M  V30 23 1 23 24
M  V30 24 1 23 25
M  V30 25 1 25 26
M  V30 26 1 26 27
M  V30 27 1 27 28
M  V30 28 1 28 29
M  V30 29 1 28 30
M  V30 30 1 6 31
M  V30 31 2 31 32
M  V30 32 1 32 3
M  V30 33 2 16 7
M  V30 34 1 27 21
M  V30 35 1 15 10
M  V30 36 1 1 33
M  V30 37 1 1 34
M  V30 38 1 1 35
M  V30 39 1 4 36
M  V30 40 1 5 37
M  V30 41 1 9 38
M  V30 42 1 9 39
M  V30 43 1 9 40
M  V30 44 1 11 41
M  V30 45 1 12 42
M  V30 46 1 13 43
M  V30 47 1 14 44
M  V30 48 1 17 45
M  V30 49 1 17 46
M  V30 50 1 21 47
M  V30 51 1 22 48
M  V30 52 1 22 49
M  V30 53 1 23 50
M  V30 54 1 24 51
M  V30 55 1 24 52
M  V30 56 1 24 53
M  V30 57 1 25 54
M  V30 58 1 25 55
M  V30 59 1 26 56
M  V30 60 1 26 57
M  V30 61 1 27 58
M  V30 62 1 28 59
M  V30 63 1 29 60
M  V30 64 1 29 61
M  V30 65 1 29 62
M  V30 66 1 30 63
M  V30 67 1 30 64
M  V30 68 1 30 65
M  V30 69 1 31 66
M  V30 70 1 32 67
M  V30 END BOND
M  V30 END CTAB
M  END
>  <Dataset>  (968) 
ChEMBL_Kinases

>  <Ligand_Instance>  (968) 
nan

>  <PDB_ID>  (968) 
nan

>  <Standardized_SMILES>  (968) 
COc1ccc(-c2n(C)c3ccccc3[n+]2CC(=O)OC2CC(C)CCC2C(C)C)cc1

>  <Name>  (968) 
nan

>  <Pocket>  (968) 
nan

>  <ATP_Site>  (968) 
nan

>  <Peripheral>  (968) 
nan

>  <Num_H_Atoms_ProtBoundConf>  (968) 
nan

>  <Num_Resolved_Atoms>  (968) 
nan

>  <Num_Not_Resolved_Atoms>  (968) 
nan

$$$$
CHEMBL3747708
     RDKit          3D

  0  0  0  0  0  0  0  0  0  0999 V3000
M  V30 BEGIN CTAB
M  V30 COUNTS 49 51 0 0 0
M  V30 BEGIN ATOM
M  V30 1 C 0.472114 -5.556248 3.577344 0
M  V30 2 C 0.889846 -4.204308 3.158201 0
M  V30 3 C 1.384858 -3.424113 4.210066 0
M  V30 4 C 1.802152 -2.141644 3.918269 0
M  V30 5 C 1.741874 -1.627550 2.641650 0
M  V30 6 C 1.256903 -2.380598 1.591739 0
M  V30 7 O 1.077992 -2.144420 0.242257 0
M  V30 8 C 1.391230 -0.909322 -0.272840 0
M  V30 9 C 2.411679 -0.850165 -1.196857 0
M  V30 10 C 2.805863 0.332067 -1.774647 0
M  V30 11 F 3.817875 0.300365 -2.673607 0
M  V30 12 C 2.167481 1.502020 -1.426755 0
M  V30 13 C 1.138945 1.506942 -0.508890 0
M  V30 14 N 0.607074 2.774595 -0.279964 0
M  V30 15 C -0.584861 3.509947 -0.371597 0
M  V30 16 C -1.335169 4.180279 0.572232 0
M  V30 17 C -2.484969 4.823849 0.175643 0
M  V30 18 C -2.948569 4.846614 -1.121692 0
M  V30 19 I -4.726452 5.871976 -1.589458 0
M  V30 20 C -2.205893 4.180572 -2.068377 0
M  V30 21 C -1.031018 3.515303 -1.699775 0
M  V30 22 F -0.428801 2.911757 -2.772524 0
M  V30 23 C 0.806913 0.290522 0.019389 0
M  V30 24 C -0.295126 0.325325 0.956787 0
M  V30 25 N -1.151361 -0.406089 1.807217 0
M  V30 26 O -1.074157 1.115263 1.493814 0
M  V30 27 C 0.824875 -3.689614 1.856920 0
M  V30 28 N 0.304671 -4.639633 0.976562 0
M  V30 29 S -1.327249 -4.873221 0.577840 0
M  V30 30 N -1.976419 -3.455281 -0.167226 0
M  V30 31 O -2.178869 -5.204648 1.766573 0
M  V30 32 O -1.532925 -5.984784 -0.412358 0
M  V30 33 H -0.364470 -5.472053 4.287479 0
M  V30 34 H 0.273930 -6.231828 2.725592 0
M  V30 35 H 1.312514 -6.025834 4.159599 0
M  V30 36 H 1.456445 -3.771969 5.231239 0
M  V30 37 H 2.199934 -1.458633 4.657447 0
M  V30 38 H 2.040476 -0.653260 2.295735 0
M  V30 39 H 2.924664 -1.759150 -1.483029 0
M  V30 40 H 2.541832 2.373683 -1.926895 0
M  V30 41 H 1.239169 3.516451 0.093654 0
M  V30 42 H -0.899775 4.107605 1.544051 0
M  V30 43 H -3.012117 5.321472 0.967257 0
M  V30 44 H -2.592288 4.215090 -3.075090 0
M  V30 45 H -1.490823 -1.404766 1.709104 0
M  V30 46 H -1.468476 -1.412765 1.670282 0
M  V30 47 H 1.053613 -5.233034 0.556753 0
M  V30 48 H -1.325899 -3.012231 -0.821979 0
M  V30 49 H -2.916335 -3.701985 -0.551535 0
M  V30 END ATOM
M  V30 BEGIN BOND
M  V30 1 1 1 2
M  V30 2 2 2 3
M  V30 3 1 3 4
M  V30 4 2 4 5
M  V30 5 1 5 6
M  V30 6 1 6 7
M  V30 7 1 7 8
M  V30 8 2 8 9
M  V30 9 1 9 10
M  V30 10 1 10 11
M  V30 11 2 10 12
M  V30 12 1 12 13
M  V30 13 1 13 14
M  V30 14 1 14 15
M  V30 15 2 15 16
M  V30 16 1 16 17
M  V30 17 2 17 18
M  V30 18 1 18 19
M  V30 19 1 18 20
M  V30 20 2 20 21
M  V30 21 1 21 22
M  V30 22 2 13 23
M  V30 23 1 23 24
M  V30 24 1 24 25
M  V30 25 2 24 26
M  V30 26 2 6 27
M  V30 27 1 27 28
M  V30 28 1 28 29
M  V30 29 1 29 30
M  V30 30 2 29 31
M  V30 31 2 29 32
M  V30 32 1 27 2
M  V30 33 1 23 8
M  V30 34 1 21 15
M  V30 35 1 1 33
M  V30 36 1 1 34
M  V30 37 1 1 35
M  V30 38 1 3 36
M  V30 39 1 4 37
M  V30 40 1 5 38
M  V30 41 1 9 39
M  V30 42 1 12 40
M  V30 43 1 14 41
M  V30 44 1 16 42
M  V30 45 1 17 43
M  V30 46 1 20 44
M  V30 47 1 25 45
M  V30 48 1 25 46
M  V30 49 1 28 47
M  V30 50 1 30 48
M  V30 51 1 30 49
M  V30 END BOND
M  V30 END CTAB
M  END
>  <Dataset>  (969) 
ChEMBL_Kinases

>  <Ligand_Instance>  (969) 
nan

>  <PDB_ID>  (969) 
nan

>  <Standardized_SMILES>  (969) 
Cc1cccc(Oc2cc(F)cc(Nc3ccc(I)cc3F)c2C(N)=O)c1NS(N)(=O)=O

>  <Name>  (969) 
nan

>  <Pocket>  (969) 
nan

>  <ATP_Site>  (969) 
nan

>  <Peripheral>  (969) 
nan

>  <Num_H_Atoms_ProtBoundConf>  (969) 
nan

>  <Num_Resolved_Atoms>  (969) 
nan

>  <Num_Not_Resolved_Atoms>  (969) 
nan

$$$$
CHEMBL580819
     RDKit          3D

  0  0  0  0  0  0  0  0  0  0999 V3000
M  V30 BEGIN CTAB
M  V30 COUNTS 50 54 0 0 0
M  V30 BEGIN ATOM
M  V30 1 O -0.844050 0.178951 2.580738 0
M  V30 2 C -0.743748 -0.894908 1.900809 0
M  V30 3 N 0.564100 -1.196516 1.436142 0
M  V30 4 C 1.466446 -0.161788 1.877622 0
M  V30 5 C 2.052132 -0.398881 3.111912 0
M  V30 6 C 2.945217 0.510932 3.668113 0
M  V30 7 C 3.223185 1.666751 2.931131 0
M  V30 8 C 2.625369 1.873661 1.707882 0
M  V30 9 C 2.941389 3.098594 0.963047 0
M  V30 10 N 2.481229 3.492143 -0.222528 0
M  V30 11 C 3.024622 4.696089 -0.562308 0
M  V30 12 C 2.937978 5.573974 -1.623553 0
M  V30 13 C 3.665962 6.760159 -1.633815 0
M  V30 14 C 4.486896 7.063185 -0.566710 0
M  V30 15 C 4.589714 6.195910 0.510735 0
M  V30 16 C 3.859180 5.014702 0.511514 0
M  V30 17 N 3.799166 4.026799 1.440412 0
M  V30 18 C 1.737267 0.982809 1.140303 0
M  V30 19 C -1.948101 -1.679804 1.677111 0
M  V30 20 C -3.111968 -1.191249 2.225694 0
M  V30 21 C -4.278977 -1.934515 2.019530 0
M  V30 22 C -4.194391 -3.080645 1.298561 0
M  V30 23 C -3.061442 -3.600009 0.737696 0
M  V30 24 N -2.937025 -4.790667 -0.019122 0
M  V30 25 C -3.926973 -5.725610 -0.380702 0
M  V30 26 O -5.107875 -5.526370 -0.005896 0
M  V30 27 C -3.649219 -6.918042 -1.171378 0
M  V30 28 C -2.386194 -7.273226 -1.659211 0
M  V30 29 C -2.505426 -8.455837 -2.358998 0
M  V30 30 C -3.865802 -8.765568 -2.258136 0
M  V30 31 O -4.489922 -7.833732 -1.553234 0
M  V30 32 C -1.928748 -2.849493 0.955648 0
M  V30 33 H 0.679129 -2.051852 0.887067 0
M  V30 34 H 1.844613 -1.293887 3.695606 0
M  V30 35 H 3.405154 0.342841 4.618524 0
M  V30 36 H 3.918663 2.352473 3.388014 0
M  V30 37 H 2.275240 5.291966 -2.446069 0
M  V30 38 H 3.586954 7.442107 -2.477910 0
M  V30 39 H 5.080701 7.980793 -0.523038 0
M  V30 40 H 5.237404 6.441657 1.345690 0
M  V30 41 H 4.340305 4.046624 2.331429 0
M  V30 42 H 1.254473 1.107279 0.196874 0
M  V30 43 H -3.175105 -0.277497 2.799575 0
M  V30 44 H -5.199043 -1.565614 2.442598 0
M  V30 45 H -5.122263 -3.601170 1.177822 0
M  V30 46 H -1.998760 -5.061817 -0.386140 0
M  V30 47 H -1.435423 -6.769165 -1.553329 0
M  V30 48 H -1.820347 -9.091188 -2.895104 0
M  V30 49 H -4.412833 -9.615587 -2.662502 0
M  V30 50 H -0.977331 -3.177201 0.551145 0
M  V30 END ATOM
M  V30 BEGIN BOND
M  V30 1 2 1 2
M  V30 2 1 2 3
M  V30 3 1 3 4
M  V30 4 2 4 5
M  V30 5 1 5 6
M  V30 6 2 6 7
M  V30 7 1 7 8
M  V30 8 1 8 9
M  V30 9 2 9 10
M  V30 10 1 10 11
M  V30 11 2 11 12
M  V30 12 1 12 13
M  V30 13 2 13 14
M  V30 14 1 14 15
M  V30 15 2 15 16
M  V30 16 1 16 17
M  V30 17 2 8 18
M  V30 18 1 2 19
M  V30 19 2 19 20
M  V30 20 1 20 21
M  V30 21 2 21 22
M  V30 22 1 22 23
M  V30 23 1 23 24
M  V30 24 1 24 25
M  V30 25 2 25 26
M  V30 26 1 25 27
M  V30 27 2 27 28
M  V30 28 1 28 29
M  V30 29 2 29 30
M  V30 30 1 30 31
M  V30 31 2 23 32
M  V30 32 1 18 4
M  V30 33 1 32 19
M  V30 34 1 17 9
M  V30 35 1 31 27
M  V30 36 1 16 11
M  V30 37 1 3 33
M  V30 38 1 5 34
M  V30 39 1 6 35
M  V30 40 1 7 36
M  V30 41 1 12 37
M  V30 42 1 13 38
M  V30 43 1 14 39
M  V30 44 1 15 40
M  V30 45 1 17 41
M  V30 46 1 18 42
M  V30 47 1 20 43
M  V30 48 1 21 44
M  V30 49 1 22 45
M  V30 50 1 24 46
M  V30 51 1 28 47
M  V30 52 1 29 48
M  V30 53 1 30 49
M  V30 54 1 32 50
M  V30 END BOND
M  V30 END CTAB
M  END
>  <Dataset>  (970) 
ChEMBL_Kinases

>  <Ligand_Instance>  (970) 
nan

>  <PDB_ID>  (970) 
nan

>  <Standardized_SMILES>  (970) 
O=C(Nc1cccc(-c2nc3ccccc3[nH]2)c1)c1cccc(NC(=O)c2ccco2)c1

>  <Name>  (970) 
nan

>  <Pocket>  (970) 
nan

>  <ATP_Site>  (970) 
nan

>  <Peripheral>  (970) 
nan

>  <Num_H_Atoms_ProtBoundConf>  (970) 
nan

>  <Num_Resolved_Atoms>  (970) 
nan

>  <Num_Not_Resolved_Atoms>  (970) 
nan

$$$$
CHEMBL3747699
     RDKit          3D

  0  0  0  0  0  0  0  0  0  0999 V3000
M  V30 BEGIN CTAB
M  V30 COUNTS 53 56 0 0 0
M  V30 BEGIN ATOM
M  V30 1 C 0.584429 -0.334738 4.223785 0
M  V30 2 N 1.200110 0.250561 3.056001 0
M  V30 3 C 2.440024 0.817879 3.064152 0
M  V30 4 O 2.986133 0.770446 4.215375 0
M  V30 5 C 2.992143 1.371208 1.906983 0
M  V30 6 O 4.241277 1.877628 2.168271 0
M  V30 7 C 5.033689 2.496824 1.214282 0
M  V30 8 C 6.234129 1.841140 1.026849 0
M  V30 9 C 7.175872 2.305993 0.107205 0
M  V30 10 C 6.882589 3.440035 -0.615365 0
M  V30 11 F 7.672509 4.042061 -1.554126 0
M  V30 12 C 5.697893 4.093689 -0.435501 0
M  V30 13 C 4.776408 3.618231 0.480692 0
M  V30 14 F 3.581520 4.204148 0.723916 0
M  V30 15 C 2.235367 1.322196 0.754143 0
M  V30 16 C 0.995129 0.750301 0.763283 0
M  V30 17 C 0.302960 0.741240 -0.428647 0
M  V30 18 N -0.919857 0.180259 -0.430465 0
M  V30 19 C -1.461087 -0.355736 0.679374 0
M  V30 20 N -2.764106 -0.936025 0.610669 0
M  V30 21 C -3.479260 -0.943458 -0.629030 0
M  V30 22 C -4.825813 -1.615362 -0.414026 0
M  V30 23 C -4.597499 -2.989588 0.154443 0
M  V30 24 N -3.746481 -3.816507 -0.643348 0
M  V30 25 S -3.499134 -5.316372 0.126587 0
M  V30 26 C -5.107037 -6.097653 0.276790 0
M  V30 27 O -2.593211 -6.229513 -0.608955 0
M  V30 28 O -2.945628 -5.118708 1.526900 0
M  V30 29 C -2.501264 -3.193971 -1.029216 0
M  V30 30 C -2.757585 -1.840086 -1.639649 0
M  V30 31 N -0.750940 -0.324318 1.816794 0
M  V30 32 C 0.478334 0.213124 1.920932 0
M  V30 33 H 0.768609 -1.420804 4.284131 0
M  V30 34 H 1.096176 0.100417 5.126372 0
M  V30 35 H -0.510790 -0.082416 4.275553 0
M  V30 36 H 6.593110 0.935974 1.530287 0
M  V30 37 H 8.134677 1.862206 -0.105643 0
M  V30 38 H 5.349900 5.002815 -0.948466 0
M  V30 39 H 2.753763 1.774540 -0.079864 0
M  V30 40 H 0.718932 1.165521 -1.329320 0
M  V30 41 H -3.153360 -1.343541 1.495051 0
M  V30 42 H -3.622819 0.045324 -1.077014 0
M  V30 43 H -5.286896 -1.766764 -1.426776 0
M  V30 44 H -5.480068 -1.064421 0.266182 0
M  V30 45 H -5.613048 -3.484556 0.131265 0
M  V30 46 H -4.340827 -2.981732 1.235253 0
M  V30 47 H -5.740382 -5.420031 0.884036 0
M  V30 48 H -5.040830 -7.110805 0.697192 0
M  V30 49 H -5.531164 -6.075027 -0.755535 0
M  V30 50 H -1.771908 -3.146903 -0.209809 0
M  V30 51 H -2.052373 -3.831455 -1.824891 0
M  V30 52 H -1.799371 -1.400147 -1.976688 0
M  V30 53 H -3.446878 -1.997106 -2.512812 0
M  V30 END ATOM
M  V30 BEGIN BOND
M  V30 1 1 1 2
M  V30 2 1 2 3
M  V30 3 2 3 4
M  V30 4 1 3 5
M  V30 5 1 5 6
M  V30 6 1 6 7
M  V30 7 2 7 8
M  V30 8 1 8 9
M  V30 9 2 9 10
M  V30 10 1 10 11
M  V30 11 1 10 12
M  V30 12 2 12 13
M  V30 13 1 13 14
M  V30 14 2 5 15
M  V30 15 1 15 16
M  V30 16 2 16 17
M  V30 17 1 17 18
M  V30 18 2 18 19
M  V30 19 1 19 20
M  V30 20 1 20 21
M  V30 21 1 21 22
M  V30 22 1 22 23
M  V30 23 1 23 24
M  V30 24 1 24 25
M  V30 25 1 25 26
M  V30 26 2 25 27
M  V30 27 2 25 28
M  V30 28 1 24 29
M  V30 29 1 29 30
M  V30 30 1 19 31
M  V30 31 2 31 32
M  V30 32 1 32 2
M  V30 33 1 13 7
M  V30 34 1 32 16
M  V30 35 1 30 21
M  V30 36 1 1 33
M  V30 37 1 1 34
M  V30 38 1 1 35
M  V30 39 1 8 36
M  V30 40 1 9 37
M  V30 41 1 12 38
M  V30 42 1 15 39
M  V30 43 1 17 40
M  V30 44 1 20 41
M  V30 45 1 21 42
M  V30 46 1 22 43
M  V30 47 1 22 44
M  V30 48 1 23 45
M  V30 49 1 23 46
M  V30 50 1 26 47
M  V30 51 1 26 48
M  V30 52 1 26 49
M  V30 53 1 29 50
M  V30 54 1 29 51
M  V30 55 1 30 52
M  V30 56 1 30 53
M  V30 END BOND
M  V30 END CTAB
M  END
>  <Dataset>  (971) 
ChEMBL_Kinases

>  <Ligand_Instance>  (971) 
nan

>  <PDB_ID>  (971) 
nan

>  <Standardized_SMILES>  (971) 
Cn1c(=O)c(Oc2ccc(F)cc2F)cc2cnc(NC3CCN(S(C)(=O)=O)CC3)nc21

>  <Name>  (971) 
nan

>  <Pocket>  (971) 
nan

>  <ATP_Site>  (971) 
nan

>  <Peripheral>  (971) 
nan

>  <Num_H_Atoms_ProtBoundConf>  (971) 
nan

>  <Num_Resolved_Atoms>  (971) 
nan

>  <Num_Not_Resolved_Atoms>  (971) 
nan

$$$$
CHEMBL3747661
     RDKit          3D

  0  0  0  0  0  0  0  0  0  0999 V3000
M  V30 BEGIN CTAB
M  V30 COUNTS 39 40 0 0 0
M  V30 BEGIN ATOM
M  V30 1 C 0.559523 -4.757161 5.632961 0
M  V30 2 O 0.092640 -3.492842 5.245298 0
M  V30 3 C 0.885997 -2.535469 4.590174 0
M  V30 4 C 2.225910 -2.648360 4.215732 0
M  V30 5 C 2.801788 -1.570213 3.577269 0
M  V30 6 C 2.129052 -0.402333 3.294437 0
M  V30 7 C 2.946695 0.629422 2.601562 0
M  V30 8 N 2.859052 0.466603 1.163080 0
M  V30 9 C 1.806336 0.816751 0.303845 0
M  V30 10 O 0.782906 1.350396 0.835117 0
M  V30 11 N 1.829191 0.609862 -1.085118 0
M  V30 12 C 0.605034 1.047346 -1.839006 0
M  V30 13 N 0.067668 1.868504 -2.396392 0
M  V30 14 C -1.119373 1.843136 -2.964595 0
M  V30 15 C -1.773645 2.964740 -3.688315 0
M  V30 16 C -1.815538 0.669713 -2.880303 0
M  V30 17 C -3.112758 0.234532 -3.354900 0
M  V30 18 C -3.561837 -1.144058 -3.078164 0
M  V30 19 O -3.759729 1.083098 -3.974635 0
M  V30 20 S -0.673202 -0.360323 -1.953467 0
M  V30 21 C 0.805881 -0.304583 3.670311 0
M  V30 22 C 0.207804 -1.369649 4.310073 0
M  V30 23 H 1.135739 -5.271579 4.859082 0
M  V30 24 H 1.131134 -4.625076 6.583814 0
M  V30 25 H -0.342851 -5.389626 5.840234 0
M  V30 26 H 2.670839 -3.589584 4.473533 0
M  V30 27 H 3.854866 -1.796503 3.340538 0
M  V30 28 H 3.997230 0.574172 2.909423 0
M  V30 29 H 2.493134 1.615292 2.842502 0
M  V30 30 H 3.683081 0.025788 0.655862 0
M  V30 31 H 2.666674 0.177091 -1.495855 0
M  V30 32 H -1.226101 3.912397 -3.658874 0
M  V30 33 H -1.941206 2.723428 -4.767740 0
M  V30 34 H -2.760787 3.172320 -3.182001 0
M  V30 35 H -2.699502 -1.869723 -3.037281 0
M  V30 36 H -4.336499 -1.483350 -3.775103 0
M  V30 37 H -4.028380 -1.244200 -2.057765 0
M  V30 38 H 0.322458 0.615781 3.433768 0
M  V30 39 H -0.822260 -1.186544 4.557012 0
M  V30 END ATOM
M  V30 BEGIN BOND
M  V30 1 1 1 2
M  V30 2 1 2 3
M  V30 3 2 3 4
M  V30 4 1 4 5
M  V30 5 2 5 6
M  V30 6 1 6 7
M  V30 7 1 7 8
M  V30 8 1 8 9
M  V30 9 2 9 10
M  V30 10 1 9 11
M  V30 11 1 11 12
M  V30 12 2 12 13
M  V30 13 1 13 14
M  V30 14 1 14 15
M  V30 15 2 14 16
M  V30 16 1 16 17
M  V30 17 1 17 18
M  V30 18 2 17 19
M  V30 19 1 16 20
M  V30 20 1 6 21
M  V30 21 2 21 22
M  V30 22 1 22 3
M  V30 23 1 20 12
M  V30 24 1 1 23
M  V30 25 1 1 24
M  V30 26 1 1 25
M  V30 27 1 4 26
M  V30 28 1 5 27
M  V30 29 1 7 28
M  V30 30 1 7 29
M  V30 31 1 8 30
M  V30 32 1 11 31
M  V30 33 1 15 32
M  V30 34 1 15 33
M  V30 35 1 15 34
M  V30 36 1 18 35
M  V30 37 1 18 36
M  V30 38 1 18 37
M  V30 39 1 21 38
M  V30 40 1 22 39
M  V30 END BOND
M  V30 END CTAB
M  END
>  <Dataset>  (972) 
ChEMBL_Kinases

>  <Ligand_Instance>  (972) 
nan

>  <PDB_ID>  (972) 
nan

>  <Standardized_SMILES>  (972) 
COc1ccc(CNC(=O)Nc2nc(C)c(C(C)=O)s2)cc1

>  <Name>  (972) 
nan

>  <Pocket>  (972) 
nan

>  <ATP_Site>  (972) 
nan

>  <Peripheral>  (972) 
nan

>  <Num_H_Atoms_ProtBoundConf>  (972) 
nan

>  <Num_Resolved_Atoms>  (972) 
nan

>  <Num_Not_Resolved_Atoms>  (972) 
nan

$$$$
CHEMBL3747637
     RDKit          3D

  0  0  0  0  0  0  0  0  0  0999 V3000
M  V30 BEGIN CTAB
M  V30 COUNTS 50 52 0 0 0
M  V30 BEGIN ATOM
M  V30 1 C 3.599752 -5.031111 2.328737 0
M  V30 2 O 3.129940 -5.031795 1.003777 0
M  V30 3 C 2.504346 -3.917184 0.472156 0
M  V30 4 C 2.335646 -2.787654 1.244755 0
M  V30 5 C 1.719216 -1.657598 0.756016 0
M  V30 6 C 1.245643 -1.643178 -0.562788 0
M  V30 7 O 0.599836 -0.664350 -1.301425 0
M  V30 8 C 0.208382 0.494111 -0.671916 0
M  V30 9 C 0.906381 1.582531 -1.137268 0
M  V30 10 C 0.679884 2.851377 -0.644826 0
M  V30 11 F 1.392255 3.898519 -1.133796 0
M  V30 12 C -0.284285 2.943455 0.334162 0
M  V30 13 C -1.022345 1.900829 0.847622 0
M  V30 14 N -1.979189 2.055778 1.847700 0
M  V30 15 C -2.575832 2.990076 2.668499 0
M  V30 16 C -2.315462 4.333773 2.738703 0
M  V30 17 C -2.895444 5.284795 3.542579 0
M  V30 18 C -3.863926 4.774705 4.374220 0
M  V30 19 I -4.866358 6.092557 5.684397 0
M  V30 20 C -4.227446 3.454554 4.411662 0
M  V30 21 C -3.578013 2.606173 3.564183 0
M  V30 22 F -4.011422 1.297851 3.673312 0
M  V30 23 C -0.736148 0.672439 0.301714 0
M  V30 24 C -1.455937 -0.511671 0.674434 0
M  V30 25 N -1.436859 -1.852230 0.290485 0
M  V30 26 O -2.364373 -0.903557 1.440685 0
M  V30 27 C 1.428791 -2.803439 -1.328648 0
M  V30 28 C 2.048311 -3.935052 -0.832934 0
M  V30 29 N 2.227161 -5.106709 -1.623832 0
M  V30 30 S 1.664052 -5.135321 -3.246915 0
M  V30 31 N 2.513951 -3.899071 -4.132184 0
M  V30 32 O 0.205203 -4.841346 -3.375967 0
M  V30 33 O 1.996938 -6.448919 -3.874984 0
M  V30 34 H 4.135638 -4.083160 2.563711 0
M  V30 35 H 4.359339 -5.829813 2.500812 0
M  V30 36 H 2.756322 -5.114267 3.065215 0
M  V30 37 H 2.663936 -2.703494 2.263287 0
M  V30 38 H 1.518366 -0.717145 1.229110 0
M  V30 39 H 1.677328 1.505752 -1.920526 0
M  V30 40 H -0.364995 3.957845 0.626182 0
M  V30 41 H -2.399797 1.130057 2.057269 0
M  V30 42 H -1.573274 4.812210 2.126005 0
M  V30 43 H -2.659959 6.332281 3.565341 0
M  V30 44 H -4.997484 3.121558 5.090545 0
M  V30 45 H -1.065283 -2.793976 0.608697 0
M  V30 46 H -1.803179 -2.441666 -0.501232 0
M  V30 47 H 1.103155 -2.920279 -2.375538 0
M  V30 48 H 2.698665 -5.940875 -1.214241 0
M  V30 49 H 3.474531 -3.856513 -3.717740 0
M  V30 50 H 2.585566 -4.163291 -5.129948 0
M  V30 END ATOM
M  V30 BEGIN BOND
M  V30 1 1 1 2
M  V30 2 1 2 3
M  V30 3 2 3 4
M  V30 4 1 4 5
M  V30 5 2 5 6
M  V30 6 1 6 7
M  V30 7 1 7 8
M  V30 8 2 8 9
M  V30 9 1 9 10
M  V30 10 1 10 11
M  V30 11 2 10 12
M  V30 12 1 12 13
M  V30 13 1 13 14
M  V30 14 1 14 15
M  V30 15 2 15 16
M  V30 16 1 16 17
M  V30 17 2 17 18
M  V30 18 1 18 19
M  V30 19 1 18 20
M  V30 20 2 20 21
M  V30 21 1 21 22
M  V30 22 2 13 23
M  V30 23 1 23 24
M  V30 24 1 24 25
M  V30 25 2 24 26
M  V30 26 1 6 27
M  V30 27 2 27 28
M  V30 28 1 28 29
M  V30 29 1 29 30
M  V30 30 1 30 31
M  V30 31 2 30 32
M  V30 32 2 30 33
M  V30 33 1 28 3
M  V30 34 1 23 8
M  V30 35 1 21 15
M  V30 36 1 1 34
M  V30 37 1 1 35
M  V30 38 1 1 36
M  V30 39 1 4 37
M  V30 40 1 5 38
M  V30 41 1 9 39
M  V30 42 1 12 40
M  V30 43 1 14 41
M  V30 44 1 16 42
M  V30 45 1 17 43
M  V30 46 1 20 44
M  V30 47 1 25 45
M  V30 48 1 25 46
M  V30 49 1 27 47
M  V30 50 1 29 48
M  V30 51 1 31 49
M  V30 52 1 31 50
M  V30 END BOND
M  V30 END CTAB
M  END
>  <Dataset>  (973) 
ChEMBL_Kinases

>  <Ligand_Instance>  (973) 
nan

>  <PDB_ID>  (973) 
nan

>  <Standardized_SMILES>  (973) 
COc1ccc(Oc2cc(F)cc(Nc3ccc(I)cc3F)c2C(N)=O)cc1NS(N)(=O)=O

>  <Name>  (973) 
nan

>  <Pocket>  (973) 
nan

>  <ATP_Site>  (973) 
nan

>  <Peripheral>  (973) 
nan

>  <Num_H_Atoms_ProtBoundConf>  (973) 
nan

>  <Num_Resolved_Atoms>  (973) 
nan

>  <Num_Not_Resolved_Atoms>  (973) 
nan

$$$$
CHEMBL5093039
     RDKit          3D

  0  0  0  0  0  0  0  0  0  0999 V3000
M  V30 BEGIN CTAB
M  V30 COUNTS 54 57 0 0 0
M  V30 BEGIN ATOM
M  V30 1 C 5.615841 -4.796887 2.665457 0
M  V30 2 C 4.845640 -5.426117 1.542060 0
M  V30 3 O 4.797631 -4.581550 0.391724 0
M  V30 4 C 4.225009 -3.320203 0.450232 0
M  V30 5 C 3.649025 -2.721521 1.550706 0
M  V30 6 C 3.110074 -1.473496 1.510635 0
M  V30 7 N 2.559152 -0.955380 2.647985 0
M  V30 8 C 2.017844 0.277524 2.639515 0
M  V30 9 N 2.036814 0.971887 1.492486 0
M  V30 10 C 2.553753 0.544164 0.334410 0
M  V30 11 N 2.549164 1.324274 -0.846394 0
M  V30 12 C 2.011091 2.658486 -1.031020 0
M  V30 13 C 0.554089 2.608950 -0.783107 0
M  V30 14 C -0.164163 2.862978 0.343851 0
M  V30 15 C -1.537762 2.739916 0.360267 0
M  V30 16 C -2.259643 2.357793 -0.747805 0
M  V30 17 N -3.679176 2.264439 -0.611765 0
M  V30 18 C -4.077563 0.945338 -0.196865 0
M  V30 19 O -3.087031 0.173011 -0.047775 0
M  V30 20 N -5.433787 0.576551 0.014576 0
M  V30 21 C -5.787950 -0.749835 0.428206 0
M  V30 22 C -6.074104 -1.825977 -0.373695 0
M  V30 23 C -6.399022 -3.042016 0.201734 0
M  V30 24 C -6.429055 -3.149161 1.581107 0
M  V30 25 C -6.142664 -2.072088 2.393981 0
M  V30 26 C -5.815997 -0.849489 1.819242 0
M  V30 27 C -1.552595 2.094966 -1.903697 0
M  V30 28 C -0.170611 2.225593 -1.895452 0
M  V30 29 C 3.102059 -0.716519 0.361367 0
M  V30 30 C 3.673757 -1.301850 -0.744985 0
M  V30 31 C 4.226348 -2.565458 -0.728690 0
M  V30 32 F 4.786807 -3.109264 -1.859978 0
M  V30 33 H 5.978165 -3.796007 2.347996 0
M  V30 34 H 5.086628 -4.779622 3.638724 0
M  V30 35 H 6.548948 -5.381707 2.867078 0
M  V30 36 H 5.322977 -6.395098 1.297510 0
M  V30 37 H 3.802282 -5.579712 1.928961 0
M  V30 38 H 3.641058 -3.284292 2.449454 0
M  V30 39 H 1.566776 0.742290 3.507622 0
M  V30 40 H 2.956880 0.985145 -1.739574 0
M  V30 41 H 2.482695 3.308213 -0.224280 0
M  V30 42 H 2.206891 3.105657 -2.003972 0
M  V30 43 H 0.415833 3.168421 1.194657 0
M  V30 44 H -1.977836 2.976732 1.337265 0
M  V30 45 H -4.411281 2.989807 -0.766980 0
M  V30 46 H -6.173970 1.296038 -0.138311 0
M  V30 47 H -6.014071 -1.605087 -1.438827 0
M  V30 48 H -6.613064 -3.847330 -0.492681 0
M  V30 49 H -6.687282 -4.115803 1.986442 0
M  V30 50 H -6.181694 -2.214129 3.478765 0
M  V30 51 H -5.603911 -0.051458 2.521288 0
M  V30 52 H -2.133367 1.799111 -2.755122 0
M  V30 53 H 0.256403 1.989606 -2.865404 0
M  V30 54 H 3.718926 -0.803284 -1.680225 0
M  V30 END ATOM
M  V30 BEGIN BOND
M  V30 1 1 1 2
M  V30 2 1 2 3
M  V30 3 1 3 4
M  V30 4 2 4 5
M  V30 5 1 5 6
M  V30 6 2 6 7
M  V30 7 1 7 8
M  V30 8 2 8 9
M  V30 9 1 9 10
M  V30 10 1 10 11
M  V30 11 1 11 12
M  V30 12 1 12 13
M  V30 13 2 13 14
M  V30 14 1 14 15
M  V30 15 2 15 16
M  V30 16 1 16 17
M  V30 17 1 17 18
M  V30 18 2 18 19
M  V30 19 1 18 20
M  V30 20 1 20 21
M  V30 21 2 21 22
M  V30 22 1 22 23
M  V30 23 2 23 24
M  V30 24 1 24 25
M  V30 25 2 25 26
M  V30 26 1 16 27
M  V30 27 2 27 28
M  V30 28 2 10 29
M  V30 29 1 29 30
M  V30 30 2 30 31
M  V30 31 1 31 32
M  V30 32 1 31 4
M  V30 33 1 29 6
M  V30 34 1 28 13
M  V30 35 1 26 21
M  V30 36 1 1 33
M  V30 37 1 1 34
M  V30 38 1 1 35
M  V30 39 1 2 36
M  V30 40 1 2 37
M  V30 41 1 5 38
M  V30 42 1 8 39
M  V30 43 1 11 40
M  V30 44 1 12 41
M  V30 45 1 12 42
M  V30 46 1 14 43
M  V30 47 1 15 44
M  V30 48 1 17 45
M  V30 49 1 20 46
M  V30 50 1 22 47
M  V30 51 1 23 48
M  V30 52 1 24 49
M  V30 53 1 25 50
M  V30 54 1 26 51
M  V30 55 1 27 52
M  V30 56 1 28 53
M  V30 57 1 30 54
M  V30 END BOND
M  V30 END CTAB
M  END
>  <Dataset>  (974) 
ChEMBL_Kinases

>  <Ligand_Instance>  (974) 
nan

>  <PDB_ID>  (974) 
nan

>  <Standardized_SMILES>  (974) 
CCOc1cc2ncnc(NCc3ccc(NC(=O)Nc4ccccc4)cc3)c2cc1F

>  <Name>  (974) 
nan

>  <Pocket>  (974) 
nan

>  <ATP_Site>  (974) 
nan

>  <Peripheral>  (974) 
nan

>  <Num_H_Atoms_ProtBoundConf>  (974) 
nan

>  <Num_Resolved_Atoms>  (974) 
nan

>  <Num_Not_Resolved_Atoms>  (974) 
nan

$$$$
CHEMBL5093411
     RDKit          3D

  0  0  0  0  0  0  0  0  0  0999 V3000
M  V30 BEGIN CTAB
M  V30 COUNTS 52 55 0 0 0
M  V30 BEGIN ATOM
M  V30 1 C 1.246615 -6.580401 2.667888 0
M  V30 2 C 1.908661 -5.246875 2.660430 0
M  V30 3 N 3.023161 -4.904497 3.329501 0
M  V30 4 N 3.315478 -3.643062 3.085187 0
M  V30 5 C 2.371139 -3.183559 2.249676 0
M  V30 6 N 2.238910 -1.956429 1.716032 0
M  V30 7 C 1.217708 -1.674347 0.889476 0
M  V30 8 C 0.986888 -0.369082 0.257751 0
M  V30 9 C 1.921187 0.602457 0.573421 0
M  V30 10 C 1.808158 1.864420 0.040873 0
M  V30 11 C 0.765881 2.168303 -0.808580 0
M  V30 12 N 0.539872 3.427414 -1.420406 0
M  V30 13 S 0.662463 4.915286 -0.540446 0
M  V30 14 O 2.052703 5.137831 -0.040679 0
M  V30 15 O 0.300394 6.037691 -1.484155 0
M  V30 16 C -0.516335 4.945525 0.756070 0
M  V30 17 C -0.247178 5.060818 2.109106 0
M  V30 18 C -1.279125 5.070866 3.022274 0
M  V30 19 Cl -0.768646 5.223196 4.693392 0
M  V30 20 C -2.597808 4.969385 2.646431 0
M  V30 21 C -2.891167 4.852252 1.286805 0
M  V30 22 C -1.844357 4.843247 0.376520 0
M  V30 23 F -2.254356 4.724870 -0.911786 0
M  V30 24 C -0.149155 1.170540 -1.101163 0
M  V30 25 C -0.074075 -0.111485 -0.588389 0
M  V30 26 N 0.352281 -2.627650 0.616252 0
M  V30 27 C 0.344241 -3.891562 1.063426 0
M  V30 28 O -0.409783 -4.991513 0.924309 0
M  V30 29 C -1.524423 -5.377555 0.264938 0
M  V30 30 C -1.589991 -5.384369 -1.211719 0
M  V30 31 C -1.369618 -4.072990 -1.909458 0
M  V30 32 O -1.499194 -4.246560 -3.316352 0
M  V30 33 C 1.419751 -4.159310 1.923425 0
M  V30 34 H 0.747280 -6.850635 1.742210 0
M  V30 35 H 2.016618 -7.331930 3.002735 0
M  V30 36 H 0.466799 -6.557501 3.478953 0
M  V30 37 H 4.117102 -3.090630 3.456727 0
M  V30 38 H 2.761549 0.425357 1.233982 0
M  V30 39 H 2.515824 2.666419 0.256285 0
M  V30 40 H 0.290718 3.411794 -2.449291 0
M  V30 41 H 0.807803 5.136899 2.340836 0
M  V30 42 H -3.368080 4.982402 3.402551 0
M  V30 43 H -3.925873 4.774020 1.010753 0
M  V30 44 H -0.994050 1.369686 -1.772845 0
M  V30 45 H -0.774356 -0.895318 -0.805052 0
M  V30 46 H -1.822943 -6.398375 0.629382 0
M  V30 47 H -2.375342 -4.698946 0.615774 0
M  V30 48 H -2.654151 -5.676944 -1.478676 0
M  V30 49 H -0.988482 -6.206799 -1.668763 0
M  V30 50 H -0.320982 -3.720750 -1.754612 0
M  V30 51 H -2.136160 -3.363372 -1.611377 0
M  V30 52 H -2.459214 -4.464775 -3.465934 0
M  V30 END ATOM
M  V30 BEGIN BOND
M  V30 1 1 1 2
M  V30 2 2 2 3
M  V30 3 1 3 4
M  V30 4 1 4 5
M  V30 5 2 5 6
M  V30 6 1 6 7
M  V30 7 1 7 8
M  V30 8 2 8 9
M  V30 9 1 9 10
M  V30 10 2 10 11
M  V30 11 1 11 12
M  V30 12 1 12 13
M  V30 13 2 13 14
M  V30 14 2 13 15
M  V30 15 1 13 16
M  V30 16 2 16 17
M  V30 17 1 17 18
M  V30 18 1 18 19
M  V30 19 2 18 20
M  V30 20 1 20 21
M  V30 21 2 21 22
M  V30 22 1 22 23
M  V30 23 1 11 24
M  V30 24 2 24 25
M  V30 25 2 7 26
M  V30 26 1 26 27
M  V30 27 1 27 28
M  V30 28 1 28 29
M  V30 29 1 29 30
M  V30 30 1 30 31
M  V30 31 1 31 32
M  V30 32 2 27 33
M  V30 33 1 33 2
M  V30 34 1 33 5
M  V30 35 1 25 8
M  V30 36 1 22 16
M  V30 37 1 1 34
M  V30 38 1 1 35
M  V30 39 1 1 36
M  V30 40 1 4 37
M  V30 41 1 9 38
M  V30 42 1 10 39
M  V30 43 1 12 40
M  V30 44 1 17 41
M  V30 45 1 20 42
M  V30 46 1 21 43
M  V30 47 1 24 44
M  V30 48 1 25 45
M  V30 49 1 29 46
M  V30 50 1 29 47
M  V30 51 1 30 48
M  V30 52 1 30 49
M  V30 53 1 31 50
M  V30 54 1 31 51
M  V30 55 1 32 52
M  V30 END BOND
M  V30 END CTAB
M  END
>  <Dataset>  (975) 
ChEMBL_Kinases

>  <Ligand_Instance>  (975) 
nan

>  <PDB_ID>  (975) 
nan

>  <Standardized_SMILES>  (975) 
Cc1n[nH]c2nc(-c3ccc(NS(=O)(=O)c4cc(Cl)ccc4F)cc3)nc(OCCCO)c12

>  <Name>  (975) 
nan

>  <Pocket>  (975) 
nan

>  <ATP_Site>  (975) 
nan

>  <Peripheral>  (975) 
nan

>  <Num_H_Atoms_ProtBoundConf>  (975) 
nan

>  <Num_Resolved_Atoms>  (975) 
nan

>  <Num_Not_Resolved_Atoms>  (975) 
nan

$$$$
CHEMBL578861
     RDKit          3D

  0  0  0  0  0  0  0  0  0  0999 V3000
M  V30 BEGIN CTAB
M  V30 COUNTS 46 49 0 0 0
M  V30 BEGIN ATOM
M  V30 1 C 2.581895 -5.646250 0.564909 0
M  V30 2 O 3.035855 -5.276929 -0.701997 0
M  V30 3 P 3.911882 -3.863220 -0.531251 0
M  V30 4 O 5.044621 -3.827886 -1.536061 0
M  V30 5 O 4.612533 -3.868379 1.006335 0
M  V30 6 C 3.905647 -3.006819 1.873207 0
M  V30 7 C 2.866304 -2.415838 -0.750921 0
M  V30 8 C 3.543232 -1.211720 -0.932648 0
M  V30 9 C 2.911647 0.006996 -1.117496 0
M  V30 10 C 1.525204 0.018982 -1.120276 0
M  V30 11 C 0.819373 1.282181 -1.311988 0
M  V30 12 C 1.057192 2.289209 -2.229122 0
M  V30 13 O 0.193667 3.275345 -2.080519 0
M  V30 14 C -0.636972 2.977919 -1.083710 0
M  V30 15 C -1.716513 3.677726 -0.532653 0
M  V30 16 C -2.441538 3.142225 0.526493 0
M  V30 17 C -2.069737 1.907345 1.017790 0
M  V30 18 C -2.806192 1.305448 2.133336 0
M  V30 19 C -2.538105 0.090754 2.709716 0
M  V30 20 C -3.475548 -0.074160 3.717717 0
M  V30 21 C -4.279086 1.067902 3.702315 0
M  V30 22 C -5.401889 1.229631 4.663467 0
M  V30 23 O -3.829244 1.842616 2.741992 0
M  V30 24 C -1.005185 1.244128 0.455969 0
M  V30 25 C -0.267662 1.727182 -0.579172 0
M  V30 26 C 0.851570 -1.173600 -0.940292 0
M  V30 27 C 1.486384 -2.386366 -0.756342 0
M  V30 28 H 3.437416 -5.661508 1.301503 0
M  V30 29 H 2.158366 -6.668690 0.493637 0
M  V30 30 H 1.880758 -4.898878 0.990783 0
M  V30 31 H 2.898838 -2.747285 1.434443 0
M  V30 32 H 3.689473 -3.567818 2.794052 0
M  V30 33 H 4.477752 -2.109550 2.119342 0
M  V30 34 H 4.630614 -1.164675 -0.939009 0
M  V30 35 H 3.481117 0.919555 -1.255167 0
M  V30 36 H 1.865534 2.245115 -2.970602 0
M  V30 37 H -2.009748 4.651039 -0.919678 0
M  V30 38 H -3.278463 3.635142 0.987705 0
M  V30 39 H -1.745643 -0.622100 2.441596 0
M  V30 40 H -3.546300 -0.937088 4.376545 0
M  V30 41 H -6.107971 0.386835 4.578906 0
M  V30 42 H -5.893227 2.220120 4.540139 0
M  V30 43 H -4.966990 1.195341 5.682116 0
M  V30 44 H -0.751662 0.283513 0.872263 0
M  V30 45 H -0.234413 -1.206985 -0.936042 0
M  V30 46 H 1.023512 -3.332972 -0.613429 0
M  V30 END ATOM
M  V30 BEGIN BOND
M  V30 1 1 1 2
M  V30 2 1 2 3
M  V30 3 2 3 4
M  V30 4 1 3 5
M  V30 5 1 5 6
M  V30 6 1 3 7
M  V30 7 2 7 8
M  V30 8 1 8 9
M  V30 9 2 9 10
M  V30 10 1 10 11
M  V30 11 2 11 12
M  V30 12 1 12 13
M  V30 13 1 13 14
M  V30 14 2 14 15
M  V30 15 1 15 16
M  V30 16 2 16 17
M  V30 17 1 17 18
M  V30 18 2 18 19
M  V30 19 1 19 20
M  V30 20 2 20 21
M  V30 21 1 21 22
M  V30 22 1 21 23
M  V30 23 1 17 24
M  V30 24 2 24 25
M  V30 25 1 10 26
M  V30 26 2 26 27
M  V30 27 1 27 7
M  V30 28 1 25 11
M  V30 29 1 25 14
M  V30 30 1 23 18
M  V30 31 1 1 28
M  V30 32 1 1 29
M  V30 33 1 1 30
M  V30 34 1 6 31
M  V30 35 1 6 32
M  V30 36 1 6 33
M  V30 37 1 8 34
M  V30 38 1 9 35
M  V30 39 1 12 36
M  V30 40 1 15 37
M  V30 41 1 16 38
M  V30 42 1 19 39
M  V30 43 1 20 40
M  V30 44 1 22 41
M  V30 45 1 22 42
M  V30 46 1 22 43
M  V30 47 1 24 44
M  V30 48 1 26 45
M  V30 49 1 27 46
M  V30 END BOND
M  V30 END CTAB
M  END
>  <Dataset>  (976) 
ChEMBL_Kinases

>  <Ligand_Instance>  (976) 
nan

>  <PDB_ID>  (976) 
nan

>  <Standardized_SMILES>  (976) 
COP(=O)(OC)c1ccc(-c2coc3ccc(-c4ccc(C)o4)cc23)cc1

>  <Name>  (976) 
nan

>  <Pocket>  (976) 
nan

>  <ATP_Site>  (976) 
nan

>  <Peripheral>  (976) 
nan

>  <Num_H_Atoms_ProtBoundConf>  (976) 
nan

>  <Num_Resolved_Atoms>  (976) 
nan

>  <Num_Not_Resolved_Atoms>  (976) 
nan

$$$$
CHEMBL5093528
     RDKit          3D

  0  0  0  0  0  0  0  0  0  0999 V3000
M  V30 BEGIN CTAB
M  V30 COUNTS 75 79 0 0 0
M  V30 BEGIN ATOM
M  V30 1 C 2.940312 -3.518081 4.783998 0
M  V30 2 C 1.915534 -2.928589 3.835115 0
M  V30 3 N 1.924951 -1.461584 3.936044 0
M  V30 4 C 1.432051 -0.958088 5.180511 0
M  V30 5 C -0.046615 -1.194010 5.401432 0
M  V30 6 C 2.369079 -0.581196 2.926815 0
M  V30 7 C 3.740362 -0.677677 2.730308 0
M  V30 8 N 4.390265 0.097308 1.819090 0
M  V30 9 C 3.715532 0.990106 1.075340 0
M  V30 10 C 4.365361 1.785677 0.174166 0
M  V30 11 C 3.692701 2.719207 -0.576885 0
M  V30 12 C 2.330625 2.840812 -0.401870 0
M  V30 13 C 1.384630 3.769791 -1.002231 0
M  V30 14 N 0.214147 3.572256 -1.598105 0
M  V30 15 C -0.582021 4.547059 -2.059656 0
M  V30 16 N -1.771198 4.160124 -2.687392 0
M  V30 17 C -2.014185 2.776131 -2.961323 0
M  V30 18 C -3.185531 2.344373 -3.575364 0
M  V30 19 C -3.326148 0.995404 -3.837857 0
M  V30 20 C -2.319371 0.111058 -3.491277 0
M  V30 21 C -2.372406 -1.338516 -3.728938 0
M  V30 22 N -2.897775 -2.119284 -2.650498 0
M  V30 23 C -2.923703 -3.532950 -2.932432 0
M  V30 24 C -2.004443 -4.312649 -2.016914 0
M  V30 25 N -2.417756 -4.157337 -0.678399 0
M  V30 26 C -1.714923 -4.809949 0.357243 0
M  V30 27 C -2.293910 -4.477671 1.742938 0
M  V30 28 C -0.244157 -4.626042 0.417628 0
M  V30 29 C -2.897412 -2.857300 -0.387974 0
M  V30 30 C -2.261593 -1.906704 -1.394194 0
M  V30 31 C -1.143663 0.556042 -2.869430 0
M  V30 32 N -1.068102 1.877410 -2.643414 0
M  V30 33 N -0.178053 5.823823 -1.915682 0
M  V30 34 C 1.009476 6.125821 -1.317791 0
M  V30 35 C 1.806887 5.076339 -0.851548 0
M  V30 36 F 2.977353 5.465457 -0.269605 0
M  V30 37 C 1.659184 2.022351 0.521949 0
M  V30 38 C 2.339450 1.088573 1.271729 0
M  V30 39 N 1.685681 0.308910 2.186630 0
M  V30 40 H 2.510905 -4.336466 5.379887 0
M  V30 41 H 3.360849 -2.745828 5.430864 0
M  V30 42 H 3.762728 -3.929536 4.136931 0
M  V30 43 H 2.100446 -3.221150 2.792509 0
M  V30 44 H 0.904834 -3.281949 4.117563 0
M  V30 45 H 1.636384 0.138235 5.257064 0
M  V30 46 H 1.948388 -1.411350 6.037177 0
M  V30 47 H -0.281457 -0.793994 6.407592 0
M  V30 48 H -0.236850 -2.297881 5.489100 0
M  V30 49 H -0.701960 -0.720767 4.681653 0
M  V30 50 H 4.416982 -1.344597 3.249777 0
M  V30 51 H 5.422593 1.735747 -0.007660 0
M  V30 52 H 4.067080 3.399420 -1.308509 0
M  V30 53 H -2.427610 4.914853 -2.923841 0
M  V30 54 H -3.934560 3.071815 -3.823094 0
M  V30 55 H -4.222750 0.608493 -4.312152 0
M  V30 56 H -1.355317 -1.699341 -3.967902 0
M  V30 57 H -2.958121 -1.488019 -4.673007 0
M  V30 58 H -2.565792 -3.728943 -3.977047 0
M  V30 59 H -3.963702 -3.942802 -2.919614 0
M  V30 60 H -2.176558 -5.400603 -2.295830 0
M  V30 61 H -0.957421 -4.026333 -2.246685 0
M  V30 62 H -1.907533 -5.918186 0.232565 0
M  V30 63 H -1.783107 -3.608630 2.200103 0
M  V30 64 H -2.050736 -5.348662 2.385265 0
M  V30 65 H -3.388881 -4.398879 1.723441 0
M  V30 66 H 0.323338 -5.582313 0.291090 0
M  V30 67 H 0.036488 -4.265927 1.429814 0
M  V30 68 H 0.155519 -3.858072 -0.273393 0
M  V30 69 H -4.003745 -2.828216 -0.638525 0
M  V30 70 H -2.809229 -2.494984 0.633436 0
M  V30 71 H -1.184831 -2.082081 -1.500211 0
M  V30 72 H -2.399674 -0.898302 -0.965444 0
M  V30 73 H -0.330878 -0.093388 -2.578945 0
M  V30 74 H 1.327975 7.158063 -1.203405 0
M  V30 75 H 0.591706 2.043055 0.728126 0
M  V30 END ATOM
M  V30 BEGIN BOND
M  V30 1 1 1 2
M  V30 2 1 2 3
M  V30 3 1 3 4
M  V30 4 1 4 5
M  V30 5 1 3 6
M  V30 6 2 6 7
M  V30 7 1 7 8
M  V30 8 2 8 9
M  V30 9 1 9 10
M  V30 10 2 10 11
M  V30 11 1 11 12
M  V30 12 1 12 13
M  V30 13 2 13 14
M  V30 14 1 14 15
M  V30 15 1 15 16
M  V30 16 1 16 17
M  V30 17 2 17 18
M  V30 18 1 18 19
M  V30 19 2 19 20
M  V30 20 1 20 21
M  V30 21 1 21 22
M  V30 22 1 22 23
M  V30 23 1 23 24
M  V30 24 1 24 25
M  V30 25 1 25 26
M  V30 26 1 26 27
M  V30 27 1 26 28
M  V30 28 1 25 29
M  V30 29 1 29 30
M  V30 30 1 20 31
M  V30 31 2 31 32
M  V30 32 2 15 33
M  V30 33 1 33 34
M  V30 34 2 34 35
M  V30 35 1 35 36
M  V30 36 2 12 37
M  V30 37 1 37 38
M  V30 38 2 38 39
M  V30 39 1 39 6
M  V30 40 1 38 9
M  V30 41 1 35 13
M  V30 42 1 32 17
M  V30 43 1 30 22
M  V30 44 1 1 40
M  V30 45 1 1 41
M  V30 46 1 1 42
M  V30 47 1 2 43
M  V30 48 1 2 44
M  V30 49 1 4 45
M  V30 50 1 4 46
M  V30 51 1 5 47
M  V30 52 1 5 48
M  V30 53 1 5 49
M  V30 54 1 7 50
M  V30 55 1 10 51
M  V30 56 1 11 52
M  V30 57 1 16 53
M  V30 58 1 18 54
M  V30 59 1 19 55
M  V30 60 1 21 56
M  V30 61 1 21 57
M  V30 62 1 23 58
M  V30 63 1 23 59
M  V30 64 1 24 60
M  V30 65 1 24 61
M  V30 66 1 26 62
M  V30 67 1 27 63
M  V30 68 1 27 64
M  V30 69 1 27 65
M  V30 70 1 28 66
M  V30 71 1 28 67
M  V30 72 1 28 68
M  V30 73 1 29 69
M  V30 74 1 29 70
M  V30 75 1 30 71
M  V30 76 1 30 72
M  V30 77 1 31 73
M  V30 78 1 34 74
M  V30 79 1 37 75
M  V30 END BOND
M  V30 END CTAB
M  END
>  <Dataset>  (977) 
ChEMBL_Kinases

>  <Ligand_Instance>  (977) 
nan

>  <PDB_ID>  (977) 
nan

>  <Standardized_SMILES>  (977) 
CCN(CC)c1cnc2ccc(-c3nc(Nc4ccc(CN5CCN(C(C)C)CC5)cn4)ncc3F)cc2n1

>  <Name>  (977) 
nan

>  <Pocket>  (977) 
nan

>  <ATP_Site>  (977) 
nan

>  <Peripheral>  (977) 
nan

>  <Num_H_Atoms_ProtBoundConf>  (977) 
nan

>  <Num_Resolved_Atoms>  (977) 
nan

>  <Num_Not_Resolved_Atoms>  (977) 
nan

$$$$
CHEMBL5093550
     RDKit          3D

  0  0  0  0  0  0  0  0  0  0999 V3000
M  V30 BEGIN CTAB
M  V30 COUNTS 60 64 0 0 0
M  V30 BEGIN ATOM
M  V30 1 C 1.744783 -1.821088 6.689742 0
M  V30 2 C 2.122211 -1.758524 5.265384 0
M  V30 3 N 3.320559 -1.325169 4.839471 0
M  V30 4 C 3.668527 -1.263705 3.550395 0
M  V30 5 C 4.889501 -0.819238 3.072822 0
M  V30 6 C 5.121913 -0.800806 1.706750 0
M  V30 7 C 4.188896 -1.207603 0.778086 0
M  V30 8 C 4.372541 -1.198822 -0.666614 0
M  V30 9 N 3.324593 -0.731376 -1.341723 0
M  V30 10 C 3.148517 -0.578778 -2.629055 0
M  V30 11 N 1.985939 -0.076951 -3.264995 0
M  V30 12 C 0.765973 0.305916 -2.654072 0
M  V30 13 C 0.494807 0.242220 -1.304628 0
M  V30 14 C -0.685283 0.612917 -0.697059 0
M  V30 15 C -1.698904 1.098066 -1.523453 0
M  V30 16 C -2.935275 1.479503 -0.855161 0
M  V30 17 O -3.472190 2.585635 -0.620494 0
M  V30 18 N -3.674300 0.337508 -0.373115 0
M  V30 19 C -4.932877 0.531166 0.326523 0
M  V30 20 C -6.028491 -0.025513 -0.554785 0
M  V30 21 N -5.447264 -0.855712 -1.551065 0
M  V30 22 C -5.237086 -0.270167 -2.831147 0
M  V30 23 C -4.467274 -1.791520 -1.120624 0
M  V30 24 C -3.300858 -1.053715 -0.509484 0
M  V30 25 C -1.398836 1.150213 -2.866777 0
M  V30 26 N -0.235451 0.777287 -3.410293 0
M  V30 27 N 4.210996 -0.964046 -3.340117 0
M  V30 28 C 5.323963 -1.447940 -2.810048 0
M  V30 29 C 5.467882 -1.593085 -1.447152 0
M  V30 30 F 6.502276 -2.056631 -0.702401 0
M  V30 31 C 2.961337 -1.652884 1.286817 0
M  V30 32 C 2.723163 -1.674192 2.641997 0
M  V30 33 N 1.520475 -2.109759 3.050517 0
M  V30 34 C 1.166262 -2.173359 4.339845 0
M  V30 35 C -0.190356 -2.667687 4.722128 0
M  V30 36 H 1.006715 -1.008158 6.869150 0
M  V30 37 H 1.346455 -2.814939 6.972824 0
M  V30 38 H 2.633124 -1.578668 7.316091 0
M  V30 39 H 5.622359 -0.500342 3.787302 0
M  V30 40 H 6.084305 -0.447682 1.329688 0
M  V30 41 H 2.042581 0.019167 -4.304924 0
M  V30 42 H 1.235543 -0.127934 -0.614429 0
M  V30 43 H -0.837298 0.539266 0.371247 0
M  V30 44 H -4.913831 -0.120234 1.245662 0
M  V30 45 H -5.097227 1.594192 0.602169 0
M  V30 46 H -6.473234 0.876536 -1.071272 0
M  V30 47 H -6.802953 -0.526865 0.058615 0
M  V30 48 H -5.201946 0.831731 -2.732648 0
M  V30 49 H -5.969563 -0.607622 -3.603235 0
M  V30 50 H -4.242693 -0.594732 -3.201411 0
M  V30 51 H -4.859131 -2.570943 -0.434573 0
M  V30 52 H -4.098114 -2.315594 -2.044156 0
M  V30 53 H -3.075054 -1.475485 0.494014 0
M  V30 54 H -2.380550 -1.183768 -1.119211 0
M  V30 55 H -2.213717 1.535859 -3.485796 0
M  V30 56 H 6.204625 -1.771014 -3.354013 0
M  V30 57 H 2.197724 -1.984072 0.593110 0
M  V30 58 H -0.406083 -2.290389 5.739727 0
M  V30 59 H -0.248960 -3.761322 4.687741 0
M  V30 60 H -0.917072 -2.264109 3.966984 0
M  V30 END ATOM
M  V30 BEGIN BOND
M  V30 1 1 1 2
M  V30 2 2 2 3
M  V30 3 1 3 4
M  V30 4 2 4 5
M  V30 5 1 5 6
M  V30 6 2 6 7
M  V30 7 1 7 8
M  V30 8 2 8 9
M  V30 9 1 9 10
M  V30 10 1 10 11
M  V30 11 1 11 12
M  V30 12 2 12 13
M  V30 13 1 13 14
M  V30 14 2 14 15
M  V30 15 1 15 16
M  V30 16 2 16 17
M  V30 17 1 16 18
M  V30 18 1 18 19
M  V30 19 1 19 20
M  V30 20 1 20 21
M  V30 21 1 21 22
M  V30 22 1 21 23
M  V30 23 1 23 24
M  V30 24 1 15 25
M  V30 25 2 25 26
M  V30 26 2 10 27
M  V30 27 1 27 28
M  V30 28 2 28 29
M  V30 29 1 29 30
M  V30 30 1 7 31
M  V30 31 2 31 32
M  V30 32 1 32 33
M  V30 33 2 33 34
M  V30 34 1 34 35
M  V30 35 1 34 2
M  V30 36 1 32 4
M  V30 37 1 29 8
M  V30 38 1 26 12
M  V30 39 1 24 18
M  V30 40 1 1 36
M  V30 41 1 1 37
M  V30 42 1 1 38
M  V30 43 1 5 39
M  V30 44 1 6 40
M  V30 45 1 11 41
M  V30 46 1 13 42
M  V30 47 1 14 43
M  V30 48 1 19 44
M  V30 49 1 19 45
M  V30 50 1 20 46
M  V30 51 1 20 47
M  V30 52 1 22 48
M  V30 53 1 22 49
M  V30 54 1 22 50
M  V30 55 1 23 51
M  V30 56 1 23 52
M  V30 57 1 24 53
M  V30 58 1 24 54
M  V30 59 1 25 55
M  V30 60 1 28 56
M  V30 61 1 31 57
M  V30 62 1 35 58
M  V30 63 1 35 59
M  V30 64 1 35 60
M  V30 END BOND
M  V30 END CTAB
M  END
>  <Dataset>  (978) 
ChEMBL_Kinases

>  <Ligand_Instance>  (978) 
nan

>  <PDB_ID>  (978) 
nan

>  <Standardized_SMILES>  (978) 
Cc1nc2ccc(-c3nc(Nc4ccc(C(=O)N5CCN(C)CC5)cn4)ncc3F)cc2nc1C

>  <Name>  (978) 
nan

>  <Pocket>  (978) 
nan

>  <ATP_Site>  (978) 
nan

>  <Peripheral>  (978) 
nan

>  <Num_H_Atoms_ProtBoundConf>  (978) 
nan

>  <Num_Resolved_Atoms>  (978) 
nan

>  <Num_Not_Resolved_Atoms>  (978) 
nan

$$$$
CHEMBL5093557
     RDKit          3D

  0  0  0  0  0  0  0  0  0  0999 V3000
M  V30 BEGIN CTAB
M  V30 COUNTS 58 62 0 0 0
M  V30 BEGIN ATOM
M  V30 1 C 1.950546 -0.492316 3.714621 0
M  V30 2 S 3.539951 -0.964036 3.118979 0
M  V30 3 O 4.592149 -0.807070 4.198788 0
M  V30 4 O 3.496763 -2.445441 2.803661 0
M  V30 5 N 4.029935 -0.143287 1.723918 0
M  V30 6 C 3.196231 -0.334723 0.571426 0
M  V30 7 C 3.689001 0.527343 -0.556582 0
M  V30 8 N 3.639165 1.903400 -0.228825 0
M  V30 9 C 2.802826 2.722854 -1.030013 0
M  V30 10 C 1.366086 2.386794 -0.891663 0
M  V30 11 C 0.547957 1.501771 -1.557983 0
M  V30 12 C -0.771486 1.415858 -1.177769 0
M  V30 13 C -1.342585 2.156047 -0.170246 0
M  V30 14 N -2.716582 1.974309 0.160855 0
M  V30 15 C -3.433027 1.003887 -0.590390 0
M  V30 16 N -4.311044 1.117301 -1.599770 0
M  V30 17 C -4.876321 0.041216 -2.187893 0
M  V30 18 C -4.498806 -1.170640 -1.691886 0
M  V30 19 F -5.043678 -2.282651 -2.256883 0
M  V30 20 C -3.607822 -1.365785 -0.664301 0
M  V30 21 C -3.265736 -2.712934 -0.226053 0
M  V30 22 C -1.901393 -2.898826 -0.083741 0
M  V30 23 C -1.394675 -4.131157 0.330194 0
M  V30 24 C -2.292098 -5.172178 0.598070 0
M  V30 25 N -1.839180 -6.372156 0.997822 0
M  V30 26 C -2.696489 -7.371259 1.253500 0
M  V30 27 C -4.061596 -7.143887 1.098038 0
M  V30 28 N -4.512732 -5.940229 0.697762 0
M  V30 29 C -3.645017 -4.919305 0.435563 0
M  V30 30 C -4.176849 -3.714120 0.028314 0
M  V30 31 N -3.097572 -0.236567 -0.141428 0
M  V30 32 N -0.526084 3.028735 0.481117 0
M  V30 33 C 0.787094 3.143439 0.134352 0
M  V30 34 C 3.695046 2.223972 1.154869 0
M  V30 35 C 4.503898 1.189503 1.896677 0
M  V30 36 H 1.194116 -1.065997 3.106774 0
M  V30 37 H 1.848860 -0.889377 4.751598 0
M  V30 38 H 1.767467 0.581472 3.719024 0
M  V30 39 H 3.377876 -1.400374 0.241358 0
M  V30 40 H 2.119459 -0.256439 0.745054 0
M  V30 41 H 3.219742 0.335315 -1.516244 0
M  V30 42 H 4.786358 0.267019 -0.663130 0
M  V30 43 H 3.011050 3.803701 -0.945621 0
M  V30 44 H 3.058253 2.478059 -2.106921 0
M  V30 45 H 1.078000 0.970141 -2.330429 0
M  V30 46 H -1.363702 0.700715 -1.741692 0
M  V30 47 H -3.085721 2.586564 0.946283 0
M  V30 48 H -5.567705 0.234365 -2.989395 0
M  V30 49 H -1.147202 -2.136417 -0.274358 0
M  V30 50 H -0.342873 -4.334202 0.456969 0
M  V30 51 H -2.229852 -8.301632 1.569259 0
M  V30 52 H -4.696803 -8.001718 1.324253 0
M  V30 53 H -5.220419 -3.500371 -0.103008 0
M  V30 54 H 1.205112 3.904018 0.799179 0
M  V30 55 H 4.211152 3.195885 1.272419 0
M  V30 56 H 2.727972 2.301416 1.681711 0
M  V30 57 H 5.563049 1.323994 1.611830 0
M  V30 58 H 4.404545 1.448153 2.989254 0
M  V30 END ATOM
M  V30 BEGIN BOND
M  V30 1 1 1 2
M  V30 2 2 2 3
M  V30 3 2 2 4
M  V30 4 1 2 5
M  V30 5 1 5 6
M  V30 6 1 6 7
M  V30 7 1 7 8
M  V30 8 1 8 9
M  V30 9 1 9 10
M  V30 10 2 10 11
M  V30 11 1 11 12
M  V30 12 2 12 13
M  V30 13 1 13 14
M  V30 14 1 14 15
M  V30 15 2 15 16
M  V30 16 1 16 17
M  V30 17 2 17 18
M  V30 18 1 18 19
M  V30 19 1 18 20
M  V30 20 1 20 21
M  V30 21 2 21 22
M  V30 22 1 22 23
M  V30 23 2 23 24
M  V30 24 1 24 25
M  V30 25 2 25 26
M  V30 26 1 26 27
M  V30 27 2 27 28
M  V30 28 1 28 29
M  V30 29 2 29 30
M  V30 30 2 20 31
M  V30 31 1 13 32
M  V30 32 2 32 33
M  V30 33 1 8 34
M  V30 34 1 34 35
M  V30 35 1 35 5
M  V30 36 1 33 10
M  V30 37 1 31 15
M  V30 38 1 30 21
M  V30 39 1 29 24
M  V30 40 1 1 36
M  V30 41 1 1 37
M  V30 42 1 1 38
M  V30 43 1 6 39
M  V30 44 1 6 40
M  V30 45 1 7 41
M  V30 46 1 7 42
M  V30 47 1 9 43
M  V30 48 1 9 44
M  V30 49 1 11 45
M  V30 50 1 12 46
M  V30 51 1 14 47
M  V30 52 1 17 48
M  V30 53 1 22 49
M  V30 54 1 23 50
M  V30 55 1 26 51
M  V30 56 1 27 52
M  V30 57 1 30 53
M  V30 58 1 33 54
M  V30 59 1 34 55
M  V30 60 1 34 56
M  V30 61 1 35 57
M  V30 62 1 35 58
M  V30 END BOND
M  V30 END CTAB
M  END
>  <Dataset>  (979) 
ChEMBL_Kinases

>  <Ligand_Instance>  (979) 
nan

>  <PDB_ID>  (979) 
nan

>  <Standardized_SMILES>  (979) 
CS(=O)(=O)N1CCN(Cc2ccc(Nc3ncc(F)c(-c4ccc5nccnc5c4)n3)nc2)CC1

>  <Name>  (979) 
nan

>  <Pocket>  (979) 
nan

>  <ATP_Site>  (979) 
nan

>  <Peripheral>  (979) 
nan

>  <Num_H_Atoms_ProtBoundConf>  (979) 
nan

>  <Num_Resolved_Atoms>  (979) 
nan

>  <Num_Not_Resolved_Atoms>  (979) 
nan

$$$$
CHEMBL5093575
     RDKit          3D

  0  0  0  0  0  0  0  0  0  0999 V3000
M  V30 BEGIN CTAB
M  V30 COUNTS 53 57 0 0 0
M  V30 BEGIN ATOM
M  V30 1 O 4.481976 -0.656959 -2.060521 0
M  V30 2 C 3.535768 -1.078394 -1.353720 0
M  V30 3 N 3.789258 -2.020840 -0.320803 0
M  V30 4 C 5.088555 -2.570599 0.013856 0
M  V30 5 C 5.850825 -1.532999 0.751483 0
M  V30 6 C 6.694226 -0.602836 0.135280 0
M  V30 7 C 7.201407 0.171704 1.143809 0
M  V30 8 N 6.692581 -0.265849 2.309033 0
M  V30 9 N 5.871139 -1.299989 2.088223 0
M  V30 10 C 2.222614 -0.537309 -1.676935 0
M  V30 11 C 1.243125 -0.231235 -0.741070 0
M  V30 12 C 0.009882 0.275365 -1.078564 0
M  V30 13 C -0.999929 0.577955 -0.074712 0
M  V30 14 C -2.227701 1.086406 -0.498757 0
M  V30 15 C -3.177703 1.352100 0.465444 0
M  V30 16 C -3.036456 1.163582 1.826430 0
M  V30 17 N -4.066251 1.443735 2.764507 0
M  V30 18 S -4.494361 0.270715 3.954130 0
M  V30 19 O -5.477888 0.855870 4.956006 0
M  V30 20 O -3.261469 -0.039769 4.755890 0
M  V30 21 C -5.090915 -1.209424 3.282316 0
M  V30 22 C -5.261063 -1.507529 1.967910 0
M  V30 23 C -5.752866 -2.714177 1.480570 0
M  V30 24 C -6.086745 -3.664805 2.411669 0
M  V30 25 C -5.932223 -3.411630 3.770454 0
M  V30 26 Cl -6.386857 -4.701952 4.874996 0
M  V30 27 C -5.431983 -2.177899 4.203579 0
M  V30 28 Cl -5.307579 -2.039409 5.957411 0
M  V30 29 C -1.801708 0.658734 2.193566 0
M  V30 30 C -0.814274 0.374866 1.272935 0
M  V30 31 N -0.239522 0.477161 -2.384623 0
M  V30 32 C 0.701519 0.186909 -3.334637 0
M  V30 33 N 0.590092 0.334315 -4.666291 0
M  V30 34 N 1.735262 -0.066673 -5.234391 0
M  V30 35 C 2.576711 -0.471852 -4.242079 0
M  V30 36 C 1.946413 -0.321502 -3.031651 0
M  V30 37 H 2.956331 -2.348449 0.252788 0
M  V30 38 H 4.962783 -3.517327 0.568864 0
M  V30 39 H 5.671284 -2.837717 -0.895229 0
M  V30 40 H 6.955451 -0.447949 -0.895817 0
M  V30 41 H 7.888157 1.010548 1.167066 0
M  V30 42 H 6.805458 0.028054 3.314376 0
M  V30 43 H 1.537227 -0.423701 0.278069 0
M  V30 44 H -2.484144 1.286991 -1.536243 0
M  V30 45 H -4.150056 1.753828 0.137841 0
M  V30 46 H -4.574470 2.356222 2.747703 0
M  V30 47 H -4.993701 -0.749722 1.262104 0
M  V30 48 H -5.859514 -2.873771 0.414563 0
M  V30 49 H -6.479645 -4.632223 2.080386 0
M  V30 50 H -1.582130 0.475846 3.240495 0
M  V30 51 H 0.127555 -0.017465 1.647979 0
M  V30 52 H -0.165331 0.677464 -5.298610 0
M  V30 53 H 3.586953 -0.860399 -4.299474 0
M  V30 END ATOM
M  V30 BEGIN BOND
M  V30 1 2 1 2
M  V30 2 1 2 3
M  V30 3 1 3 4
M  V30 4 1 4 5
M  V30 5 1 5 6
M  V30 6 2 6 7
M  V30 7 1 7 8
M  V30 8 1 8 9
M  V30 9 1 2 10
M  V30 10 2 10 11
M  V30 11 1 11 12
M  V30 12 1 12 13
M  V30 13 2 13 14
M  V30 14 1 14 15
M  V30 15 2 15 16
M  V30 16 1 16 17
M  V30 17 1 17 18
M  V30 18 2 18 19
M  V30 19 2 18 20
M  V30 20 1 18 21
M  V30 21 2 21 22
M  V30 22 1 22 23
M  V30 23 2 23 24
M  V30 24 1 24 25
M  V30 25 1 25 26
M  V30 26 2 25 27
M  V30 27 1 27 28
M  V30 28 1 16 29
M  V30 29 2 29 30
M  V30 30 2 12 31
M  V30 31 1 31 32
M  V30 32 1 32 33
M  V30 33 1 33 34
M  V30 34 2 34 35
M  V30 35 1 35 36
M  V30 36 2 9 5
M  V30 37 1 36 10
M  V30 38 1 30 13
M  V30 39 2 36 32
M  V30 40 1 27 21
M  V30 41 1 3 37
M  V30 42 1 4 38
M  V30 43 1 4 39
M  V30 44 1 6 40
M  V30 45 1 7 41
M  V30 46 1 8 42
M  V30 47 1 11 43
M  V30 48 1 14 44
M  V30 49 1 15 45
M  V30 50 1 17 46
M  V30 51 1 22 47
M  V30 52 1 23 48
M  V30 53 1 24 49
M  V30 54 1 29 50
M  V30 55 1 30 51
M  V30 56 1 33 52
M  V30 57 1 35 53
M  V30 END BOND
M  V30 END CTAB
M  END
>  <Dataset>  (980) 
ChEMBL_Kinases

>  <Ligand_Instance>  (980) 
nan

>  <PDB_ID>  (980) 
nan

>  <Standardized_SMILES>  (980) 
O=C(NCc1cc[nH]n1)c1cc(-c2ccc(NS(=O)(=O)c3cccc(Cl)c3Cl)cc2)nc2[nH]ncc12

>  <Name>  (980) 
nan

>  <Pocket>  (980) 
nan

>  <ATP_Site>  (980) 
nan

>  <Peripheral>  (980) 
nan

>  <Num_H_Atoms_ProtBoundConf>  (980) 
nan

>  <Num_Resolved_Atoms>  (980) 
nan

>  <Num_Not_Resolved_Atoms>  (980) 
nan

$$$$
CHEMBL5093576
     RDKit          3D

  0  0  0  0  0  0  0  0  0  0999 V3000
M  V30 BEGIN CTAB
M  V30 COUNTS 38 40 0 0 0
M  V30 BEGIN ATOM
M  V30 1 C -0.612491 -3.551237 3.169648 0
M  V30 2 C -1.654228 -2.972642 2.273504 0
M  V30 3 C -1.383043 -3.133055 0.800951 0
M  V30 4 C -0.951221 -1.841145 0.153489 0
M  V30 5 N -0.064906 -1.084897 1.059078 0
M  V30 6 C 1.210664 -0.451491 0.881003 0
M  V30 7 C 2.247193 -1.003487 1.614297 0
M  V30 8 C 3.583640 -0.595694 1.621179 0
M  V30 9 N 3.828969 0.448204 0.810110 0
M  V30 10 C 2.857827 0.992687 0.100496 0
M  V30 11 S 2.898821 2.368806 -1.038592 0
M  V30 12 C 1.164608 2.346727 -1.470722 0
M  V30 13 C 0.597795 3.289330 -2.405568 0
M  V30 14 N 1.396600 4.283543 -3.028435 0
M  V30 15 O -0.612081 3.210735 -2.654517 0
M  V30 16 C 0.680227 1.326073 -0.743900 0
M  V30 17 N -0.712856 1.101116 -0.912531 0
M  V30 18 C 1.522302 0.618510 0.065768 0
M  V30 19 C -0.448277 -0.877311 2.442809 0
M  V30 20 C -1.796502 -1.484867 2.636007 0
M  V30 21 H 0.385998 -3.527965 2.707826 0
M  V30 22 H -0.891551 -4.594374 3.429926 0
M  V30 23 H -0.542053 -3.022525 4.142276 0
M  V30 24 H -2.648136 -3.418685 2.481739 0
M  V30 25 H -0.549465 -3.849898 0.694356 0
M  V30 26 H -2.241836 -3.538154 0.239595 0
M  V30 27 H -1.857858 -1.256841 -0.083354 0
M  V30 28 H -0.382342 -2.025419 -0.772037 0
M  V30 29 H 2.060248 -1.862045 2.284875 0
M  V30 30 H 4.321152 -1.072582 2.213393 0
M  V30 31 H 1.425176 4.237912 -4.056659 0
M  V30 32 H 1.803560 4.877702 -2.259295 0
M  V30 33 H -1.212371 1.319253 -0.000842 0
M  V30 34 H -1.119813 0.766703 -1.835988 0
M  V30 35 H -0.377404 0.177825 2.752002 0
M  V30 36 H 0.246183 -1.449325 3.115227 0
M  V30 37 H -2.574222 -1.104975 1.959278 0
M  V30 38 H -2.123585 -1.467641 3.695787 0
M  V30 END ATOM
M  V30 BEGIN BOND
M  V30 1 1 1 2
M  V30 2 1 2 3
M  V30 3 1 3 4
M  V30 4 1 4 5
M  V30 5 1 5 6
M  V30 6 2 6 7
M  V30 7 1 7 8
M  V30 8 2 8 9
M  V30 9 1 9 10
M  V30 10 1 10 11
M  V30 11 1 11 12
M  V30 12 1 12 13
M  V30 13 1 13 14
M  V30 14 2 13 15
M  V30 15 2 12 16
M  V30 16 1 16 17
M  V30 17 1 16 18
M  V30 18 1 5 19
M  V30 19 1 19 20
M  V30 20 1 20 2
M  V30 21 1 18 6
M  V30 22 2 18 10
M  V30 23 1 1 21
M  V30 24 1 1 22
M  V30 25 1 1 23
M  V30 26 1 2 24
M  V30 27 1 3 25
M  V30 28 1 3 26
M  V30 29 1 4 27
M  V30 30 1 4 28
M  V30 31 1 7 29
M  V30 32 1 8 30
M  V30 33 1 14 31
M  V30 34 1 14 32
M  V30 35 1 17 33
M  V30 36 1 17 34
M  V30 37 1 19 35
M  V30 38 1 19 36
M  V30 39 1 20 37
M  V30 40 1 20 38
M  V30 END BOND
M  V30 END CTAB
M  END
>  <Dataset>  (981) 
ChEMBL_Kinases

>  <Ligand_Instance>  (981) 
nan

>  <PDB_ID>  (981) 
nan

>  <Standardized_SMILES>  (981) 
CC1CCN(c2ccnc3sc(C(N)=O)c(N)c23)CC1

>  <Name>  (981) 
nan

>  <Pocket>  (981) 
nan

>  <ATP_Site>  (981) 
nan

>  <Peripheral>  (981) 
nan

>  <Num_H_Atoms_ProtBoundConf>  (981) 
nan

>  <Num_Resolved_Atoms>  (981) 
nan

>  <Num_Not_Resolved_Atoms>  (981) 
nan

$$$$
CHEMBL578836
     RDKit          3D

  0  0  0  0  0  0  0  0  0  0999 V3000
M  V30 BEGIN CTAB
M  V30 COUNTS 42 45 0 0 0
M  V30 BEGIN ATOM
M  V30 1 C 1.166567 -7.134589 -0.536002 0
M  V30 2 O 2.197662 -6.619126 0.261076 0
M  V30 3 C 2.254913 -5.248670 0.463113 0
M  V30 4 C 3.323370 -4.919324 1.265078 0
M  V30 5 C 3.577403 -3.585303 1.603519 0
M  V30 6 C 2.737176 -2.599601 1.119349 0
M  V30 7 C 1.674371 -2.960968 0.317545 0
M  V30 8 C 1.412873 -4.271381 -0.023409 0
M  V30 9 C 0.898276 -1.778332 -0.096494 0
M  V30 10 N -0.156347 -1.325172 -0.795108 0
M  V30 11 N -0.175795 -0.013679 -0.653198 0
M  V30 12 C 0.829474 0.431408 0.117063 0
M  V30 13 N 1.059345 1.793037 0.441527 0
M  V30 14 C 0.331612 2.987248 0.065191 0
M  V30 15 C -1.073174 2.985316 0.515162 0
M  V30 16 C -1.281942 3.198326 1.859123 0
M  V30 17 C -0.180740 3.413455 2.838249 0
M  V30 18 C -2.572487 3.216021 2.336057 0
M  V30 19 C -3.692049 3.034937 1.565496 0
M  V30 20 C -3.476693 2.821937 0.219186 0
M  V30 21 C -2.187661 2.801512 -0.274396 0
M  V30 22 Cl -1.924568 2.542815 -1.991405 0
M  V30 23 C 1.543964 -0.713349 0.490493 0
M  V30 24 C 2.715277 -1.121629 1.278378 0
M  V30 25 H 0.243287 -7.277708 0.060576 0
M  V30 26 H 0.917632 -6.513124 -1.404602 0
M  V30 27 H 1.480491 -8.167721 -0.863625 0
M  V30 28 H 4.054475 -5.593232 1.707721 0
M  V30 29 H 4.409403 -3.278612 2.233906 0
M  V30 30 H 0.609019 -4.644803 -0.640924 0
M  V30 31 H -0.809286 -1.923012 -1.332179 0
M  V30 32 H 1.914115 1.923053 1.066099 0
M  V30 33 H 0.327591 3.080478 -1.065419 0
M  V30 34 H 0.887789 3.878404 0.399429 0
M  V30 35 H -0.561376 3.886155 3.766250 0
M  V30 36 H 0.154365 2.390287 3.169040 0
M  V30 37 H 0.694674 3.913681 2.425298 0
M  V30 38 H -2.741235 3.384854 3.403617 0
M  V30 39 H -4.705588 3.046437 1.924414 0
M  V30 40 H -4.327015 2.673980 -0.430856 0
M  V30 41 H 2.648023 -0.812544 2.343519 0
M  V30 42 H 3.667699 -0.694008 0.883856 0
M  V30 END ATOM
M  V30 BEGIN BOND
M  V30 1 1 1 2
M  V30 2 1 2 3
M  V30 3 2 3 4
M  V30 4 1 4 5
M  V30 5 2 5 6
M  V30 6 1 6 7
M  V30 7 2 7 8
M  V30 8 1 7 9
M  V30 9 1 9 10
M  V30 10 1 10 11
M  V30 11 2 11 12
M  V30 12 1 12 13
M  V30 13 1 13 14
M  V30 14 1 14 15
M  V30 15 2 15 16
M  V30 16 1 16 17
M  V30 17 1 16 18
M  V30 18 2 18 19
M  V30 19 1 19 20
M  V30 20 2 20 21
M  V30 21 1 21 22
M  V30 22 1 12 23
M  V30 23 1 23 24
M  V30 24 1 8 3
M  V30 25 2 23 9
M  V30 26 1 24 6
M  V30 27 1 21 15
M  V30 28 1 1 25
M  V30 29 1 1 26
M  V30 30 1 1 27
M  V30 31 1 4 28
M  V30 32 1 5 29
M  V30 33 1 8 30
M  V30 34 1 10 31
M  V30 35 1 13 32
M  V30 36 1 14 33
M  V30 37 1 14 34
M  V30 38 1 17 35
M  V30 39 1 17 36
M  V30 40 1 17 37
M  V30 41 1 18 38
M  V30 42 1 19 39
M  V30 43 1 20 40
M  V30 44 1 24 41
M  V30 45 1 24 42
M  V30 END BOND
M  V30 END CTAB
M  END
>  <Dataset>  (982) 
ChEMBL_Kinases

>  <Ligand_Instance>  (982) 
nan

>  <PDB_ID>  (982) 
nan

>  <Standardized_SMILES>  (982) 
COc1ccc2c(c1)-c1[nH]nc(NCc3c(C)cccc3Cl)c1C2

>  <Name>  (982) 
nan

>  <Pocket>  (982) 
nan

>  <ATP_Site>  (982) 
nan

>  <Peripheral>  (982) 
nan

>  <Num_H_Atoms_ProtBoundConf>  (982) 
nan

>  <Num_Resolved_Atoms>  (982) 
nan

>  <Num_Not_Resolved_Atoms>  (982) 
nan

$$$$
CHEMBL5093649
     RDKit          3D

  0  0  0  0  0  0  0  0  0  0999 V3000
M  V30 BEGIN CTAB
M  V30 COUNTS 55 57 0 0 0
M  V30 BEGIN ATOM
M  V30 1 C 2.779845 -1.251532 4.298793 0
M  V30 2 C 1.945171 0.081317 4.229952 0
M  V30 3 C 2.621639 0.985693 5.224412 0
M  V30 4 C 1.934330 0.500965 2.817005 0
M  V30 5 C 1.153487 1.719712 2.529788 0 CFG=2
M  V30 6 C 1.646077 2.932780 3.223913 0
M  V30 7 N -0.241676 1.439017 2.851531 0
M  V30 8 C 1.173568 2.043215 1.022105 0
M  V30 9 O 0.745979 1.011455 0.288415 0
M  V30 10 C -0.167263 0.166960 -0.073855 0
M  V30 11 C -1.482495 -0.087986 0.236508 0
M  V30 12 C -2.295083 -1.068248 -0.286032 0
M  V30 13 C -1.681559 -1.865678 -1.227261 0
M  V30 14 C -2.530584 -2.918007 -1.798481 0
M  V30 15 C -1.991796 -4.118536 -2.213444 0
M  V30 16 C -2.789804 -5.128844 -2.760020 0
M  V30 17 N -4.109798 -4.893895 -2.870345 0
M  V30 18 C -4.703140 -3.749060 -2.487163 0
M  V30 19 C -6.161112 -3.486882 -2.609115 0
M  V30 20 F -6.524396 -3.406356 -3.961345 0
M  V30 21 F -6.891900 -4.500736 -2.026640 0
M  V30 22 C -3.895082 -2.755763 -1.946065 0
M  V30 23 C -0.374991 -1.728835 -1.637488 0
M  V30 24 C 0.368383 -0.699086 -1.043649 0
M  V30 25 C 1.779050 -0.646974 -1.562899 0
M  V30 26 C 1.905948 0.356644 -2.736518 0
M  V30 27 C 2.134300 -1.100151 -2.898293 0
M  V30 28 H 3.856180 -0.991429 4.383336 0
M  V30 29 H 2.533875 -1.812598 3.381227 0
M  V30 30 H 2.429918 -1.835327 5.163983 0
M  V30 31 H 0.973979 -0.197863 4.647317 0
M  V30 32 H 3.641851 1.304440 4.931370 0
M  V30 33 H 2.053321 1.851340 5.558665 0
M  V30 34 H 2.775691 0.392116 6.202431 0
M  V30 35 H 2.996471 0.640417 2.415403 0
M  V30 36 H 1.546994 -0.307045 2.129710 0
M  V30 37 H 1.663126 3.823043 2.494976 0
M  V30 38 H 2.703316 2.839277 3.503064 0
M  V30 39 H 1.016158 3.263509 4.084782 0
M  V30 40 H -0.591084 1.983131 3.664992 0
M  V30 41 H -0.393008 0.430140 2.869412 0
M  V30 42 H 0.466342 2.914405 0.902046 0
M  V30 43 H 2.211219 2.418758 0.765904 0
M  V30 44 H -1.919035 0.572433 0.965870 0
M  V30 45 H -3.317523 -1.162943 0.045947 0
M  V30 46 H -0.922456 -4.313500 -2.126138 0
M  V30 47 H -2.354658 -6.069490 -3.083186 0
M  V30 48 H -6.423741 -2.472924 -2.209409 0
M  V30 49 H -4.311223 -1.808015 -1.616830 0
M  V30 50 H -0.052998 -2.438161 -2.381326 0
M  V30 51 H 2.564536 -0.547808 -0.768505 0
M  V30 52 H 2.756133 1.062001 -2.697473 0
M  V30 53 H 1.000010 0.775226 -3.174557 0
M  V30 54 H 3.227163 -1.355955 -3.042106 0
M  V30 55 H 1.467428 -1.729302 -3.487466 0
M  V30 END ATOM
M  V30 BEGIN BOND
M  V30 1 1 1 2
M  V30 2 1 2 3
M  V30 3 1 2 4
M  V30 4 1 4 5
M  V30 5 1 5 6
M  V30 6 1 5 7 CFG=1
M  V30 7 1 5 8
M  V30 8 1 8 9
M  V30 9 1 9 10
M  V30 10 2 10 11
M  V30 11 1 11 12
M  V30 12 2 12 13
M  V30 13 1 13 14
M  V30 14 2 14 15
M  V30 15 1 15 16
M  V30 16 2 16 17
M  V30 17 1 17 18
M  V30 18 1 18 19
M  V30 19 1 19 20
M  V30 20 1 19 21
M  V30 21 2 18 22
M  V30 22 1 13 23
M  V30 23 2 23 24
M  V30 24 1 24 25
M  V30 25 1 25 26
M  V30 26 1 26 27
M  V30 27 1 24 10
M  V30 28 1 27 25
M  V30 29 1 22 14
M  V30 30 1 1 28
M  V30 31 1 1 29
M  V30 32 1 1 30
M  V30 33 1 2 31
M  V30 34 1 3 32
M  V30 35 1 3 33
M  V30 36 1 3 34
M  V30 37 1 4 35
M  V30 38 1 4 36
M  V30 39 1 6 37
M  V30 40 1 6 38
M  V30 41 1 6 39
M  V30 42 1 7 40
M  V30 43 1 7 41
M  V30 44 1 8 42
M  V30 45 1 8 43
M  V30 46 1 11 44
M  V30 47 1 12 45
M  V30 48 1 15 46
M  V30 49 1 16 47
M  V30 50 1 19 48
M  V30 51 1 22 49
M  V30 52 1 23 50
M  V30 53 1 25 51
M  V30 54 1 26 52
M  V30 55 1 26 53
M  V30 56 1 27 54
M  V30 57 1 27 55
M  V30 END BOND
M  V30 END CTAB
M  END
>  <Dataset>  (983) 
ChEMBL_Kinases

>  <Ligand_Instance>  (983) 
nan

>  <PDB_ID>  (983) 
nan

>  <Standardized_SMILES>  (983) 
CC(C)C[C@](C)(N)COc1ccc(-c2ccnc(C(F)F)c2)cc1C1CC1

>  <Name>  (983) 
nan

>  <Pocket>  (983) 
nan

>  <ATP_Site>  (983) 
nan

>  <Peripheral>  (983) 
nan

>  <Num_H_Atoms_ProtBoundConf>  (983) 
nan

>  <Num_Resolved_Atoms>  (983) 
nan

>  <Num_Not_Resolved_Atoms>  (983) 
nan

$$$$
CHEMBL5093664
     RDKit          3D

  0  0  0  0  0  0  0  0  0  0999 V3000
M  V30 BEGIN CTAB
M  V30 COUNTS 63 67 0 0 0
M  V30 BEGIN ATOM
M  V30 1 O 2.746528 2.152949 0.975231 0
M  V30 2 C 1.623379 2.504328 1.468775 0
M  V30 3 N 1.578418 3.867103 1.792429 0
M  V30 4 C 2.667977 4.809604 1.602674 0 CFG=1
M  V30 5 C 2.259604 5.934946 0.666571 0
M  V30 6 C 1.876377 5.421013 -0.665263 0
M  V30 7 C 0.608999 5.039428 -1.050692 0
M  V30 8 C 0.326577 4.571658 -2.305802 0
M  V30 9 C 1.356064 4.485857 -3.201625 0
M  V30 10 C 2.659786 4.851433 -2.886773 0
M  V30 11 C 2.907895 5.320963 -1.605053 0
M  V30 12 C 3.096417 5.419063 2.885055 0
M  V30 13 O 4.035266 6.255677 2.889009 0
M  V30 14 O 3.259675 5.795994 4.186713 0
M  V30 15 C 0.495266 1.601925 1.681564 0
M  V30 16 C -0.728487 1.944587 2.218418 0
M  V30 17 C -1.716733 0.995439 2.365903 0
M  V30 18 C -1.554089 -0.309205 2.000767 0
M  V30 19 C -0.304086 -0.630695 1.459156 0
M  V30 20 C 0.713173 0.286175 1.293310 0
M  V30 21 C 0.140545 -1.952461 0.983280 0
M  V30 22 O 1.341452 -2.117670 0.623114 0
M  V30 23 C -0.720852 -3.153592 0.882911 0
M  V30 24 C -0.231572 -4.029127 -0.089156 0
M  V30 25 C -0.949443 -5.190892 -0.281608 0
M  V30 26 C -2.080226 -5.425399 0.471037 0
M  V30 27 N -2.808482 -6.627754 0.261593 0
M  V30 28 C -2.466260 -7.674365 -0.635777 0
M  V30 29 C -3.371530 -7.971054 -1.632415 0
M  V30 30 C -3.138266 -8.974956 -2.560275 0
M  V30 31 C -1.961980 -9.683713 -2.465224 0
M  V30 32 F -1.647853 -10.694541 -3.340718 0
M  V30 33 C -1.032855 -9.412740 -1.479274 0
M  V30 34 C -1.290297 -8.395703 -0.554862 0
M  V30 35 F -0.396767 -8.102964 0.433650 0
M  V30 36 C -2.561816 -4.562450 1.428677 0
M  V30 37 C -1.857679 -3.379588 1.646089 0
M  V30 38 C -2.469451 -2.529737 2.700719 0
M  V30 39 C -2.760333 -1.138212 2.255997 0
M  V30 40 H 0.703094 4.274600 2.207461 0
M  V30 41 H 3.549509 4.297539 1.168087 0
M  V30 42 H 1.430322 6.511118 1.143393 0
M  V30 43 H 3.115362 6.636040 0.584385 0
M  V30 44 H -0.171077 5.125072 -0.309189 0
M  V30 45 H -0.677705 4.273178 -2.599915 0
M  V30 46 H 1.207773 4.124479 -4.214179 0
M  V30 47 H 3.494708 4.786715 -3.598255 0
M  V30 48 H 3.926786 5.613635 -1.337248 0
M  V30 49 H 3.213096 5.077968 4.899418 0
M  V30 50 H -0.851250 2.985685 2.506681 0
M  V30 51 H -2.666342 1.331455 2.798786 0
M  V30 52 H 1.653348 -0.038921 0.866923 0
M  V30 53 H 0.665478 -3.753873 -0.626902 0
M  V30 54 H -0.557437 -5.855430 -1.038390 0
M  V30 55 H -3.691289 -6.861444 0.764533 0
M  V30 56 H -4.315567 -7.448981 -1.760940 0
M  V30 57 H -3.821365 -9.243218 -3.360726 0
M  V30 58 H -0.104264 -9.963167 -1.394859 0
M  V30 59 H -3.453500 -4.785562 1.997313 0
M  V30 60 H -1.790310 -2.482268 3.589982 0
M  V30 61 H -3.425919 -2.996415 2.987855 0
M  V30 62 H -3.375960 -0.641379 3.028416 0
M  V30 63 H -3.357298 -1.200718 1.299538 0
M  V30 END ATOM
M  V30 BEGIN BOND
M  V30 1 2 1 2
M  V30 2 1 2 3
M  V30 3 1 3 4
M  V30 4 1 4 5
M  V30 5 1 5 6
M  V30 6 2 6 7
M  V30 7 1 7 8
M  V30 8 2 8 9
M  V30 9 1 9 10
M  V30 10 2 10 11
M  V30 11 1 4 12
M  V30 12 2 12 13
M  V30 13 1 12 14
M  V30 14 1 2 15
M  V30 15 2 15 16
M  V30 16 1 16 17
M  V30 17 2 17 18
M  V30 18 1 18 19
M  V30 19 2 19 20
M  V30 20 1 19 21
M  V30 21 2 21 22
M  V30 22 1 21 23
M  V30 23 2 23 24
M  V30 24 1 24 25
M  V30 25 2 25 26
M  V30 26 1 26 27
M  V30 27 1 27 28
M  V30 28 2 28 29
M  V30 29 1 29 30
M  V30 30 2 30 31
M  V30 31 1 31 32
M  V30 32 1 31 33
M  V30 33 2 33 34
M  V30 34 1 34 35
M  V30 35 1 26 36
M  V30 36 2 36 37
M  V30 37 1 37 38
M  V30 38 1 38 39
M  V30 39 1 11 6
M  V30 40 1 20 15
M  V30 41 1 37 23
M  V30 42 1 39 18
M  V30 43 1 34 28
M  V30 44 1 3 40
M  V30 45 1 4 41 CFG=3
M  V30 46 1 5 42
M  V30 47 1 5 43
M  V30 48 1 7 44
M  V30 49 1 8 45
M  V30 50 1 9 46
M  V30 51 1 10 47
M  V30 52 1 11 48
M  V30 53 1 14 49
M  V30 54 1 16 50
M  V30 55 1 17 51
M  V30 56 1 20 52
M  V30 57 1 24 53
M  V30 58 1 25 54
M  V30 59 1 27 55
M  V30 60 1 29 56
M  V30 61 1 30 57
M  V30 62 1 33 58
M  V30 63 1 36 59
M  V30 64 1 38 60
M  V30 65 1 38 61
M  V30 66 1 39 62
M  V30 67 1 39 63
M  V30 END BOND
M  V30 END CTAB
M  END
>  <Dataset>  (984) 
ChEMBL_Kinases

>  <Ligand_Instance>  (984) 
nan

>  <PDB_ID>  (984) 
nan

>  <Standardized_SMILES>  (984) 
O=C(N[C@@H](Cc1ccccc1)C(=O)O)c1ccc2c(c1)C(=O)c1ccc(Nc3ccc(F)cc3F)cc1CC2

>  <Name>  (984) 
nan

>  <Pocket>  (984) 
nan

>  <ATP_Site>  (984) 
nan

>  <Peripheral>  (984) 
nan

>  <Num_H_Atoms_ProtBoundConf>  (984) 
nan

>  <Num_Resolved_Atoms>  (984) 
nan

>  <Num_Not_Resolved_Atoms>  (984) 
nan

$$$$
CHEMBL5093254
     RDKit          3D

  0  0  0  0  0  0  0  0  0  0999 V3000
M  V30 BEGIN CTAB
M  V30 COUNTS 46 50 0 0 0
M  V30 BEGIN ATOM
M  V30 1 C -2.917542 -5.632604 0.308201 0
M  V30 2 C -1.573161 -5.538630 0.618261 0
M  V30 3 C -0.883142 -4.343131 0.486279 0
M  V30 4 C 0.540369 -4.145542 0.801866 0
M  V30 5 C 1.641321 -4.232667 -0.146130 0
M  V30 6 C 1.377613 -5.422577 0.715390 0
M  V30 7 C -1.583212 -3.223677 0.028037 0
M  V30 8 N -0.944144 -2.026032 -0.121169 0
M  V30 9 C -1.624307 -0.946575 -0.567866 0
M  V30 10 N -0.776523 0.185519 -0.659930 0
M  V30 11 C -0.408274 1.146751 0.285770 0
M  V30 12 C -0.771939 1.218249 1.610874 0
M  V30 13 N -0.165881 2.322611 2.115272 0
M  V30 14 N 0.542536 2.904680 1.132536 0
M  V30 15 C 1.368310 4.120284 1.187272 0
M  V30 16 C 1.713405 4.407396 2.651681 0
M  V30 17 C 2.323140 3.158851 3.213664 0
M  V30 18 O 2.510031 2.137236 2.320839 0
M  V30 19 C 3.150179 2.453588 1.148357 0
M  V30 20 C 2.722908 3.771802 0.556814 0
M  V30 21 C 0.419485 2.202215 -0.031258 0
M  V30 22 N -2.948619 -1.027039 -0.876031 0
M  V30 23 C -3.626932 -2.182529 -0.747147 0
M  V30 24 C -2.925542 -3.290999 -0.288226 0
M  V30 25 C -3.588054 -4.489705 -0.148516 0
M  V30 26 H -3.402891 -6.582114 0.428620 0
M  V30 27 H -0.995119 -6.403477 0.980873 0
M  V30 28 H 0.674977 -3.563676 1.762326 0
M  V30 29 H 2.561304 -3.641042 0.141435 0
M  V30 30 H 1.519290 -4.248116 -1.236823 0
M  V30 31 H 0.919533 -6.293437 0.182762 0
M  V30 32 H 2.034073 -5.636515 1.585216 0
M  V30 33 H -0.452382 0.161557 -1.649382 0
M  V30 34 H -1.417543 0.534039 2.166755 0
M  V30 35 H 0.883184 4.966024 0.693795 0
M  V30 36 H 0.849611 4.799373 3.217821 0
M  V30 37 H 2.520039 5.193471 2.582999 0
M  V30 38 H 1.595865 2.782206 3.976714 0
M  V30 39 H 3.253440 3.382606 3.814995 0
M  V30 40 H 2.822382 1.677638 0.398106 0
M  V30 41 H 4.251673 2.326928 1.191174 0
M  V30 42 H 2.706658 3.814629 -0.530340 0
M  V30 43 H 3.430864 4.558939 0.937100 0
M  V30 44 H 0.878886 2.443091 -0.978439 0
M  V30 45 H -4.660961 -2.226408 -0.992090 0
M  V30 46 H -4.656611 -4.619660 -0.380558 0
M  V30 END ATOM
M  V30 BEGIN BOND
M  V30 1 2 1 2
M  V30 2 1 2 3
M  V30 3 1 3 4
M  V30 4 1 4 5
M  V30 5 1 5 6
M  V30 6 2 3 7
M  V30 7 1 7 8
M  V30 8 2 8 9
M  V30 9 1 9 10
M  V30 10 1 10 11
M  V30 11 1 11 12
M  V30 12 2 12 13
M  V30 13 1 13 14
M  V30 14 1 14 15
M  V30 15 1 15 16
M  V30 16 1 16 17
M  V30 17 1 17 18
M  V30 18 1 18 19
M  V30 19 1 19 20
M  V30 20 1 14 21
M  V30 21 1 9 22
M  V30 22 2 22 23
M  V30 23 1 23 24
M  V30 24 2 24 25
M  V30 25 1 25 1
M  V30 26 1 6 4
M  V30 27 1 24 7
M  V30 28 2 21 11
M  V30 29 1 20 15
M  V30 30 1 1 26
M  V30 31 1 2 27
M  V30 32 1 4 28
M  V30 33 1 5 29
M  V30 34 1 5 30
M  V30 35 1 6 31
M  V30 36 1 6 32
M  V30 37 1 10 33
M  V30 38 1 12 34
M  V30 39 1 15 35
M  V30 40 1 16 36
M  V30 41 1 16 37
M  V30 42 1 17 38
M  V30 43 1 17 39
M  V30 44 1 19 40
M  V30 45 1 19 41
M  V30 46 1 20 42
M  V30 47 1 20 43
M  V30 48 1 21 44
M  V30 49 1 23 45
M  V30 50 1 25 46
M  V30 END BOND
M  V30 END CTAB
M  END
>  <Dataset>  (985) 
ChEMBL_Kinases

>  <Ligand_Instance>  (985) 
nan

>  <PDB_ID>  (985) 
nan

>  <Standardized_SMILES>  (985) 
c1cc(C2CC2)c2nc(Nc3cnn(C4CCOCC4)c3)ncc2c1

>  <Name>  (985) 
nan

>  <Pocket>  (985) 
nan

>  <ATP_Site>  (985) 
nan

>  <Peripheral>  (985) 
nan

>  <Num_H_Atoms_ProtBoundConf>  (985) 
nan

>  <Num_Resolved_Atoms>  (985) 
nan

>  <Num_Not_Resolved_Atoms>  (985) 
nan

$$$$
CHEMBL578803
     RDKit          3D

  0  0  0  0  0  0  0  0  0  0999 V3000
M  V30 BEGIN CTAB
M  V30 COUNTS 40 42 0 0 0
M  V30 BEGIN ATOM
M  V30 1 C -1.225323 -2.283520 4.881389 0
M  V30 2 O -0.753607 -2.032540 3.599992 0
M  V30 3 C 0.173052 -2.768985 2.892003 0
M  V30 4 O 0.126134 -3.424836 3.930285 0
M  V30 5 C 0.823408 -2.735444 1.602607 0
M  V30 6 C 1.730086 -3.788208 1.471096 0
M  V30 7 C 2.454711 -3.886558 0.300474 0
M  V30 8 C 2.255673 -2.944620 -0.689306 0
M  V30 9 C 1.351493 -1.918594 -0.524237 0
M  V30 10 C 1.108245 -0.955959 -1.479166 0
M  V30 11 C 0.192824 0.057352 -1.288628 0
M  V30 12 C -0.548358 0.186708 -0.132179 0
M  V30 13 C -1.494528 1.227235 0.238406 0
M  V30 14 C -0.862261 2.392671 0.939129 0
M  V30 15 C -0.220163 1.934478 2.253299 0
M  V30 16 C 0.261002 3.052874 0.159575 0
M  V30 17 C -0.293259 -0.796877 0.828246 0
M  V30 18 C 0.610759 -1.788604 0.627719 0
M  V30 19 C 0.145130 0.894757 -2.484685 0
M  V30 20 O -0.569226 1.905060 -2.691180 0
M  V30 21 N 1.072650 0.373480 -3.442837 0
M  V30 22 C 1.657165 -0.760779 -2.815249 0
M  V30 23 O 2.528556 -1.466283 -3.383706 0
M  V30 24 H -1.972458 -1.484742 5.115055 0
M  V30 25 H -0.395504 -2.263336 5.636874 0
M  V30 26 H -1.782525 -3.239919 4.880329 0
M  V30 27 H 1.941658 -4.553565 2.185310 0
M  V30 28 H 3.170319 -4.671470 0.130959 0
M  V30 29 H 2.826156 -3.006360 -1.630549 0
M  V30 30 H -2.051989 1.646299 -0.628728 0
M  V30 31 H -2.290775 0.840596 0.918493 0
M  V30 32 H -1.593637 3.181649 1.207159 0
M  V30 33 H -0.963492 1.410512 2.894255 0
M  V30 34 H 0.626173 1.281582 1.979388 0
M  V30 35 H 0.188170 2.830003 2.743777 0
M  V30 36 H 0.766668 3.747046 0.905097 0
M  V30 37 H 0.996684 2.293189 -0.132239 0
M  V30 38 H -0.186700 3.638322 -0.659790 0
M  V30 39 H -0.839263 -0.753920 1.753184 0
M  V30 40 H 1.239828 0.782862 -4.385796 0
M  V30 END ATOM
M  V30 BEGIN BOND
M  V30 1 1 1 2
M  V30 2 1 2 3
M  V30 3 2 3 4
M  V30 4 1 3 5
M  V30 5 2 5 6
M  V30 6 1 6 7
M  V30 7 2 7 8
M  V30 8 1 8 9
M  V30 9 2 9 10
M  V30 10 1 10 11
M  V30 11 2 11 12
M  V30 12 1 12 13
M  V30 13 1 13 14
M  V30 14 1 14 15
M  V30 15 1 14 16
M  V30 16 1 12 17
M  V30 17 2 17 18
M  V30 18 1 11 19
M  V30 19 2 19 20
M  V30 20 1 19 21
M  V30 21 1 21 22
M  V30 22 2 22 23
M  V30 23 1 18 5
M  V30 24 1 18 9
M  V30 25 1 22 10
M  V30 26 1 1 24
M  V30 27 1 1 25
M  V30 28 1 1 26
M  V30 29 1 6 27
M  V30 30 1 7 28
M  V30 31 1 8 29
M  V30 32 1 13 30
M  V30 33 1 13 31
M  V30 34 1 14 32
M  V30 35 1 15 33
M  V30 36 1 15 34
M  V30 37 1 15 35
M  V30 38 1 16 36
M  V30 39 1 16 37
M  V30 40 1 16 38
M  V30 41 1 17 39
M  V30 42 1 21 40
M  V30 END BOND
M  V30 END CTAB
M  END
>  <Dataset>  (986) 
ChEMBL_Kinases

>  <Ligand_Instance>  (986) 
nan

>  <PDB_ID>  (986) 
nan

>  <Standardized_SMILES>  (986) 
COC(=O)c1cccc2c3c(c(CC(C)C)cc12)C(=O)NC3=O

>  <Name>  (986) 
nan

>  <Pocket>  (986) 
nan

>  <ATP_Site>  (986) 
nan

>  <Peripheral>  (986) 
nan

>  <Num_H_Atoms_ProtBoundConf>  (986) 
nan

>  <Num_Resolved_Atoms>  (986) 
nan

>  <Num_Not_Resolved_Atoms>  (986) 
nan

$$$$
CHEMBL578783
     RDKit          3D

  0  0  0  0  0  0  0  0  0  0999 V3000
M  V30 BEGIN CTAB
M  V30 COUNTS 47 50 0 0 0
M  V30 BEGIN ATOM
M  V30 1 C -0.563091 -2.262146 2.636176 0
M  V30 2 C -1.345279 -1.898671 1.452746 0
M  V30 3 C -0.706140 -1.218731 0.415336 0
M  V30 4 N 0.677969 -0.846519 0.422678 0
M  V30 5 C 1.074169 -0.164531 -0.759026 0
M  V30 6 C 1.577863 -0.973293 -1.752298 0
M  V30 7 C 1.719954 -2.391348 -1.585484 0
M  V30 8 N 1.838098 -3.533600 -1.442211 0
M  V30 9 C 1.958989 -0.409929 -2.945226 0
M  V30 10 N 1.822965 0.920071 -3.094487 0
M  V30 11 C 1.322683 1.682936 -2.091614 0
M  V30 12 C 0.909545 1.198628 -0.844548 0
M  V30 13 C 0.409237 2.112422 0.169353 0
M  V30 14 C 1.366169 2.554925 1.219071 0
M  V30 15 C 1.954143 1.482571 2.041185 0
M  V30 16 C 1.370159 1.029097 3.198250 0
M  V30 17 C 1.951020 0.028570 3.946643 0
M  V30 18 C 3.143886 -0.512227 3.503048 0
M  V30 19 C 3.736451 -0.063709 2.344320 0
M  V30 20 C 3.161492 0.945547 1.578696 0
M  V30 21 C -1.537867 -0.921927 -0.659761 0
M  V30 22 C -2.880040 -1.246481 -0.745764 0
M  V30 23 C -3.446631 -1.917195 0.313080 0
M  V30 24 N -4.696491 -2.357962 0.516414 0
M  V30 25 C -4.782202 -2.972268 1.728617 0
M  V30 26 C -3.504942 -2.898383 2.293392 0
M  V30 27 C -2.679910 -2.237465 1.400082 0
M  V30 28 H -1.092619 -3.083282 3.204086 0
M  V30 29 H -0.483179 -1.439532 3.380932 0
M  V30 30 H 0.439682 -2.650519 2.455911 0
M  V30 31 H 1.166167 -1.147202 1.297342 0
M  V30 32 H 2.364752 -0.941382 -3.790571 0
M  V30 33 H 1.239318 2.764023 -2.283630 0
M  V30 34 H -0.505331 1.740508 0.685959 0
M  V30 35 H 0.061679 3.043357 -0.369423 0
M  V30 36 H 2.164327 3.227275 0.821906 0
M  V30 37 H 0.789744 3.231899 1.921069 0
M  V30 38 H 0.431730 1.513724 3.469672 0
M  V30 39 H 1.382403 -0.232953 4.838314 0
M  V30 40 H 3.527459 -1.291624 4.152767 0
M  V30 41 H 4.659651 -0.599930 2.154269 0
M  V30 42 H 3.705547 1.215080 0.700577 0
M  V30 43 H -1.155962 -0.396811 -1.523034 0
M  V30 44 H -3.485571 -1.003234 -1.584335 0
M  V30 45 H -5.544287 -2.282965 -0.113019 0
M  V30 46 H -5.657991 -3.429300 2.174842 0
M  V30 47 H -3.269633 -3.309785 3.269295 0
M  V30 END ATOM
M  V30 BEGIN BOND
M  V30 1 1 1 2
M  V30 2 2 2 3
M  V30 3 1 3 4
M  V30 4 1 4 5
M  V30 5 2 5 6
M  V30 6 1 6 7
M  V30 7 3 7 8
M  V30 8 1 6 9
M  V30 9 2 9 10
M  V30 10 1 10 11
M  V30 11 2 11 12
M  V30 12 1 12 13
M  V30 13 1 13 14
M  V30 14 1 14 15
M  V30 15 2 15 16
M  V30 16 1 16 17
M  V30 17 2 17 18
M  V30 18 1 18 19
M  V30 19 2 19 20
M  V30 20 1 3 21
M  V30 21 2 21 22
M  V30 22 1 22 23
M  V30 23 1 23 24
M  V30 24 1 24 25
M  V30 25 2 25 26
M  V30 26 1 26 27
M  V30 27 1 27 2
M  V30 28 1 12 5
M  V30 29 1 20 15
M  V30 30 2 27 23
M  V30 31 1 1 28
M  V30 32 1 1 29
M  V30 33 1 1 30
M  V30 34 1 4 31
M  V30 35 1 9 32
M  V30 36 1 11 33
M  V30 37 1 13 34
M  V30 38 1 13 35
M  V30 39 1 14 36
M  V30 40 1 14 37
M  V30 41 1 16 38
M  V30 42 1 17 39
M  V30 43 1 18 40
M  V30 44 1 19 41
M  V30 45 1 20 42
M  V30 46 1 21 43
M  V30 47 1 22 44
M  V30 48 1 24 45
M  V30 49 1 25 46
M  V30 50 1 26 47
M  V30 END BOND
M  V30 END CTAB
M  END
>  <Dataset>  (987) 
ChEMBL_Kinases

>  <Ligand_Instance>  (987) 
nan

>  <PDB_ID>  (987) 
nan

>  <Standardized_SMILES>  (987) 
Cc1c(Nc2c(C#N)cncc2CCc2ccccc2)ccc2[nH]ccc12

>  <Name>  (987) 
nan

>  <Pocket>  (987) 
nan

>  <ATP_Site>  (987) 
nan

>  <Peripheral>  (987) 
nan

>  <Num_H_Atoms_ProtBoundConf>  (987) 
nan

>  <Num_Resolved_Atoms>  (987) 
nan

>  <Num_Not_Resolved_Atoms>  (987) 
nan

$$$$
CHEMBL5093744
     RDKit          3D

  0  0  0  0  0  0  0  0  0  0999 V3000
M  V30 BEGIN CTAB
M  V30 COUNTS 54 58 0 0 0
M  V30 BEGIN ATOM
M  V30 1 N 4.606161 -3.690625 2.943998 0
M  V30 2 C 4.768534 -3.451620 1.509687 0
M  V30 3 N 4.990081 -2.559826 0.837126 0
M  V30 4 C 5.110162 -2.479362 -0.474355 0
M  V30 5 C 5.408498 -1.207898 -1.177870 0
M  V30 6 N 4.150304 -0.499086 -1.444256 0
M  V30 7 C 3.184415 -0.774424 -2.469803 0
M  V30 8 O 3.479740 -1.731228 -3.208554 0
M  V30 9 C 2.041906 0.153774 -2.415635 0
M  V30 10 C 1.284842 0.125811 -1.254420 0
M  V30 11 C 0.188985 0.939621 -1.064800 0
M  V30 12 C -0.644523 0.952461 0.132147 0
M  V30 13 C -1.713228 1.823325 0.169959 0
M  V30 14 C -2.502090 1.836740 1.302324 0
M  V30 15 C -2.261130 1.011433 2.397904 0
M  V30 16 N -3.023992 0.967416 3.596133 0
M  V30 17 S -3.597439 -0.381920 4.472522 0
M  V30 18 O -2.384768 -1.188005 4.920723 0
M  V30 19 O -4.262365 0.120442 5.721397 0
M  V30 20 C -4.689526 -1.373290 3.570876 0
M  V30 21 C -5.017455 -1.063960 2.272192 0
M  V30 22 C -5.903106 -1.883298 1.559606 0
M  V30 23 C -6.439142 -2.987976 2.156475 0
M  V30 24 C -6.086714 -3.269087 3.465141 0
M  V30 25 Cl -6.761974 -4.680123 4.252143 0
M  V30 26 C -5.213184 -2.481873 4.203136 0
M  V30 27 Cl -4.828977 -2.928154 5.874001 0
M  V30 28 C -1.188771 0.141681 2.353182 0
M  V30 29 C -0.386583 0.125310 1.205956 0
M  V30 30 N -0.124606 1.782757 -2.075875 0
M  V30 31 C 0.588808 1.834963 -3.215918 0
M  V30 32 N 0.525678 2.541723 -4.356808 0
M  V30 33 N 1.488212 2.216197 -5.202272 0
M  V30 34 C 2.255193 1.257175 -4.655350 0
M  V30 35 C 1.689864 1.025414 -3.420558 0
M  V30 36 C 4.918473 -3.777976 -1.117857 0
M  V30 37 S 4.590779 -4.911635 0.308237 0
M  V30 38 H 5.253853 -4.265494 3.530740 0
M  V30 39 H 3.745377 -3.189809 3.250604 0
M  V30 40 H 6.129257 -0.605335 -0.610440 0
M  V30 41 H 5.873204 -1.442093 -2.178418 0
M  V30 42 H 4.019226 0.294330 -0.749315 0
M  V30 43 H 1.552421 -0.549419 -0.469156 0
M  V30 44 H -1.993797 2.508269 -0.620583 0
M  V30 45 H -3.349100 2.495868 1.384004 0
M  V30 46 H -3.173151 1.963845 3.849880 0
M  V30 47 H -4.612340 -0.198600 1.767968 0
M  V30 48 H -6.128304 -1.591688 0.533578 0
M  V30 49 H -7.120840 -3.604030 1.583896 0
M  V30 50 H -0.947548 -0.528737 3.175844 0
M  V30 51 H 0.435040 -0.564538 1.213365 0
M  V30 52 H -0.186920 3.277108 -4.590782 0
M  V30 53 H 3.136425 0.726326 -5.025084 0
M  V30 54 H 5.017095 -3.784331 -2.307936 0
M  V30 END ATOM
M  V30 BEGIN BOND
M  V30 1 1 1 2
M  V30 2 2 2 3
M  V30 3 1 3 4
M  V30 4 1 4 5
M  V30 5 1 5 6
M  V30 6 1 6 7
M  V30 7 2 7 8
M  V30 8 1 7 9
M  V30 9 2 9 10
M  V30 10 1 10 11
M  V30 11 1 11 12
M  V30 12 2 12 13
M  V30 13 1 13 14
M  V30 14 2 14 15
M  V30 15 1 15 16
M  V30 16 1 16 17
M  V30 17 2 17 18
M  V30 18 2 17 19
M  V30 19 1 17 20
M  V30 20 2 20 21
M  V30 21 1 21 22
M  V30 22 2 22 23
M  V30 23 1 23 24
M  V30 24 1 24 25
M  V30 25 2 24 26
M  V30 26 1 26 27
M  V30 27 1 15 28
M  V30 28 2 28 29
M  V30 29 2 11 30
M  V30 30 1 30 31
M  V30 31 1 31 32
M  V30 32 1 32 33
M  V30 33 2 33 34
M  V30 34 1 34 35
M  V30 35 2 4 36
M  V30 36 1 36 37
M  V30 37 1 37 2
M  V30 38 1 35 9
M  V30 39 1 29 12
M  V30 40 2 35 31
M  V30 41 1 26 20
M  V30 42 1 1 38
M  V30 43 1 1 39
M  V30 44 1 5 40
M  V30 45 1 5 41
M  V30 46 1 6 42
M  V30 47 1 10 43
M  V30 48 1 13 44
M  V30 49 1 14 45
M  V30 50 1 16 46
M  V30 51 1 21 47
M  V30 52 1 22 48
M  V30 53 1 23 49
M  V30 54 1 28 50
M  V30 55 1 29 51
M  V30 56 1 32 52
M  V30 57 1 34 53
M  V30 58 1 36 54
M  V30 END BOND
M  V30 END CTAB
M  END
>  <Dataset>  (988) 
ChEMBL_Kinases

>  <Ligand_Instance>  (988) 
nan

>  <PDB_ID>  (988) 
nan

>  <Standardized_SMILES>  (988) 
Nc1nc(CNC(=O)c2cc(-c3ccc(NS(=O)(=O)c4cccc(Cl)c4Cl)cc3)nc3[nH]ncc23)cs1

>  <Name>  (988) 
nan

>  <Pocket>  (988) 
nan

>  <ATP_Site>  (988) 
nan

>  <Peripheral>  (988) 
nan

>  <Num_H_Atoms_ProtBoundConf>  (988) 
nan

>  <Num_Resolved_Atoms>  (988) 
nan

>  <Num_Not_Resolved_Atoms>  (988) 
nan

$$$$
CHEMBL578663
     RDKit          3D

  0  0  0  0  0  0  0  0  0  0999 V3000
M  V30 BEGIN CTAB
M  V30 COUNTS 43 46 0 0 0
M  V30 BEGIN ATOM
M  V30 1 C 2.655329 -5.050630 -2.771273 0
M  V30 2 O 1.811956 -4.069097 -3.306428 0
M  V30 3 C 1.339618 -2.951715 -2.645725 0
M  V30 4 C 1.645106 -2.640988 -1.313410 0
M  V30 5 C 1.141263 -1.502917 -0.707827 0
M  V30 6 C 0.328685 -0.686261 -1.461859 0
M  V30 7 C 0.007358 -0.958705 -2.769936 0
M  V30 8 C 0.505725 -2.099560 -3.393382 0
M  V30 9 O 0.235444 -2.454621 -4.699937 0
M  V30 10 C -0.597940 -1.641220 -5.485775 0
M  V30 11 C -0.003623 0.377509 -0.524309 0
M  V30 12 N -0.729902 1.503214 -0.539239 0
M  V30 13 N -0.651482 2.076991 0.640827 0
M  V30 14 C 0.118102 1.359094 1.463315 0
M  V30 15 N 0.621980 1.302839 2.780772 0
M  V30 16 C 1.113450 1.247979 4.065802 0
M  V30 17 C 0.147421 1.245469 5.207760 0
M  V30 18 C -0.596161 0.155372 5.590712 0
M  V30 19 Cl -0.405051 -1.327098 4.671773 0
M  V30 20 C -1.478232 0.159320 6.648086 0
M  V30 21 C -1.607332 1.357619 7.359954 0
M  V30 22 C -0.855014 2.465867 6.974801 0
M  V30 23 C 0.007424 2.418773 5.920687 0
M  V30 24 Cl 0.877150 3.912389 5.573068 0
M  V30 25 C 0.563942 0.227923 0.724675 0
M  V30 26 C 1.356234 -1.031638 0.675715 0
M  V30 27 H 3.446681 -5.366884 -3.503746 0
M  V30 28 H 3.214468 -4.650590 -1.911787 0
M  V30 29 H 2.105994 -5.942024 -2.408889 0
M  V30 30 H 2.282874 -3.305494 -0.758446 0
M  V30 31 H -0.627319 -0.281576 -3.303977 0
M  V30 32 H -0.039056 -0.875946 -6.087595 0
M  V30 33 H -1.399268 -1.136373 -4.928947 0
M  V30 34 H -1.137361 -2.260510 -6.270481 0
M  V30 35 H -1.322200 2.051301 -1.178998 0
M  V30 36 H 0.145390 2.220673 3.062941 0
M  V30 37 H 1.920801 2.026147 4.232951 0
M  V30 38 H 1.716430 0.295528 4.272032 0
M  V30 39 H -2.047214 -0.719123 6.922134 0
M  V30 40 H -2.279141 1.429828 8.200229 0
M  V30 41 H -1.010110 3.370669 7.581794 0
M  V30 42 H 2.431327 -0.867334 0.856749 0
M  V30 43 H 1.021219 -1.763579 1.433982 0
M  V30 END ATOM
M  V30 BEGIN BOND
M  V30 1 1 1 2
M  V30 2 1 2 3
M  V30 3 2 3 4
M  V30 4 1 4 5
M  V30 5 2 5 6
M  V30 6 1 6 7
M  V30 7 2 7 8
M  V30 8 1 8 9
M  V30 9 1 9 10
M  V30 10 1 6 11
M  V30 11 1 11 12
M  V30 12 1 12 13
M  V30 13 2 13 14
M  V30 14 1 14 15
M  V30 15 1 15 16
M  V30 16 1 16 17
M  V30 17 2 17 18
M  V30 18 1 18 19
M  V30 19 1 18 20
M  V30 20 2 20 21
M  V30 21 1 21 22
M  V30 22 2 22 23
M  V30 23 1 23 24
M  V30 24 1 14 25
M  V30 25 1 25 26
M  V30 26 1 8 3
M  V30 27 2 25 11
M  V30 28 1 26 5
M  V30 29 1 23 17
M  V30 30 1 1 27
M  V30 31 1 1 28
M  V30 32 1 1 29
M  V30 33 1 4 30
M  V30 34 1 7 31
M  V30 35 1 10 32
M  V30 36 1 10 33
M  V30 37 1 10 34
M  V30 38 1 12 35
M  V30 39 1 15 36
M  V30 40 1 16 37
M  V30 41 1 16 38
M  V30 42 1 20 39
M  V30 43 1 21 40
M  V30 44 1 22 41
M  V30 45 1 26 42
M  V30 46 1 26 43
M  V30 END BOND
M  V30 END CTAB
M  END
>  <Dataset>  (989) 
ChEMBL_Kinases

>  <Ligand_Instance>  (989) 
nan

>  <PDB_ID>  (989) 
nan

>  <Standardized_SMILES>  (989) 
COc1cc2c(cc1OC)-c1[nH]nc(NCc3c(Cl)cccc3Cl)c1C2

>  <Name>  (989) 
nan

>  <Pocket>  (989) 
nan

>  <ATP_Site>  (989) 
nan

>  <Peripheral>  (989) 
nan

>  <Num_H_Atoms_ProtBoundConf>  (989) 
nan

>  <Num_Resolved_Atoms>  (989) 
nan

>  <Num_Not_Resolved_Atoms>  (989) 
nan

$$$$
CHEMBL5093783
     RDKit          3D

  0  0  0  0  0  0  0  0  0  0999 V3000
M  V30 BEGIN CTAB
M  V30 COUNTS 68 73 0 0 0
M  V30 BEGIN ATOM
M  V30 1 C 0.959386 -1.114283 4.926574 0
M  V30 2 C 1.050420 -0.152643 3.818081 0
M  V30 3 C 0.919001 -0.627490 2.502569 0
M  V30 4 C 0.995294 0.219986 1.381179 0
M  V30 5 C 0.845000 -0.318130 0.036768 0
M  V30 6 C 1.662813 -0.015689 -1.058837 0
M  V30 7 N 1.143959 -0.753952 -2.087137 0
M  V30 8 N 0.106574 -1.432267 -1.627173 0
M  V30 9 C -0.645652 -2.270462 -2.357801 0
M  V30 10 N -0.559453 -2.622030 -3.732232 0
M  V30 11 C -1.593842 -1.952733 -4.477544 0
M  V30 12 C -1.544761 -0.465153 -4.452835 0 CFG=1
M  V30 13 C -0.338394 0.222329 -4.984344 0
M  V30 14 C -1.203610 0.984587 -5.974890 0 CFG=1
M  V30 15 C -1.523133 2.404947 -5.565667 0
M  V30 16 O -0.723323 0.904148 -7.277170 0
M  V30 17 C -2.346331 0.076277 -5.641505 0
M  V30 18 C -1.712029 -2.929649 -1.734559 0
M  V30 19 C -2.029467 -2.758054 -0.397014 0
M  V30 20 O -3.082453 -3.417704 0.184797 0
M  V30 21 C -2.894399 -4.651499 0.809311 0
M  V30 22 C -1.621514 -5.193543 0.848206 0
M  V30 23 C -1.571813 -6.427557 1.502331 0
M  V30 24 C -2.694321 -7.037435 2.052978 0
M  V30 25 C -3.916901 -6.411830 1.958979 0
M  V30 26 N -3.983708 -5.225952 1.333744 0
M  V30 27 C -1.190853 -1.867450 0.281543 0
M  V30 28 C -0.139211 -1.214487 -0.322210 0
M  V30 29 C 1.206386 1.525578 1.734565 0
M  V30 30 C 1.352799 2.131230 2.954968 0
M  V30 31 C 1.264829 1.219540 4.011485 0
M  V30 32 C 1.398822 1.716826 5.383545 0
M  V30 33 O 0.531547 1.602815 6.284809 0
M  V30 34 N 2.637508 2.383234 5.682891 0
M  V30 35 C 2.777021 2.886226 7.059431 0
M  V30 36 C 4.149175 2.594688 7.686325 0
M  V30 37 C 3.818246 3.974401 7.295821 0
M  V30 38 H 0.381482 -0.710515 5.770431 0
M  V30 39 H 0.337304 -1.978497 4.552691 0
M  V30 40 H 1.899526 -1.535709 5.258769 0
M  V30 41 H 0.754227 -1.699565 2.370420 0
M  V30 42 H 2.511467 0.638061 -1.120174 0
M  V30 43 H 0.246746 -3.246126 -3.647117 0
M  V30 44 H -1.686943 -2.359177 -5.521759 0
M  V30 45 H -2.587067 -2.232862 -4.015137 0
M  V30 46 H -1.896337 -0.003390 -3.501120 0
M  V30 47 H 0.152644 0.954859 -4.310036 0
M  V30 48 H 0.430942 -0.397515 -5.461568 0
M  V30 49 H -0.969856 3.160538 -6.144584 0
M  V30 50 H -1.411775 2.558338 -4.474396 0
M  V30 51 H -2.615576 2.614670 -5.768703 0
M  V30 52 H -1.068440 1.690803 -7.779346 0
M  V30 53 H -2.487275 -0.669483 -6.457791 0
M  V30 54 H -3.281210 0.581971 -5.319146 0
M  V30 55 H -2.386294 -3.637310 -2.247252 0
M  V30 56 H -0.750248 -4.721693 0.420220 0
M  V30 57 H -0.559812 -6.861244 1.541823 0
M  V30 58 H -2.440149 -7.992944 2.514265 0
M  V30 59 H -4.736151 -6.942728 2.407404 0
M  V30 60 H -1.379588 -1.687962 1.311803 0
M  V30 61 H 1.273132 2.233716 0.891295 0
M  V30 62 H 1.514199 3.173660 3.095267 0
M  V30 63 H 3.461037 2.557843 5.049658 0
M  V30 64 H 1.933678 2.766991 7.739959 0
M  V30 65 H 4.157803 2.417041 8.802190 0
M  V30 66 H 4.887316 2.034193 7.090718 0
M  V30 67 H 4.357222 4.362648 6.399990 0
M  V30 68 H 3.637161 4.763703 8.046017 0
M  V30 END ATOM
M  V30 BEGIN BOND
M  V30 1 1 1 2
M  V30 2 2 2 3
M  V30 3 1 3 4
M  V30 4 1 4 5
M  V30 5 1 5 6
M  V30 6 2 6 7
M  V30 7 1 7 8
M  V30 8 1 8 9
M  V30 9 1 9 10
M  V30 10 1 10 11
M  V30 11 1 11 12
M  V30 12 1 12 13
M  V30 13 1 13 14
M  V30 14 1 14 15
M  V30 15 1 14 16 CFG=3
M  V30 16 1 14 17
M  V30 17 2 9 18
M  V30 18 1 18 19
M  V30 19 1 19 20
M  V30 20 1 20 21
M  V30 21 2 21 22
M  V30 22 1 22 23
M  V30 23 2 23 24
M  V30 24 1 24 25
M  V30 25 2 25 26
M  V30 26 2 19 27
M  V30 27 1 27 28
M  V30 28 2 4 29
M  V30 29 1 29 30
M  V30 30 2 30 31
M  V30 31 1 31 32
M  V30 32 2 32 33
M  V30 33 1 32 34
M  V30 34 1 34 35
M  V30 35 1 35 36
M  V30 36 1 36 37
M  V30 37 1 31 2
M  V30 38 1 37 35
M  V30 39 2 28 5
M  V30 40 1 28 8
M  V30 41 1 17 12
M  V30 42 1 26 21
M  V30 43 1 1 38
M  V30 44 1 1 39
M  V30 45 1 1 40
M  V30 46 1 3 41
M  V30 47 1 6 42
M  V30 48 1 10 43
M  V30 49 1 11 44
M  V30 50 1 11 45
M  V30 51 1 12 46 CFG=1
M  V30 52 1 13 47
M  V30 53 1 13 48
M  V30 54 1 15 49
M  V30 55 1 15 50
M  V30 56 1 15 51
M  V30 57 1 16 52
M  V30 58 1 17 53
M  V30 59 1 17 54
M  V30 60 1 18 55
M  V30 61 1 22 56
M  V30 62 1 23 57
M  V30 63 1 24 58
M  V30 64 1 25 59
M  V30 65 1 27 60
M  V30 66 1 29 61
M  V30 67 1 30 62
M  V30 68 1 34 63
M  V30 69 1 35 64
M  V30 70 1 36 65
M  V30 71 1 36 66
M  V30 72 1 37 67
M  V30 73 1 37 68
M  V30 END BOND
M  V30 END CTAB
M  END
>  <Dataset>  (990) 
ChEMBL_Kinases

>  <Ligand_Instance>  (990) 
nan

>  <PDB_ID>  (990) 
nan

>  <Standardized_SMILES>  (990) 
Cc1cc(-c2cnn3c(NC[C@H]4C[C@@](C)(O)C4)cc(Oc4ccccn4)cc23)ccc1C(=O)NC1CC1

>  <Name>  (990) 
nan

>  <Pocket>  (990) 
nan

>  <ATP_Site>  (990) 
nan

>  <Peripheral>  (990) 
nan

>  <Num_H_Atoms_ProtBoundConf>  (990) 
nan

>  <Num_Resolved_Atoms>  (990) 
nan

>  <Num_Not_Resolved_Atoms>  (990) 
nan

$$$$
CHEMBL5093788
     RDKit          3D

  0  0  0  0  0  0  0  0  0  0999 V3000
M  V30 BEGIN CTAB
M  V30 COUNTS 63 67 0 0 0
M  V30 BEGIN ATOM
M  V30 1 C -1.709738 -0.808676 4.659087 0
M  V30 2 C -0.378884 -0.775804 4.045674 0
M  V30 3 C 0.747104 -0.969950 4.823611 0
M  V30 4 C 2.025633 -0.946702 4.271796 0
M  V30 5 C 2.180342 -0.722752 2.902766 0
M  V30 6 N 3.451921 -0.684013 2.261633 0
M  V30 7 C 4.125059 0.565250 2.166676 0
M  V30 8 O 3.577023 1.593348 2.650906 0
M  V30 9 C 5.424370 0.650235 1.520577 0
M  V30 10 C 6.060769 1.884678 1.442114 0
M  V30 11 C 7.275313 1.899130 0.825564 0
M  V30 12 C 7.964617 3.218289 0.737083 0
M  V30 13 F 7.569805 4.052318 1.760671 0
M  V30 14 F 7.641132 3.727967 -0.522412 0
M  V30 15 F 9.325660 2.994291 0.754506 0
M  V30 16 C 7.913711 0.815138 0.283846 0
M  V30 17 N 7.231793 -0.357893 0.397743 0
M  V30 18 N 6.063112 -0.405108 0.984403 0
M  V30 19 C 1.014951 -0.537536 2.190457 0
M  V30 20 C -0.274662 -0.549917 2.682015 0
M  V30 21 C -1.412730 -0.334027 1.790882 0
M  V30 22 C -2.500377 0.489822 2.005572 0
M  V30 23 C -3.504324 0.586884 1.062879 0
M  V30 24 C -3.386242 -0.161086 -0.093077 0
M  V30 25 C -2.295816 -1.004606 -0.338708 0
M  V30 26 C -1.293574 -1.088342 0.625064 0
M  V30 27 O -2.075338 -1.806667 -1.474644 0
M  V30 28 C -2.954916 -2.064247 -2.559186 0
M  V30 29 C -2.190497 -2.861347 -3.586840 0
M  V30 30 C -2.308857 -4.350775 -3.371020 0
M  V30 31 O -2.460717 -4.585780 -2.005155 0
M  V30 32 C -3.693600 -4.190765 -1.512014 0
M  V30 33 C -4.130540 -2.855975 -2.065325 0
M  V30 34 C -3.465572 -0.797630 -3.212413 0
M  V30 35 C -4.564253 -0.161658 -2.404189 0
M  V30 36 O -5.659559 0.267401 -2.851396 0
M  V30 37 N -4.510168 0.047087 -0.976213 0
M  V30 38 C -5.690519 0.525610 -0.255235 0
M  V30 39 H -2.011772 0.141110 5.101287 0
M  V30 40 H -2.435598 -1.163964 3.902265 0
M  V30 41 H -1.645594 -1.533015 5.522387 0
M  V30 42 H 0.664730 -1.146079 5.888064 0
M  V30 43 H 2.937476 -1.092665 4.835804 0
M  V30 44 H 3.872171 -1.556841 1.873509 0
M  V30 45 H 5.610161 2.783842 1.851151 0
M  V30 46 H 8.878935 0.855542 -0.200302 0
M  V30 47 H 1.136240 -0.364679 1.133249 0
M  V30 48 H -2.495713 1.024640 2.928157 0
M  V30 49 H -4.348186 1.235912 1.245992 0
M  V30 50 H -0.511815 -1.755873 0.341201 0
M  V30 51 H -1.094268 -2.600059 -3.604285 0
M  V30 52 H -2.589094 -2.607183 -4.601296 0
M  V30 53 H -1.382135 -4.890141 -3.678831 0
M  V30 54 H -3.146650 -4.777609 -3.951508 0
M  V30 55 H -3.575438 -4.078593 -0.398583 0
M  V30 56 H -4.470333 -4.988279 -1.643541 0
M  V30 57 H -4.813912 -3.072327 -2.908233 0
M  V30 58 H -4.709429 -2.299523 -1.315797 0
M  V30 59 H -2.595398 -0.129399 -3.323784 0
M  V30 60 H -3.890448 -1.057577 -4.186626 0
M  V30 61 H -5.744831 1.622846 -0.190061 0
M  V30 62 H -5.850156 -0.021262 0.681286 0
M  V30 63 H -6.575837 0.242414 -0.898905 0
M  V30 END ATOM
M  V30 BEGIN BOND
M  V30 1 1 1 2
M  V30 2 2 2 3
M  V30 3 1 3 4
M  V30 4 2 4 5
M  V30 5 1 5 6
M  V30 6 1 6 7
M  V30 7 2 7 8
M  V30 8 1 7 9
M  V30 9 2 9 10
M  V30 10 1 10 11
M  V30 11 1 11 12
M  V30 12 1 12 13
M  V30 13 1 12 14
M  V30 14 1 12 15
M  V30 15 2 11 16
M  V30 16 1 16 17
M  V30 17 2 17 18
M  V30 18 1 5 19
M  V30 19 2 19 20
M  V30 20 1 20 21
M  V30 21 2 21 22
M  V30 22 1 22 23
M  V30 23 2 23 24
M  V30 24 1 24 25
M  V30 25 2 25 26
M  V30 26 1 25 27
M  V30 27 1 27 28
M  V30 28 1 28 29
M  V30 29 1 29 30
M  V30 30 1 30 31
M  V30 31 1 31 32
M  V30 32 1 32 33
M  V30 33 1 28 34
M  V30 34 1 34 35
M  V30 35 2 35 36
M  V30 36 1 35 37
M  V30 37 1 37 38
M  V30 38 1 20 2
M  V30 39 1 26 21
M  V30 40 1 33 28
M  V30 41 1 18 9
M  V30 42 1 37 24
M  V30 43 1 1 39
M  V30 44 1 1 40
M  V30 45 1 1 41
M  V30 46 1 3 42
M  V30 47 1 4 43
M  V30 48 1 6 44
M  V30 49 1 10 45
M  V30 50 1 16 46
M  V30 51 1 19 47
M  V30 52 1 22 48
M  V30 53 1 23 49
M  V30 54 1 26 50
M  V30 55 1 29 51
M  V30 56 1 29 52
M  V30 57 1 30 53
M  V30 58 1 30 54
M  V30 59 1 32 55
M  V30 60 1 32 56
M  V30 61 1 33 57
M  V30 62 1 33 58
M  V30 63 1 34 59
M  V30 64 1 34 60
M  V30 65 1 38 61
M  V30 66 1 38 62
M  V30 67 1 38 63
M  V30 END BOND
M  V30 END CTAB
M  END
>  <Dataset>  (991) 
ChEMBL_Kinases

>  <Ligand_Instance>  (991) 
nan

>  <PDB_ID>  (991) 
nan

>  <Standardized_SMILES>  (991) 
Cc1ccc(NC(=O)c2cc(C(F)(F)F)cnn2)cc1-c1ccc2c(c1)OC1(CCOCC1)CC(=O)N2C

>  <Name>  (991) 
nan

>  <Pocket>  (991) 
nan

>  <ATP_Site>  (991) 
nan

>  <Peripheral>  (991) 
nan

>  <Num_H_Atoms_ProtBoundConf>  (991) 
nan

>  <Num_Resolved_Atoms>  (991) 
nan

>  <Num_Not_Resolved_Atoms>  (991) 
nan

$$$$
CHEMBL5093829
     RDKit          3D

  0  0  0  0  0  0  0  0  0  0999 V3000
M  V30 BEGIN CTAB
M  V30 COUNTS 57 61 0 0 0
M  V30 BEGIN ATOM
M  V30 1 C -0.838192 -2.861724 2.872942 0
M  V30 2 N -0.505955 -3.108755 1.455520 0
M  V30 3 C 0.866180 -2.943074 1.139892 0
M  V30 4 N 1.473662 -4.115661 0.885972 0
M  V30 5 C 2.784672 -4.146311 0.602848 0
M  V30 6 N 3.547652 -3.053332 0.555538 0
M  V30 7 C 2.986712 -1.851452 0.801984 0
M  V30 8 N 3.436893 -0.585000 0.835949 0
M  V30 9 C 2.416014 0.238827 1.137032 0
M  V30 10 C 2.318758 1.611359 1.294075 0
M  V30 11 C 1.135412 2.253051 1.606542 0
M  V30 12 C 1.056736 3.699061 1.772119 0
M  V30 13 C -0.039173 4.487144 1.487403 0
M  V30 14 C -0.047457 5.854761 1.669694 0
M  V30 15 C 1.089572 6.473711 2.159635 0
M  V30 16 C 2.216287 5.707319 2.458144 0
M  V30 17 C 2.192297 4.337049 2.263954 0
M  V30 18 C -0.011297 1.460503 1.768150 0
M  V30 19 C 0.086721 0.093916 1.611642 0
M  V30 20 C 1.272814 -0.515280 1.302887 0
M  V30 21 C 1.642554 -1.815492 1.092469 0
M  V30 22 C -1.658102 -3.490190 0.659431 0
M  V30 23 C -2.729766 -2.430918 0.589859 0
M  V30 24 C -3.718307 -2.857947 -0.512772 0
M  V30 25 C -2.983941 -2.744189 -1.830279 0
M  V30 26 N -1.599701 -3.157156 -1.760288 0
M  V30 27 C -1.241659 -3.822133 -3.004706 0
M  V30 28 C -1.212825 -2.905072 -4.180986 0
M  V30 29 C -0.245996 -1.825814 -4.008509 0
M  V30 30 N 0.504293 -0.959942 -3.865982 0
M  V30 31 C -1.332378 -4.076804 -0.665940 0
M  V30 32 H -0.088723 -2.258068 3.382356 0
M  V30 33 H -1.804173 -2.323283 2.922285 0
M  V30 34 H -0.948800 -3.837655 3.414736 0
M  V30 35 H 3.341333 -5.060694 0.386811 0
M  V30 36 H 4.432108 -0.290736 0.654876 0
M  V30 37 H 3.225085 2.217247 1.164233 0
M  V30 38 H -0.917163 3.981219 1.105574 0
M  V30 39 H -0.927741 6.434286 1.433684 0
M  V30 40 H 1.160819 7.525732 2.328030 0
M  V30 41 H 3.121854 6.154104 2.842340 0
M  V30 42 H 3.086401 3.774974 2.506282 0
M  V30 43 H -0.915721 2.019363 2.012901 0
M  V30 44 H -0.862612 -0.360233 1.755665 0
M  V30 45 H -2.131546 -4.327045 1.268700 0
M  V30 46 H -2.385122 -1.432581 0.319239 0
M  V30 47 H -3.331845 -2.361642 1.515120 0
M  V30 48 H -4.104440 -3.861624 -0.301728 0
M  V30 49 H -4.525647 -2.114368 -0.517332 0
M  V30 50 H -2.993302 -1.650550 -2.103690 0
M  V30 51 H -3.530480 -3.288216 -2.605025 0
M  V30 52 H -0.301427 -4.386148 -2.846783 0
M  V30 53 H -2.024569 -4.596782 -3.220706 0
M  V30 54 H -0.987628 -3.533933 -5.077522 0
M  V30 55 H -2.258316 -2.535207 -4.338576 0
M  V30 56 H -1.876345 -5.036086 -0.802367 0
M  V30 57 H -0.252470 -4.316283 -0.702233 0
M  V30 END ATOM
M  V30 BEGIN BOND
M  V30 1 1 1 2
M  V30 2 1 2 3
M  V30 3 2 3 4
M  V30 4 1 4 5
M  V30 5 2 5 6
M  V30 6 1 6 7
M  V30 7 1 7 8
M  V30 8 1 8 9
M  V30 9 2 9 10
M  V30 10 1 10 11
M  V30 11 1 11 12
M  V30 12 2 12 13
M  V30 13 1 13 14
M  V30 14 2 14 15
M  V30 15 1 15 16
M  V30 16 2 16 17
M  V30 17 2 11 18
M  V30 18 1 18 19
M  V30 19 2 19 20
M  V30 20 1 20 21
M  V30 21 1 2 22
M  V30 22 1 22 23
M  V30 23 1 23 24
M  V30 24 1 24 25
M  V30 25 1 25 26
M  V30 26 1 26 27
M  V30 27 1 27 28
M  V30 28 1 28 29
M  V30 29 3 29 30
M  V30 30 1 26 31
M  V30 31 1 21 3
M  V30 32 1 31 22
M  V30 33 2 21 7
M  V30 34 1 20 9
M  V30 35 1 17 12
M  V30 36 1 1 32
M  V30 37 1 1 33
M  V30 38 1 1 34
M  V30 39 1 5 35
M  V30 40 1 8 36
M  V30 41 1 10 37
M  V30 42 1 13 38
M  V30 43 1 14 39
M  V30 44 1 15 40
M  V30 45 1 16 41
M  V30 46 1 17 42
M  V30 47 1 18 43
M  V30 48 1 19 44
M  V30 49 1 22 45
M  V30 50 1 23 46
M  V30 51 1 23 47
M  V30 52 1 24 48
M  V30 53 1 24 49
M  V30 54 1 25 50
M  V30 55 1 25 51
M  V30 56 1 27 52
M  V30 57 1 27 53
M  V30 58 1 28 54
M  V30 59 1 28 55
M  V30 60 1 31 56
M  V30 61 1 31 57
M  V30 END BOND
M  V30 END CTAB
M  END
>  <Dataset>  (992) 
ChEMBL_Kinases

>  <Ligand_Instance>  (992) 
nan

>  <PDB_ID>  (992) 
nan

>  <Standardized_SMILES>  (992) 
CN(c1ncnc2[nH]c3cc(-c4ccccc4)ccc3c12)C1CCCN(CCC#N)C1

>  <Name>  (992) 
nan

>  <Pocket>  (992) 
nan

>  <ATP_Site>  (992) 
nan

>  <Peripheral>  (992) 
nan

>  <Num_H_Atoms_ProtBoundConf>  (992) 
nan

>  <Num_Resolved_Atoms>  (992) 
nan

>  <Num_Not_Resolved_Atoms>  (992) 
nan

$$$$
CHEMBL5093838
     RDKit          3D

  0  0  0  0  0  0  0  0  0  0999 V3000
M  V30 BEGIN CTAB
M  V30 COUNTS 53 56 0 0 0
M  V30 BEGIN ATOM
M  V30 1 C 4.666347 -3.234386 5.017442 0
M  V30 2 N 3.637904 -2.483910 4.323284 0
M  V30 3 C 2.311381 -2.490468 4.925065 0
M  V30 4 C 3.952670 -1.788129 3.131503 0
M  V30 5 O 4.793044 -2.421509 3.740644 0
M  V30 6 C 3.447358 -0.958408 2.086410 0
M  V30 7 C 4.445081 -0.612171 1.196730 0
M  V30 8 N 5.804661 -1.015983 1.271731 0
M  V30 9 C 4.154612 0.195154 0.118071 0
M  V30 10 C 2.845701 0.616069 -0.005057 0
M  V30 11 C 1.876377 0.248971 0.903252 0
M  V30 12 C 0.505207 0.719041 0.725174 0
M  V30 13 C 0.066130 1.896501 1.337413 0
M  V30 14 N -1.191067 2.345521 1.196144 0
M  V30 15 C -2.125961 1.692918 0.451502 0
M  V30 16 C -1.755888 0.501306 -0.194379 0
M  V30 17 C -0.455737 0.075336 -0.023218 0
M  V30 18 Cl 0.045666 -1.413241 -0.813658 0
M  V30 19 C -2.960282 0.069061 -0.905698 0 CFG=1
M  V30 20 C -3.135082 0.763303 -2.242540 0
M  V30 21 C -4.387526 0.062781 -2.746574 0
M  V30 22 C -4.325340 -1.348801 -2.162584 0 CFG=2
M  V30 23 C -4.201018 -2.294682 -3.319711 0
M  V30 24 O -5.490069 -1.547102 -1.449774 0
M  V30 25 C -3.076564 -1.353104 -1.264297 0
M  V30 26 C -4.045216 0.614460 -0.006025 0
M  V30 27 N -3.517761 1.983603 0.177318 0
M  V30 28 C 2.150377 -0.555663 1.984003 0
M  V30 29 F 1.170484 -0.875696 2.821574 0
M  V30 30 H 5.538694 -2.655047 5.332415 0
M  V30 31 H 4.233951 -3.666494 5.973481 0
M  V30 32 H 4.959840 -4.103814 4.410047 0
M  V30 33 H 2.392348 -3.028533 5.919973 0
M  V30 34 H 2.060646 -1.450218 5.227948 0
M  V30 35 H 1.550109 -3.005793 4.349880 0
M  V30 36 H 6.580999 -0.289978 1.298690 0
M  V30 37 H 6.294776 -1.959279 1.305736 0
M  V30 38 H 4.843865 0.533913 -0.640619 0
M  V30 39 H 2.557019 1.249993 -0.828824 0
M  V30 40 H 0.741741 2.491829 1.954190 0
M  V30 41 H -3.322947 1.829719 -2.049128 0
M  V30 42 H -2.267714 0.576706 -2.891381 0
M  V30 43 H -4.323314 0.082250 -3.844048 0
M  V30 44 H -5.311559 0.578803 -2.465004 0
M  V30 45 H -4.031039 -1.754271 -4.291142 0
M  V30 46 H -3.411247 -3.048809 -3.231453 0
M  V30 47 H -5.205009 -2.795013 -3.450797 0
M  V30 48 H -5.263008 -2.011808 -0.602884 0
M  V30 49 H -2.224751 -1.604434 -1.938889 0
M  V30 50 H -3.207293 -2.062698 -0.448660 0
M  V30 51 H -5.042689 0.633160 -0.435910 0
M  V30 52 H -3.964341 0.063129 0.967542 0
M  V30 53 H -3.798499 2.991931 0.172696 0
M  V30 END ATOM
M  V30 BEGIN BOND
M  V30 1 1 1 2
M  V30 2 1 2 3
M  V30 3 1 2 4
M  V30 4 2 4 5
M  V30 5 1 4 6
M  V30 6 2 6 7
M  V30 7 1 7 8
M  V30 8 1 7 9
M  V30 9 2 9 10
M  V30 10 1 10 11
M  V30 11 1 11 12
M  V30 12 2 12 13
M  V30 13 1 13 14
M  V30 14 2 14 15
M  V30 15 1 15 16
M  V30 16 2 16 17
M  V30 17 1 17 18
M  V30 18 1 16 19
M  V30 19 1 19 20 CFG=3
M  V30 20 1 20 21
M  V30 21 1 21 22
M  V30 22 1 22 23
M  V30 23 1 22 24 CFG=1
M  V30 24 1 22 25
M  V30 25 1 19 26
M  V30 26 1 26 27
M  V30 27 2 11 28
M  V30 28 1 28 29
M  V30 29 1 28 6
M  V30 30 1 17 12
M  V30 31 1 25 19
M  V30 32 1 27 15
M  V30 33 1 1 30
M  V30 34 1 1 31
M  V30 35 1 1 32
M  V30 36 1 3 33
M  V30 37 1 3 34
M  V30 38 1 3 35
M  V30 39 1 8 36
M  V30 40 1 8 37
M  V30 41 1 9 38
M  V30 42 1 10 39
M  V30 43 1 13 40
M  V30 44 1 20 41
M  V30 45 1 20 42
M  V30 46 1 21 43
M  V30 47 1 21 44
M  V30 48 1 23 45
M  V30 49 1 23 46
M  V30 50 1 23 47
M  V30 51 1 24 48
M  V30 52 1 25 49
M  V30 53 1 25 50
M  V30 54 1 26 51
M  V30 55 1 26 52
M  V30 56 1 27 53
M  V30 END BOND
M  V30 END CTAB
M  END
>  <Dataset>  (993) 
ChEMBL_Kinases

>  <Ligand_Instance>  (993) 
nan

>  <PDB_ID>  (993) 
nan

>  <Standardized_SMILES>  (993) 
CN(C)C(=O)c1c(N)ccc(-c2cnc3c(c2Cl)[C@]2(CC[C@](C)(O)C2)CN3)c1F

>  <Name>  (993) 
nan

>  <Pocket>  (993) 
nan

>  <ATP_Site>  (993) 
nan

>  <Peripheral>  (993) 
nan

>  <Num_H_Atoms_ProtBoundConf>  (993) 
nan

>  <Num_Resolved_Atoms>  (993) 
nan

>  <Num_Not_Resolved_Atoms>  (993) 
nan

$$$$
CHEMBL578643
     RDKit          3D

  0  0  0  0  0  0  0  0  0  0999 V3000
M  V30 BEGIN CTAB
M  V30 COUNTS 54 58 0 0 0
M  V30 BEGIN ATOM
M  V30 1 C 4.555316 -2.604759 2.976126 0
M  V30 2 C 3.437960 -3.403414 2.850211 0
M  V30 3 C 2.719231 -3.372980 1.664283 0
M  V30 4 C 3.143837 -2.539626 0.636625 0
M  V30 5 C 4.260817 -1.736253 0.752751 0
M  V30 6 C 4.964284 -1.788819 1.959394 0
M  V30 7 C 4.453954 -0.955984 -0.524106 0
M  V30 8 C 2.999134 -0.863434 -0.945446 0
M  V30 9 N 2.320569 -0.086591 0.057556 0
M  V30 10 C 0.922912 0.153464 -0.079371 0
M  V30 11 C 0.196299 0.891284 0.839522 0
M  V30 12 C -1.151804 1.101805 0.686294 0
M  V30 13 N -1.922745 1.855890 1.610094 0
M  V30 14 C -1.403161 2.541902 2.772458 0
M  V30 15 C -2.053143 2.040227 4.047806 0
M  V30 16 N -3.359540 1.461406 3.776570 0
M  V30 17 C -4.057279 2.232429 2.767548 0
M  V30 18 C -3.356342 1.989733 1.440525 0
M  V30 19 N -1.757309 0.570864 -0.385889 0
M  V30 20 C -1.083151 -0.157211 -1.308757 0
M  V30 21 N -1.732576 -0.720021 -2.444083 0
M  V30 22 C -2.296226 -2.022275 -2.545162 0
M  V30 23 C -2.919376 -2.438802 -3.710577 0
M  V30 24 C -3.453869 -3.716203 -3.772586 0
M  V30 25 N -3.387246 -4.559102 -2.743578 0
M  V30 26 C -2.790788 -4.184124 -1.603881 0
M  V30 27 C -2.249226 -2.925035 -1.505209 0
M  V30 28 N 0.234306 -0.350169 -1.138539 0
M  V30 29 C 2.581767 -2.303436 -0.726127 0
M  V30 30 H 5.081166 -2.672278 3.934613 0
M  V30 31 H 3.057415 -4.081055 3.631879 0
M  V30 32 H 1.833972 -4.007429 1.569071 0
M  V30 33 H 5.861936 -1.164910 2.095355 0
M  V30 34 H 4.923808 0.026957 -0.351129 0
M  V30 35 H 5.057090 -1.551416 -1.229163 0
M  V30 36 H 2.842427 -0.513444 -1.967382 0
M  V30 37 H 2.783431 0.328487 0.904713 0
M  V30 38 H 0.735581 1.284737 1.667073 0
M  V30 39 H -1.716720 3.617746 2.659589 0
M  V30 40 H -0.317586 2.551242 2.847595 0
M  V30 41 H -1.403243 1.299919 4.519438 0
M  V30 42 H -2.226235 2.894836 4.732625 0
M  V30 43 H -3.296554 0.449143 3.554964 0
M  V30 44 H -4.012609 3.279273 3.075580 0
M  V30 45 H -5.075200 1.803834 2.693136 0
M  V30 46 H -3.636030 2.748945 0.671416 0
M  V30 47 H -3.717826 0.973866 1.101052 0
M  V30 48 H -1.780800 -0.081538 -3.264934 0
M  V30 49 H -3.008207 -1.806945 -4.580472 0
M  V30 50 H -3.931694 -4.038838 -4.662239 0
M  V30 51 H -2.758992 -4.906532 -0.787091 0
M  V30 52 H -1.775168 -2.662894 -0.564065 0
M  V30 53 H 1.486877 -2.424954 -0.764991 0
M  V30 54 H 3.067516 -2.980972 -1.482383 0
M  V30 END ATOM
M  V30 BEGIN BOND
M  V30 1 2 1 2
M  V30 2 1 2 3
M  V30 3 2 3 4
M  V30 4 1 4 5
M  V30 5 2 5 6
M  V30 6 1 5 7
M  V30 7 1 7 8
M  V30 8 1 8 9
M  V30 9 1 9 10
M  V30 10 2 10 11
M  V30 11 1 11 12
M  V30 12 1 12 13
M  V30 13 1 13 14
M  V30 14 1 14 15
M  V30 15 1 15 16
M  V30 16 1 16 17
M  V30 17 1 17 18
M  V30 18 2 12 19
M  V30 19 1 19 20
M  V30 20 1 20 21
M  V30 21 1 21 22
M  V30 22 2 22 23
M  V30 23 1 23 24
M  V30 24 2 24 25
M  V30 25 1 25 26
M  V30 26 2 26 27
M  V30 27 2 20 28
M  V30 28 1 8 29
M  V30 29 1 6 1
M  V30 30 1 28 10
M  V30 31 1 29 4
M  V30 32 1 18 13
M  V30 33 1 27 22
M  V30 34 1 1 30
M  V30 35 1 2 31
M  V30 36 1 3 32
M  V30 37 1 6 33
M  V30 38 1 7 34
M  V30 39 1 7 35
M  V30 40 1 8 36
M  V30 41 1 9 37
M  V30 42 1 11 38
M  V30 43 1 14 39
M  V30 44 1 14 40
M  V30 45 1 15 41
M  V30 46 1 15 42
M  V30 47 1 16 43
M  V30 48 1 17 44
M  V30 49 1 17 45
M  V30 50 1 18 46
M  V30 51 1 18 47
M  V30 52 1 21 48
M  V30 53 1 23 49
M  V30 54 1 24 50
M  V30 55 1 26 51
M  V30 56 1 27 52
M  V30 57 1 29 53
M  V30 58 1 29 54
M  V30 END BOND
M  V30 END CTAB
M  END
>  <Dataset>  (994) 
ChEMBL_Kinases

>  <Ligand_Instance>  (994) 
nan

>  <PDB_ID>  (994) 
nan

>  <Standardized_SMILES>  (994) 
c1ccc2c(c1)CC(Nc1cc(N3CCNCC3)nc(Nc3ccncc3)n1)C2

>  <Name>  (994) 
nan

>  <Pocket>  (994) 
nan

>  <ATP_Site>  (994) 
nan

>  <Peripheral>  (994) 
nan

>  <Num_H_Atoms_ProtBoundConf>  (994) 
nan

>  <Num_Resolved_Atoms>  (994) 
nan

>  <Num_Not_Resolved_Atoms>  (994) 
nan

$$$$
CHEMBL578628
     RDKit          3D

  0  0  0  0  0  0  0  0  0  0999 V3000
M  V30 BEGIN CTAB
M  V30 COUNTS 44 47 0 0 0
M  V30 BEGIN ATOM
M  V30 1 C -0.988075 -6.979914 -0.156803 0
M  V30 2 C -0.441676 -5.563211 -0.279627 0
M  V30 3 S -1.328165 -4.671045 -1.528081 0
M  V30 4 O -1.156355 -5.388963 -2.823569 0
M  V30 5 O -2.775268 -4.629749 -1.112873 0
M  V30 6 C -0.657442 -3.057350 -1.621915 0
M  V30 7 C 0.374847 -2.681181 -2.432247 0
M  V30 8 C 0.850824 -1.371935 -2.446982 0
M  V30 9 C 0.290345 -0.390646 -1.632401 0
M  V30 10 C 0.755294 0.989772 -1.614702 0
M  V30 11 C 1.057240 1.805068 -2.695949 0
M  V30 12 O 1.444806 2.985916 -2.274567 0
M  V30 13 C 1.434396 3.052063 -0.968175 0
M  V30 14 C 1.743707 4.037462 -0.053173 0
M  V30 15 C 1.639627 3.830814 1.321046 0
M  V30 16 C 1.207479 2.580700 1.747470 0
M  V30 17 C 1.083030 2.317960 3.178858 0
M  V30 18 C 0.668273 1.129534 3.739539 0
M  V30 19 C 0.684389 1.280370 5.126109 0
M  V30 20 C 1.121113 2.589810 5.317237 0
M  V30 21 C 1.259074 3.102393 6.708967 0
M  V30 22 O 1.336974 3.142886 4.144811 0
M  V30 23 C 0.900055 1.600503 0.827167 0
M  V30 24 C 1.005360 1.811664 -0.535161 0
M  V30 25 C -0.758357 -0.782064 -0.812114 0
M  V30 26 C -1.238473 -2.094761 -0.794745 0
M  V30 27 H -0.422554 -7.661716 -0.805048 0
M  V30 28 H -0.897985 -7.275364 0.918195 0
M  V30 29 H -2.063474 -6.947663 -0.447191 0
M  V30 30 H 0.620641 -5.636939 -0.570708 0
M  V30 31 H -0.587498 -5.029069 0.684280 0
M  V30 32 H 0.805800 -3.446047 -3.061853 0
M  V30 33 H 1.664001 -1.094705 -3.091358 0
M  V30 34 H 0.994098 1.539788 -3.746276 0
M  V30 35 H 2.074496 4.989773 -0.441439 0
M  V30 36 H 1.894364 4.636778 1.999654 0
M  V30 37 H 0.372058 0.211682 3.210213 0
M  V30 38 H 0.399902 0.488730 5.827135 0
M  V30 39 H 0.315015 2.914020 7.250948 0
M  V30 40 H 2.093013 2.588346 7.198162 0
M  V30 41 H 1.384163 4.202406 6.692035 0
M  V30 42 H 0.574015 0.661256 1.202587 0
M  V30 43 H -1.266441 -0.096605 -0.138189 0
M  V30 44 H -2.068750 -2.361584 -0.131680 0
M  V30 END ATOM
M  V30 BEGIN BOND
M  V30 1 1 1 2
M  V30 2 1 2 3
M  V30 3 2 3 4
M  V30 4 2 3 5
M  V30 5 1 3 6
M  V30 6 2 6 7
M  V30 7 1 7 8
M  V30 8 2 8 9
M  V30 9 1 9 10
M  V30 10 2 10 11
M  V30 11 1 11 12
M  V30 12 1 12 13
M  V30 13 2 13 14
M  V30 14 1 14 15
M  V30 15 2 15 16
M  V30 16 1 16 17
M  V30 17 2 17 18
M  V30 18 1 18 19
M  V30 19 2 19 20
M  V30 20 1 20 21
M  V30 21 1 20 22
M  V30 22 1 16 23
M  V30 23 2 23 24
M  V30 24 1 9 25
M  V30 25 2 25 26
M  V30 26 1 26 6
M  V30 27 1 24 10
M  V30 28 1 24 13
M  V30 29 1 22 17
M  V30 30 1 1 27
M  V30 31 1 1 28
M  V30 32 1 1 29
M  V30 33 1 2 30
M  V30 34 1 2 31
M  V30 35 1 7 32
M  V30 36 1 8 33
M  V30 37 1 11 34
M  V30 38 1 14 35
M  V30 39 1 15 36
M  V30 40 1 18 37
M  V30 41 1 19 38
M  V30 42 1 21 39
M  V30 43 1 21 40
M  V30 44 1 21 41
M  V30 45 1 23 42
M  V30 46 1 25 43
M  V30 47 1 26 44
M  V30 END BOND
M  V30 END CTAB
M  END
>  <Dataset>  (995) 
ChEMBL_Kinases

>  <Ligand_Instance>  (995) 
nan

>  <PDB_ID>  (995) 
nan

>  <Standardized_SMILES>  (995) 
CCS(=O)(=O)c1ccc(-c2coc3ccc(-c4ccc(C)o4)cc23)cc1

>  <Name>  (995) 
nan

>  <Pocket>  (995) 
nan

>  <ATP_Site>  (995) 
nan

>  <Peripheral>  (995) 
nan

>  <Num_H_Atoms_ProtBoundConf>  (995) 
nan

>  <Num_Resolved_Atoms>  (995) 
nan

>  <Num_Not_Resolved_Atoms>  (995) 
nan

$$$$
CHEMBL5093856
     RDKit          3D

  0  0  0  0  0  0  0  0  0  0999 V3000
M  V30 BEGIN CTAB
M  V30 COUNTS 57 58 0 0 0
M  V30 BEGIN ATOM
M  V30 1 C 0.071851 -0.439620 4.998403 0
M  V30 2 C 1.063852 -1.519743 5.313209 0
M  V30 3 C 2.476436 -0.950157 5.236048 0
M  V30 4 C 2.756411 -0.412161 3.842238 0
M  V30 5 C 4.154372 0.142943 3.791827 0
M  V30 6 C 4.540330 0.701254 2.459707 0
M  V30 7 C 3.643737 1.850183 2.006420 0
M  V30 8 C 4.073135 2.369933 0.674674 0
M  V30 9 S 3.991842 1.078196 -0.579272 0
M  V30 10 C 2.303991 0.643620 -0.915340 0
M  V30 11 C 1.106566 1.138451 -0.450069 0
M  V30 12 C -0.090323 0.602279 -0.870349 0
M  V30 13 C -0.135248 -0.443375 -1.767465 0
M  V30 14 C -1.461444 -0.920625 -2.132939 0
M  V30 15 O -2.480605 -0.381745 -1.631475 0
M  V30 16 N -1.749170 -1.978428 -3.036673 0
M  V30 17 C -3.186223 -2.118538 -3.107013 0
M  V30 18 C -3.851292 -1.369553 -4.072574 0
M  V30 19 C -5.230826 -1.446609 -4.204998 0
M  V30 20 C -5.860638 -2.314183 -3.310708 0
M  V30 21 C -7.355775 -2.392252 -3.460050 0
M  V30 22 C -5.225123 -3.069419 -2.342757 0
M  V30 23 C -3.850291 -2.964868 -2.242633 0
M  V30 24 C -3.150792 -3.740956 -1.241054 0
M  V30 25 O -3.760939 -4.515395 -0.450481 0
M  V30 26 O -1.768170 -3.660573 -1.112483 0
M  V30 27 C 1.028373 -0.957863 -2.249040 0
M  V30 28 C 2.248117 -0.419459 -1.827359 0
M  V30 29 H 0.301020 0.493917 5.561518 0
M  V30 30 H -0.953199 -0.745274 5.301348 0
M  V30 31 H 0.078942 -0.261694 3.905515 0
M  V30 32 H 0.874607 -1.858767 6.343666 0
M  V30 33 H 0.948655 -2.352404 4.616371 0
M  V30 34 H 2.608723 -0.172640 6.015213 0
M  V30 35 H 3.163164 -1.784699 5.475760 0
M  V30 36 H 2.004956 0.369279 3.651403 0
M  V30 37 H 2.585116 -1.231085 3.133277 0
M  V30 38 H 4.182513 0.980395 4.519251 0
M  V30 39 H 4.841681 -0.667785 4.032722 0
M  V30 40 H 5.556198 1.113846 2.501531 0
M  V30 41 H 4.512138 -0.102675 1.691593 0
M  V30 42 H 2.603125 1.556576 2.112333 0
M  V30 43 H 3.808240 2.650627 2.786102 0
M  V30 44 H 5.156634 2.656076 0.748882 0
M  V30 45 H 3.472614 3.262113 0.405167 0
M  V30 46 H 1.262571 1.951016 0.232049 0
M  V30 47 H -0.955811 1.059166 -0.448233 0
M  V30 48 H -0.914281 -2.459847 -3.482049 0
M  V30 49 H -3.346608 -0.700500 -4.759244 0
M  V30 50 H -5.778021 -0.891815 -4.928804 0
M  V30 51 H -7.801801 -2.738168 -2.511618 0
M  V30 52 H -7.666711 -3.039655 -4.281542 0
M  V30 53 H -7.772435 -1.362631 -3.647538 0
M  V30 54 H -5.826515 -3.700020 -1.715628 0
M  V30 55 H -1.194044 -4.338583 -0.638818 0
M  V30 56 H 0.924590 -1.766111 -2.940475 0
M  V30 57 H 3.083797 -0.943746 -2.306459 0
M  V30 END ATOM
M  V30 BEGIN BOND
M  V30 1 1 1 2
M  V30 2 1 2 3
M  V30 3 1 3 4
M  V30 4 1 4 5
M  V30 5 1 5 6
M  V30 6 1 6 7
M  V30 7 1 7 8
M  V30 8 1 8 9
M  V30 9 1 9 10
M  V30 10 2 10 11
M  V30 11 1 11 12
M  V30 12 2 12 13
M  V30 13 1 13 14
M  V30 14 2 14 15
M  V30 15 1 14 16
M  V30 16 1 16 17
M  V30 17 2 17 18
M  V30 18 1 18 19
M  V30 19 2 19 20
M  V30 20 1 20 21
M  V30 21 1 20 22
M  V30 22 2 22 23
M  V30 23 1 23 24
M  V30 24 2 24 25
M  V30 25 1 24 26
M  V30 26 1 13 27
M  V30 27 2 27 28
M  V30 28 1 28 10
M  V30 29 1 23 17
M  V30 30 1 1 29
M  V30 31 1 1 30
M  V30 32 1 1 31
M  V30 33 1 2 32
M  V30 34 1 2 33
M  V30 35 1 3 34
M  V30 36 1 3 35
M  V30 37 1 4 36
M  V30 38 1 4 37
M  V30 39 1 5 38
M  V30 40 1 5 39
M  V30 41 1 6 40
M  V30 42 1 6 41
M  V30 43 1 7 42
M  V30 44 1 7 43
M  V30 45 1 8 44
M  V30 46 1 8 45
M  V30 47 1 11 46
M  V30 48 1 12 47
M  V30 49 1 16 48
M  V30 50 1 18 49
M  V30 51 1 19 50
M  V30 52 1 21 51
M  V30 53 1 21 52
M  V30 54 1 21 53
M  V30 55 1 22 54
M  V30 56 1 26 55
M  V30 57 1 27 56
M  V30 58 1 28 57
M  V30 END BOND
M  V30 END CTAB
M  END
>  <Dataset>  (996) 
ChEMBL_Kinases

>  <Ligand_Instance>  (996) 
nan

>  <PDB_ID>  (996) 
nan

>  <Standardized_SMILES>  (996) 
CCCCCCCCSc1ccc(C(=O)Nc2ccc(C)cc2C(=O)O)cc1

>  <Name>  (996) 
nan

>  <Pocket>  (996) 
nan

>  <ATP_Site>  (996) 
nan

>  <Peripheral>  (996) 
nan

>  <Num_H_Atoms_ProtBoundConf>  (996) 
nan

>  <Num_Resolved_Atoms>  (996) 
nan

>  <Num_Not_Resolved_Atoms>  (996) 
nan

$$$$
CHEMBL5093710
     RDKit          3D

  0  0  0  0  0  0  0  0  0  0999 V3000
M  V30 BEGIN CTAB
M  V30 COUNTS 53 56 0 0 0
M  V30 BEGIN ATOM
M  V30 1 C 2.752370 -1.154146 4.961003 0
M  V30 2 N 3.987831 -0.965598 4.254342 0
M  V30 3 C 5.106756 -1.416293 5.102781 0
M  V30 4 C 4.315746 -0.466615 2.979734 0
M  V30 5 O 5.579185 -0.488872 2.802216 0
M  V30 6 C 3.643196 0.061825 1.817924 0
M  V30 7 C 4.432201 0.490088 0.773402 0
M  V30 8 N 5.853109 0.457567 0.760037 0
M  V30 9 C 3.875882 1.014427 -0.402317 0
M  V30 10 C 2.507845 1.100712 -0.508989 0
M  V30 11 C 1.667650 0.688410 0.502024 0
M  V30 12 C 0.221078 0.792471 0.360102 0
M  V30 13 C -0.291735 1.996666 0.815925 0
M  V30 14 N -1.621880 2.200837 0.732353 0
M  V30 15 C -2.426278 1.229814 0.207137 0
M  V30 16 C -1.974572 -0.008912 -0.271617 0
M  V30 17 C -0.607939 -0.174584 -0.166519 0
M  V30 18 Cl 0.116800 -1.639362 -0.708447 0
M  V30 19 C -3.111804 -0.779316 -0.754173 0 CFG=1
M  V30 20 C -3.355426 -0.534364 -2.231729 0
M  V30 21 C -4.218394 -1.704432 -2.638226 0
M  V30 22 C -4.229709 -2.683108 -1.490412 0 CFG=2
M  V30 23 C -3.916690 -4.048910 -2.106814 0
M  V30 24 C -5.483131 -2.690582 -0.778368 0
M  V30 25 N -6.469731 -2.691774 -0.205057 0
M  V30 26 C -3.064448 -2.257853 -0.581274 0
M  V30 27 C -4.277044 -0.132574 -0.037144 0
M  V30 28 N -3.839625 1.250459 0.033111 0
M  V30 29 C 2.287487 0.185857 1.622501 0
M  V30 30 F 1.442298 -0.205339 2.568876 0
M  V30 31 H 2.143936 -0.219583 5.072554 0
M  V30 32 H 2.121389 -1.899084 4.458038 0
M  V30 33 H 2.934175 -1.450985 6.038365 0
M  V30 34 H 5.237530 -0.650704 5.888498 0
M  V30 35 H 4.891600 -2.411046 5.535588 0
M  V30 36 H 6.041601 -1.507977 4.510695 0
M  V30 37 H 6.347625 -0.415727 0.439712 0
M  V30 38 H 6.632013 1.091863 0.991647 0
M  V30 39 H 4.488704 1.349608 -1.219398 0
M  V30 40 H 2.104076 1.507473 -1.421938 0
M  V30 41 H 0.303770 2.792693 1.238116 0
M  V30 42 H -3.935884 0.390645 -2.419028 0
M  V30 43 H -2.393875 -0.482640 -2.757911 0
M  V30 44 H -3.786087 -2.107794 -3.570381 0
M  V30 45 H -5.271860 -1.431536 -2.852210 0
M  V30 46 H -3.111224 -3.931653 -2.863988 0
M  V30 47 H -3.708207 -4.819493 -1.348560 0
M  V30 48 H -4.827904 -4.365127 -2.650810 0
M  V30 49 H -2.185102 -2.656443 -1.085584 0
M  V30 50 H -3.260947 -2.612985 0.428388 0
M  V30 51 H -4.467449 -0.578303 0.951395 0
M  V30 52 H -5.202144 -0.171381 -0.681207 0
M  V30 53 H -4.410696 2.139699 -0.026763 0
M  V30 END ATOM
M  V30 BEGIN BOND
M  V30 1 1 1 2
M  V30 2 1 2 3
M  V30 3 1 2 4
M  V30 4 2 4 5
M  V30 5 1 4 6
M  V30 6 2 6 7
M  V30 7 1 7 8
M  V30 8 1 7 9
M  V30 9 2 9 10
M  V30 10 1 10 11
M  V30 11 1 11 12
M  V30 12 2 12 13
M  V30 13 1 13 14
M  V30 14 2 14 15
M  V30 15 1 15 16
M  V30 16 2 16 17
M  V30 17 1 17 18
M  V30 18 1 16 19
M  V30 19 1 19 20 CFG=3
M  V30 20 1 20 21
M  V30 21 1 21 22
M  V30 22 1 22 23
M  V30 23 1 22 24 CFG=1
M  V30 24 3 24 25
M  V30 25 1 22 26
M  V30 26 1 19 27
M  V30 27 1 27 28
M  V30 28 2 11 29
M  V30 29 1 29 30
M  V30 30 1 29 6
M  V30 31 1 17 12
M  V30 32 1 26 19
M  V30 33 1 28 15
M  V30 34 1 1 31
M  V30 35 1 1 32
M  V30 36 1 1 33
M  V30 37 1 3 34
M  V30 38 1 3 35
M  V30 39 1 3 36
M  V30 40 1 8 37
M  V30 41 1 8 38
M  V30 42 1 9 39
M  V30 43 1 10 40
M  V30 44 1 13 41
M  V30 45 1 20 42
M  V30 46 1 20 43
M  V30 47 1 21 44
M  V30 48 1 21 45
M  V30 49 1 23 46
M  V30 50 1 23 47
M  V30 51 1 23 48
M  V30 52 1 26 49
M  V30 53 1 26 50
M  V30 54 1 27 51
M  V30 55 1 27 52
M  V30 56 1 28 53
M  V30 END BOND
M  V30 END CTAB
M  END
>  <Dataset>  (997) 
ChEMBL_Kinases

>  <Ligand_Instance>  (997) 
nan

>  <PDB_ID>  (997) 
nan

>  <Standardized_SMILES>  (997) 
CN(C)C(=O)c1c(N)ccc(-c2cnc3c(c2Cl)[C@]2(CC[C@](C)(C#N)C2)CN3)c1F

>  <Name>  (997) 
nan

>  <Pocket>  (997) 
nan

>  <ATP_Site>  (997) 
nan

>  <Peripheral>  (997) 
nan

>  <Num_H_Atoms_ProtBoundConf>  (997) 
nan

>  <Num_Resolved_Atoms>  (997) 
nan

>  <Num_Not_Resolved_Atoms>  (997) 
nan

$$$$
CHEMBL5093265
     RDKit          3D

  0  0  0  0  0  0  0  0  0  0999 V3000
M  V30 BEGIN CTAB
M  V30 COUNTS 61 64 0 0 0
M  V30 BEGIN ATOM
M  V30 1 C -0.551245 5.932605 6.089492 0
M  V30 2 O 0.326810 5.880096 4.981351 0
M  V30 3 C 1.693421 5.716424 5.146715 0
M  V30 4 O 1.939532 5.631715 6.385111 0
M  V30 5 C 2.516850 5.679606 3.931525 0 CFG=1
M  V30 6 N 3.921641 5.627528 4.355226 0
M  V30 7 C 2.323701 4.481564 3.053800 0
M  V30 8 C 0.939988 4.292859 2.537467 0
M  V30 9 N 0.826776 3.128707 1.665502 0
M  V30 10 C 1.137149 1.795556 2.056935 0
M  V30 11 O 1.536174 1.560032 3.217105 0
M  V30 12 C 1.008770 0.668725 1.137517 0
M  V30 13 C 1.449426 -0.589200 1.474004 0
M  V30 14 C 1.348170 -1.687531 0.637169 0
M  V30 15 C 0.779291 -1.572803 -0.621751 0
M  V30 16 C 0.330445 -0.286096 -0.959898 0
M  V30 17 C 0.441522 0.794799 -0.109813 0
M  V30 18 C -0.313040 0.052653 -2.244167 0
M  V30 19 O -0.115946 1.244031 -2.594299 0
M  V30 20 C -1.113786 -0.895674 -3.054519 0
M  V30 21 C -1.806441 -0.140779 -3.970392 0
M  V30 22 C -2.622102 -0.838717 -4.832839 0
M  V30 23 C -2.717490 -2.213006 -4.758309 0
M  V30 24 N -3.604768 -2.788246 -5.699140 0
M  V30 25 C -3.885177 -4.109300 -6.109763 0
M  V30 26 C -3.691110 -4.527977 -7.432943 0
M  V30 27 C -3.947726 -5.802573 -7.916278 0
M  V30 28 C -4.438934 -6.741844 -7.009745 0
M  V30 29 F -4.668810 -7.962339 -7.553837 0
M  V30 30 C -4.653439 -6.392940 -5.689900 0
M  V30 31 C -4.373952 -5.112294 -5.292777 0
M  V30 32 F -4.608153 -4.822827 -3.991080 0
M  V30 33 C -1.991090 -2.896855 -3.812582 0
M  V30 34 C -1.148718 -2.267613 -2.908780 0
M  V30 35 C -0.507714 -3.233851 -1.997006 0
M  V30 36 C 0.774490 -2.845427 -1.378962 0
M  V30 37 H -1.601586 5.763968 5.817717 0
M  V30 38 H -0.516476 6.992447 6.473397 0
M  V30 39 H -0.221468 5.230210 6.894689 0
M  V30 40 H 2.354261 6.603225 3.316498 0
M  V30 41 H 4.235181 6.482244 4.823272 0
M  V30 42 H 4.512913 5.289819 3.580668 0
M  V30 43 H 2.734982 3.550496 3.529971 0
M  V30 44 H 2.974521 4.671562 2.146579 0
M  V30 45 H 0.673409 5.189014 1.918801 0
M  V30 46 H 0.225458 4.251114 3.365227 0
M  V30 47 H 0.501855 3.259360 0.680428 0
M  V30 48 H 1.895405 -0.678353 2.473037 0
M  V30 49 H 1.719659 -2.659133 0.972818 0
M  V30 50 H 0.062115 1.709960 -0.488939 0
M  V30 51 H -1.720851 0.932724 -4.017227 0
M  V30 52 H -3.174080 -0.240584 -5.561258 0
M  V30 53 H -4.251563 -2.230069 -6.285282 0
M  V30 54 H -3.304703 -3.773167 -8.134795 0
M  V30 55 H -3.754983 -6.001142 -8.964359 0
M  V30 56 H -5.036887 -7.158927 -5.040519 0
M  V30 57 H -2.079130 -3.966002 -3.776972 0
M  V30 58 H -0.365856 -4.223917 -2.498829 0
M  V30 59 H -1.230373 -3.443295 -1.154505 0
M  V30 60 H 1.052277 -3.652451 -0.657572 0
M  V30 61 H 1.597938 -2.807890 -2.153861 0
M  V30 END ATOM
M  V30 BEGIN BOND
M  V30 1 1 1 2
M  V30 2 1 2 3
M  V30 3 2 3 4
M  V30 4 1 3 5
M  V30 5 1 5 6
M  V30 6 1 5 7
M  V30 7 1 7 8
M  V30 8 1 8 9
M  V30 9 1 9 10
M  V30 10 2 10 11
M  V30 11 1 10 12
M  V30 12 2 12 13
M  V30 13 1 13 14
M  V30 14 2 14 15
M  V30 15 1 15 16
M  V30 16 2 16 17
M  V30 17 1 16 18
M  V30 18 2 18 19
M  V30 19 1 18 20
M  V30 20 2 20 21
M  V30 21 1 21 22
M  V30 22 2 22 23
M  V30 23 1 23 24
M  V30 24 1 24 25
M  V30 25 2 25 26
M  V30 26 1 26 27
M  V30 27 2 27 28
M  V30 28 1 28 29
M  V30 29 1 28 30
M  V30 30 2 30 31
M  V30 31 1 31 32
M  V30 32 1 23 33
M  V30 33 2 33 34
M  V30 34 1 34 35
M  V30 35 1 35 36
M  V30 36 1 17 12
M  V30 37 1 34 20
M  V30 38 1 36 15
M  V30 39 1 31 25
M  V30 40 1 1 37
M  V30 41 1 1 38
M  V30 42 1 1 39
M  V30 43 1 5 40 CFG=3
M  V30 44 1 6 41
M  V30 45 1 6 42
M  V30 46 1 7 43
M  V30 47 1 7 44
M  V30 48 1 8 45
M  V30 49 1 8 46
M  V30 50 1 9 47
M  V30 51 1 13 48
M  V30 52 1 14 49
M  V30 53 1 17 50
M  V30 54 1 21 51
M  V30 55 1 22 52
M  V30 56 1 24 53
M  V30 57 1 26 54
M  V30 58 1 27 55
M  V30 59 1 30 56
M  V30 60 1 33 57
M  V30 61 1 35 58
M  V30 62 1 35 59
M  V30 63 1 36 60
M  V30 64 1 36 61
M  V30 END BOND
M  V30 END CTAB
M  END
>  <Dataset>  (998) 
ChEMBL_Kinases

>  <Ligand_Instance>  (998) 
nan

>  <PDB_ID>  (998) 
nan

>  <Standardized_SMILES>  (998) 
COC(=O)[C@@H](N)CCNC(=O)c1ccc2c(c1)C(=O)c1ccc(Nc3ccc(F)cc3F)cc1CC2

>  <Name>  (998) 
nan

>  <Pocket>  (998) 
nan

>  <ATP_Site>  (998) 
nan

>  <Peripheral>  (998) 
nan

>  <Num_H_Atoms_ProtBoundConf>  (998) 
nan

>  <Num_Resolved_Atoms>  (998) 
nan

>  <Num_Not_Resolved_Atoms>  (998) 
nan

$$$$
CHEMBL3747066
     RDKit          3D

  0  0  0  0  0  0  0  0  0  0999 V3000
M  V30 BEGIN CTAB
M  V30 COUNTS 50 52 0 0 0
M  V30 BEGIN ATOM
M  V30 1 C 2.826779 -2.729163 1.984287 0
M  V30 2 C 3.461640 -2.309897 3.285312 0
M  V30 3 S 4.908268 -1.347516 2.907404 0
M  V30 4 O 5.852221 -2.240464 2.151911 0
M  V30 5 O 5.553235 -0.829690 4.176998 0
M  V30 6 N 4.463458 0.034514 1.998666 0
M  V30 7 C 3.847297 0.083098 0.719567 0
M  V30 8 C 4.438807 -0.793639 -0.189005 0
M  V30 9 C 3.934369 -0.838319 -1.468375 0
M  V30 10 C 2.879473 -0.043899 -1.842099 0
M  V30 11 C 2.254884 0.839104 -0.991088 0
M  V30 12 O 1.230674 1.741609 -1.003076 0
M  V30 13 C -0.012461 1.610890 -0.495236 0
M  V30 14 C -0.153641 2.595884 0.499669 0
M  V30 15 C -1.335956 2.745983 1.240046 0
M  V30 16 F -1.550638 3.664923 2.210263 0
M  V30 17 C -2.386633 1.884893 0.966477 0
M  V30 18 F -3.560142 2.000922 1.670760 0
M  V30 19 C -2.285457 0.910203 0.001643 0
M  V30 20 N -3.407348 0.076055 -0.215917 0
M  V30 21 C -4.007770 -1.042668 0.436128 0
M  V30 22 C -5.319483 -0.656966 0.751471 0
M  V30 23 C -6.183529 -1.540736 1.411510 0
M  V30 24 C -5.715021 -2.795524 1.742838 0
M  V30 25 I -6.911909 -4.227398 2.738460 0
M  V30 26 C -4.425641 -3.164522 1.429066 0
M  V30 27 C -3.591570 -2.298078 0.786859 0
M  V30 28 F -2.307715 -2.509500 0.421360 0
M  V30 29 C -1.104251 0.824833 -0.679314 0
M  V30 30 C -1.025071 -0.142878 -1.704063 0
M  V30 31 N -0.207533 -0.696183 -2.658334 0
M  V30 32 O -1.896027 -0.938643 -2.102322 0
M  V30 33 C 2.769608 0.885666 0.315657 0
M  V30 34 H 1.966327 -3.438266 2.164366 0
M  V30 35 H 2.344655 -1.828044 1.526354 0
M  V30 36 H 3.561556 -3.140193 1.286148 0
M  V30 37 H 3.682901 -3.151978 3.956327 0
M  V30 38 H 2.734611 -1.658370 3.853222 0
M  V30 39 H 4.582443 1.055869 2.257271 0
M  V30 40 H 5.269363 -1.450178 0.023233 0
M  V30 41 H 4.282481 -1.466392 -2.295547 0
M  V30 42 H 2.405500 0.026557 -2.806664 0
M  V30 43 H 0.564294 3.356973 0.849179 0
M  V30 44 H -3.807927 0.482478 -1.098300 0
M  V30 45 H -5.850156 0.277736 0.568940 0
M  V30 46 H -7.197907 -1.350391 1.698252 0
M  V30 47 H -3.997777 -4.129504 1.659830 0
M  V30 48 H 0.518140 -1.471627 -2.697483 0
M  V30 49 H 0.322482 -0.985123 -3.468449 0
M  V30 50 H 2.487618 1.476120 1.195063 0
M  V30 END ATOM
M  V30 BEGIN BOND
M  V30 1 1 1 2
M  V30 2 1 2 3
M  V30 3 2 3 4
M  V30 4 2 3 5
M  V30 5 1 3 6
M  V30 6 1 6 7
M  V30 7 2 7 8
M  V30 8 1 8 9
M  V30 9 2 9 10
M  V30 10 1 10 11
M  V30 11 1 11 12
M  V30 12 1 12 13
M  V30 13 2 13 14
M  V30 14 1 14 15
M  V30 15 1 15 16
M  V30 16 2 15 17
M  V30 17 1 17 18
M  V30 18 1 17 19
M  V30 19 1 19 20
M  V30 20 1 20 21
M  V30 21 2 21 22
M  V30 22 1 22 23
M  V30 23 2 23 24
M  V30 24 1 24 25
M  V30 25 1 24 26
M  V30 26 2 26 27
M  V30 27 1 27 28
M  V30 28 2 19 29
M  V30 29 1 29 30
M  V30 30 1 30 31
M  V30 31 2 30 32
M  V30 32 2 11 33
M  V30 33 1 33 7
M  V30 34 1 29 13
M  V30 35 1 27 21
M  V30 36 1 1 34
M  V30 37 1 1 35
M  V30 38 1 1 36
M  V30 39 1 2 37
M  V30 40 1 2 38
M  V30 41 1 6 39
M  V30 42 1 8 40
M  V30 43 1 9 41
M  V30 44 1 10 42
M  V30 45 1 14 43
M  V30 46 1 20 44
M  V30 47 1 22 45
M  V30 48 1 23 46
M  V30 49 1 26 47
M  V30 50 1 31 48
M  V30 51 1 31 49
M  V30 52 1 33 50
M  V30 END BOND
M  V30 END CTAB
M  END
>  <Dataset>  (999) 
ChEMBL_Kinases

>  <Ligand_Instance>  (999) 
nan

>  <PDB_ID>  (999) 
nan

>  <Standardized_SMILES>  (999) 
CCS(=O)(=O)Nc1cccc(Oc2cc(F)c(F)c(Nc3ccc(I)cc3F)c2C(N)=O)c1

>  <Name>  (999) 
nan

>  <Pocket>  (999) 
nan

>  <ATP_Site>  (999) 
nan

>  <Peripheral>  (999) 
nan

>  <Num_H_Atoms_ProtBoundConf>  (999) 
nan

>  <Num_Resolved_Atoms>  (999) 
nan

>  <Num_Not_Resolved_Atoms>  (999) 
nan

$$$$
